default_name
  -OEChem-02102213163D

 29 28  0     1  0  0  0  0  0999 V2000
   -3.5781   -3.7296    1.2702 H   0  0  0  0  0  0  0  0  0  0  0  0
   -3.5311   -2.7616    0.7732 C   0  0  0  0  0  0  0  0  0  0  0  0
   -4.2371   -2.0766    1.2382 H   0  0  0  0  0  0  0  0  0  0  0  0
   -3.7681   -2.8816   -0.2818 H   0  0  0  0  0  0  0  0  0  0  0  0
   -2.1321   -2.2086    0.9112 C   0  0  0  0  0  0  0  0  0  0  0  0
   -1.2751   -2.8426    1.5112 O   0  0  0  0  0  0  0  0  0  0  0  0
   -1.9041   -1.0186    0.3602 N   0  0  0  0  0  0  0  0  0  0  0  0
   -2.6671   -0.5416   -0.0988 H   0  0  0  0  0  0  0  0  0  0  0  0
   -0.6131   -0.3236    0.3832 C   0  0  1  0  0  0  0  0  0  0  0  0
    0.1346   -0.9625   -0.0894 H   0  0  0  0  0  0  0  0  0  0  0  0
   -0.7253    0.9751   -0.4365 C   0  0  0  0  0  0  0  0  0  0  0  0
   -1.0055    0.7205   -1.4609 H   0  0  0  0  0  0  0  0  0  0  0  0
   -1.5124    1.6008   -0.0132 H   0  0  0  0  0  0  0  0  0  0  0  0
    0.5750    1.7860   -0.4801 C   0  0  0  0  0  0  0  0  0  0  0  0
    0.8653    2.0507    0.5362 H   0  0  0  0  0  0  0  0  0  0  0  0
    1.3589    1.1676   -0.9189 H   0  0  0  0  0  0  0  0  0  0  0  0
    0.4455    3.3139   -1.4436 S   0  0  0  0  0  0  0  0  0  0  0  0
    0.2795    2.6175   -3.1077 C   0  0  0  0  0  0  0  0  0  0  0  0
   -0.6118    1.9913   -3.1569 H   0  0  0  0  0  0  0  0  0  0  0  0
    0.1891    3.4281   -3.8313 H   0  0  0  0  0  0  0  0  0  0  0  0
    1.1601    2.0204   -3.3461 H   0  0  0  0  0  0  0  0  0  0  0  0
   -0.1711   -0.0594    1.8296 C   0  0  0  0  0  0  0  0  0  0  0  0
    0.9865   -0.2908    2.1726 O   0  0  0  0  0  0  0  0  0  0  0  0
   -1.0921    0.4156    2.6780 N   0  0  0  0  0  0  0  0  0  0  0  0
   -2.0168    0.5953    2.3206 H   0  0  0  0  0  0  0  0  0  0  0  0
   -0.8319    0.7034    4.0877 C   0  0  0  0  0  0  0  0  0  0  0  0
   -0.0192    1.4288    4.1710 H   0  0  0  0  0  0  0  0  0  0  0  0
   -1.7255    1.1088    4.5641 H   0  0  0  0  0  0  0  0  0  0  0  0
   -0.5319   -0.2118    4.6011 H   0  0  0  0  0  0  0  0  0  0  0  0
  5  6  2  0  0  0  0
  5  7  1  0  0  0  0
  2  3  1  0  0  0  0
  2  4  1  0  0  0  0
  2  5  1  0  0  0  0
  1  2  1  0  0  0  0
 22 23  2  0  0  0  0
 22 24  1  0  0  0  0
 18 19  1  0  0  0  0
 18 20  1  0  0  0  0
 18 21  1  0  0  0  0
 17 18  1  0  0  0  0
 14 15  1  0  0  0  0
 14 16  1  0  0  0  0
 14 17  1  0  0  0  0
 11 12  1  0  0  0  0
 11 13  1  0  0  0  0
 11 14  1  0  0  0  0
  9 10  1  0  0  0  0
  9 11  1  0  0  0  0
  9 22  1  0  0  0  0
  7  8  1  0  0  0  0
  7  9  1  0  0  0  0
 26 27  1  0  0  0  0
 26 28  1  0  0  0  0
 26 29  1  0  0  0  0
 24 25  1  0  0  0  0
 24 26  1  0  0  0  0
M  END
$$$$
default_name
  -OEChem-02102213163D

 29 28  0     1  0  0  0  0  0999 V2000
   -3.5781   -3.7296    1.2702 H   0  0  0  0  0  0  0  0  0  0  0  0
   -3.5311   -2.7616    0.7732 C   0  0  0  0  0  0  0  0  0  0  0  0
   -4.2371   -2.0766    1.2382 H   0  0  0  0  0  0  0  0  0  0  0  0
   -3.7681   -2.8816   -0.2818 H   0  0  0  0  0  0  0  0  0  0  0  0
   -2.1321   -2.2086    0.9112 C   0  0  0  0  0  0  0  0  0  0  0  0
   -1.2751   -2.8426    1.5112 O   0  0  0  0  0  0  0  0  0  0  0  0
   -1.9041   -1.0186    0.3602 N   0  0  0  0  0  0  0  0  0  0  0  0
   -2.6671   -0.5416   -0.0988 H   0  0  0  0  0  0  0  0  0  0  0  0
   -0.6131   -0.3236    0.3832 C   0  0  1  0  0  0  0  0  0  0  0  0
    0.1346   -0.9625   -0.0894 H   0  0  0  0  0  0  0  0  0  0  0  0
   -0.7253    0.9751   -0.4365 C   0  0  0  0  0  0  0  0  0  0  0  0
   -1.0055    0.7205   -1.4609 H   0  0  0  0  0  0  0  0  0  0  0  0
   -1.5124    1.6008   -0.0132 H   0  0  0  0  0  0  0  0  0  0  0  0
    0.5750    1.7860   -0.4801 C   0  0  0  0  0  0  0  0  0  0  0  0
    1.0068    1.8229    0.5196 H   0  0  0  0  0  0  0  0  0  0  0  0
    1.2776    1.2856   -1.1473 H   0  0  0  0  0  0  0  0  0  0  0  0
    0.3503    3.4874   -1.0583 S   0  0  0  0  0  0  0  0  0  0  0  0
   -0.0564    3.1730   -2.7954 C   0  0  0  0  0  0  0  0  0  0  0  0
   -0.9601    2.5658   -2.8574 H   0  0  0  0  0  0  0  0  0  0  0  0
   -0.2261    4.1221   -3.3044 H   0  0  0  0  0  0  0  0  0  0  0  0
    0.7698    2.6499   -3.2778 H   0  0  0  0  0  0  0  0  0  0  0  0
   -0.1711   -0.0594    1.8296 C   0  0  0  0  0  0  0  0  0  0  0  0
    0.9865   -0.2908    2.1726 O   0  0  0  0  0  0  0  0  0  0  0  0
   -1.0921    0.4156    2.6780 N   0  0  0  0  0  0  0  0  0  0  0  0
   -2.0168    0.5953    2.3206 H   0  0  0  0  0  0  0  0  0  0  0  0
   -0.8319    0.7034    4.0877 C   0  0  0  0  0  0  0  0  0  0  0  0
   -0.0192    1.4288    4.1710 H   0  0  0  0  0  0  0  0  0  0  0  0
   -1.7255    1.1088    4.5641 H   0  0  0  0  0  0  0  0  0  0  0  0
   -0.5319   -0.2118    4.6011 H   0  0  0  0  0  0  0  0  0  0  0  0
  5  6  2  0  0  0  0
  5  7  1  0  0  0  0
  2  3  1  0  0  0  0
  2  4  1  0  0  0  0
  2  5  1  0  0  0  0
  1  2  1  0  0  0  0
 22 23  2  0  0  0  0
 22 24  1  0  0  0  0
 18 19  1  0  0  0  0
 18 20  1  0  0  0  0
 18 21  1  0  0  0  0
 17 18  1  0  0  0  0
 14 15  1  0  0  0  0
 14 16  1  0  0  0  0
 14 17  1  0  0  0  0
 11 12  1  0  0  0  0
 11 13  1  0  0  0  0
 11 14  1  0  0  0  0
  9 10  1  0  0  0  0
  9 11  1  0  0  0  0
  9 22  1  0  0  0  0
  7  8  1  0  0  0  0
  7  9  1  0  0  0  0
 26 27  1  0  0  0  0
 26 28  1  0  0  0  0
 26 29  1  0  0  0  0
 24 25  1  0  0  0  0
 24 26  1  0  0  0  0
M  END
$$$$
default_name
  -OEChem-02102213163D

 29 28  0     1  0  0  0  0  0999 V2000
   -3.5781   -3.7296    1.2702 H   0  0  0  0  0  0  0  0  0  0  0  0
   -3.5311   -2.7616    0.7732 C   0  0  0  0  0  0  0  0  0  0  0  0
   -4.2371   -2.0766    1.2382 H   0  0  0  0  0  0  0  0  0  0  0  0
   -3.7681   -2.8816   -0.2818 H   0  0  0  0  0  0  0  0  0  0  0  0
   -2.1321   -2.2086    0.9112 C   0  0  0  0  0  0  0  0  0  0  0  0
   -1.2751   -2.8426    1.5112 O   0  0  0  0  0  0  0  0  0  0  0  0
   -1.9041   -1.0186    0.3602 N   0  0  0  0  0  0  0  0  0  0  0  0
   -2.6671   -0.5416   -0.0988 H   0  0  0  0  0  0  0  0  0  0  0  0
   -0.6131   -0.3236    0.3832 C   0  0  1  0  0  0  0  0  0  0  0  0
    0.1346   -0.9625   -0.0894 H   0  0  0  0  0  0  0  0  0  0  0  0
   -0.7253    0.9751   -0.4365 C   0  0  0  0  0  0  0  0  0  0  0  0
   -1.0055    0.7205   -1.4609 H   0  0  0  0  0  0  0  0  0  0  0  0
   -1.5124    1.6008   -0.0132 H   0  0  0  0  0  0  0  0  0  0  0  0
    0.5750    1.7860   -0.4801 C   0  0  0  0  0  0  0  0  0  0  0  0
    1.1396    1.6055    0.4341 H   0  0  0  0  0  0  0  0  0  0  0  0
    1.1688    1.4503   -1.3310 H   0  0  0  0  0  0  0  0  0  0  0  0
    0.3122    3.5711   -0.6351 S   0  0  0  0  0  0  0  0  0  0  0  0
   -0.3341    3.6434   -2.3259 C   0  0  0  0  0  0  0  0  0  0  0  0
   -1.2512    3.0576   -2.3942 H   0  0  0  0  0  0  0  0  0  0  0  0
   -0.5499    4.6799   -2.5863 H   0  0  0  0  0  0  0  0  0  0  0  0
    0.4068    3.2459   -3.0202 H   0  0  0  0  0  0  0  0  0  0  0  0
   -0.1711   -0.0594    1.8296 C   0  0  0  0  0  0  0  0  0  0  0  0
    0.9865   -0.2908    2.1726 O   0  0  0  0  0  0  0  0  0  0  0  0
   -1.0921    0.4156    2.6780 N   0  0  0  0  0  0  0  0  0  0  0  0
   -2.0168    0.5953    2.3206 H   0  0  0  0  0  0  0  0  0  0  0  0
   -0.8319    0.7034    4.0877 C   0  0  0  0  0  0  0  0  0  0  0  0
   -0.0192    1.4288    4.1710 H   0  0  0  0  0  0  0  0  0  0  0  0
   -1.7255    1.1088    4.5641 H   0  0  0  0  0  0  0  0  0  0  0  0
   -0.5319   -0.2118    4.6011 H   0  0  0  0  0  0  0  0  0  0  0  0
  5  6  2  0  0  0  0
  5  7  1  0  0  0  0
  2  3  1  0  0  0  0
  2  4  1  0  0  0  0
  2  5  1  0  0  0  0
  1  2  1  0  0  0  0
 22 23  2  0  0  0  0
 22 24  1  0  0  0  0
 18 19  1  0  0  0  0
 18 20  1  0  0  0  0
 18 21  1  0  0  0  0
 17 18  1  0  0  0  0
 14 15  1  0  0  0  0
 14 16  1  0  0  0  0
 14 17  1  0  0  0  0
 11 12  1  0  0  0  0
 11 13  1  0  0  0  0
 11 14  1  0  0  0  0
  9 10  1  0  0  0  0
  9 11  1  0  0  0  0
  9 22  1  0  0  0  0
  7  8  1  0  0  0  0
  7  9  1  0  0  0  0
 26 27  1  0  0  0  0
 26 28  1  0  0  0  0
 26 29  1  0  0  0  0
 24 25  1  0  0  0  0
 24 26  1  0  0  0  0
M  END
$$$$
default_name
  -OEChem-02102213163D

 29 28  0     1  0  0  0  0  0999 V2000
   -3.5781   -3.7296    1.2702 H   0  0  0  0  0  0  0  0  0  0  0  0
   -3.5311   -2.7616    0.7732 C   0  0  0  0  0  0  0  0  0  0  0  0
   -4.2371   -2.0766    1.2382 H   0  0  0  0  0  0  0  0  0  0  0  0
   -3.7681   -2.8816   -0.2818 H   0  0  0  0  0  0  0  0  0  0  0  0
   -2.1321   -2.2086    0.9112 C   0  0  0  0  0  0  0  0  0  0  0  0
   -1.2751   -2.8426    1.5112 O   0  0  0  0  0  0  0  0  0  0  0  0
   -1.9041   -1.0186    0.3602 N   0  0  0  0  0  0  0  0  0  0  0  0
   -2.6671   -0.5416   -0.0988 H   0  0  0  0  0  0  0  0  0  0  0  0
   -0.6131   -0.3236    0.3832 C   0  0  1  0  0  0  0  0  0  0  0  0
    0.1346   -0.9625   -0.0894 H   0  0  0  0  0  0  0  0  0  0  0  0
   -0.7253    0.9751   -0.4365 C   0  0  0  0  0  0  0  0  0  0  0  0
   -1.0055    0.7205   -1.4609 H   0  0  0  0  0  0  0  0  0  0  0  0
   -1.5124    1.6008   -0.0132 H   0  0  0  0  0  0  0  0  0  0  0  0
    0.5750    1.7860   -0.4801 C   0  0  0  0  0  0  0  0  0  0  0  0
    1.2545    1.4132    0.2857 H   0  0  0  0  0  0  0  0  0  0  0  0
    1.0397    1.6504   -1.4573 H   0  0  0  0  0  0  0  0  0  0  0  0
    0.3341    3.5593   -0.2027 S   0  0  0  0  0  0  0  0  0  0  0  0
   -0.5345    3.9967   -1.7310 C   0  0  0  0  0  0  0  0  0  0  0  0
   -1.4655    3.4331   -1.7991 H   0  0  0  0  0  0  0  0  0  0  0  0
   -0.7602    5.0634   -1.7259 H   0  0  0  0  0  0  0  0  0  0  0  0
    0.0958    3.7676   -2.5908 H   0  0  0  0  0  0  0  0  0  0  0  0
   -0.1711   -0.0594    1.8296 C   0  0  0  0  0  0  0  0  0  0  0  0
    0.9865   -0.2908    2.1726 O   0  0  0  0  0  0  0  0  0  0  0  0
   -1.0921    0.4156    2.6780 N   0  0  0  0  0  0  0  0  0  0  0  0
   -2.0168    0.5953    2.3206 H   0  0  0  0  0  0  0  0  0  0  0  0
   -0.8319    0.7034    4.0877 C   0  0  0  0  0  0  0  0  0  0  0  0
   -0.0192    1.4288    4.1710 H   0  0  0  0  0  0  0  0  0  0  0  0
   -1.7255    1.1088    4.5641 H   0  0  0  0  0  0  0  0  0  0  0  0
   -0.5319   -0.2118    4.6011 H   0  0  0  0  0  0  0  0  0  0  0  0
  5  6  2  0  0  0  0
  5  7  1  0  0  0  0
  2  3  1  0  0  0  0
  2  4  1  0  0  0  0
  2  5  1  0  0  0  0
  1  2  1  0  0  0  0
 22 23  2  0  0  0  0
 22 24  1  0  0  0  0
 18 19  1  0  0  0  0
 18 20  1  0  0  0  0
 18 21  1  0  0  0  0
 17 18  1  0  0  0  0
 14 15  1  0  0  0  0
 14 16  1  0  0  0  0
 14 17  1  0  0  0  0
 11 12  1  0  0  0  0
 11 13  1  0  0  0  0
 11 14  1  0  0  0  0
  9 10  1  0  0  0  0
  9 11  1  0  0  0  0
  9 22  1  0  0  0  0
  7  8  1  0  0  0  0
  7  9  1  0  0  0  0
 26 27  1  0  0  0  0
 26 28  1  0  0  0  0
 26 29  1  0  0  0  0
 24 25  1  0  0  0  0
 24 26  1  0  0  0  0
M  END
$$$$
default_name
  -OEChem-02102213163D

 29 28  0     1  0  0  0  0  0999 V2000
   -3.5781   -3.7296    1.2702 H   0  0  0  0  0  0  0  0  0  0  0  0
   -3.5311   -2.7616    0.7732 C   0  0  0  0  0  0  0  0  0  0  0  0
   -4.2371   -2.0766    1.2382 H   0  0  0  0  0  0  0  0  0  0  0  0
   -3.7681   -2.8816   -0.2818 H   0  0  0  0  0  0  0  0  0  0  0  0
   -2.1321   -2.2086    0.9112 C   0  0  0  0  0  0  0  0  0  0  0  0
   -1.2751   -2.8426    1.5112 O   0  0  0  0  0  0  0  0  0  0  0  0
   -1.9041   -1.0186    0.3602 N   0  0  0  0  0  0  0  0  0  0  0  0
   -2.6671   -0.5416   -0.0988 H   0  0  0  0  0  0  0  0  0  0  0  0
   -0.6131   -0.3236    0.3832 C   0  0  1  0  0  0  0  0  0  0  0  0
    0.1346   -0.9625   -0.0894 H   0  0  0  0  0  0  0  0  0  0  0  0
   -0.7253    0.9751   -0.4365 C   0  0  0  0  0  0  0  0  0  0  0  0
   -1.0055    0.7205   -1.4609 H   0  0  0  0  0  0  0  0  0  0  0  0
   -1.5124    1.6008   -0.0132 H   0  0  0  0  0  0  0  0  0  0  0  0
    0.5750    1.7860   -0.4801 C   0  0  0  0  0  0  0  0  0  0  0  0
    1.3438    1.2593    0.0844 H   0  0  0  0  0  0  0  0  0  0  0  0
    0.8992    1.8725   -1.5178 H   0  0  0  0  0  0  0  0  0  0  0  0
    0.4143    3.4528    0.2094 S   0  0  0  0  0  0  0  0  0  0  0  0
   -0.6441    4.2089   -1.0515 C   0  0  0  0  0  0  0  0  0  0  0  0
   -1.5882    3.6667   -1.1124 H   0  0  0  0  0  0  0  0  0  0  0  0
   -0.8428    5.2465   -0.7818 H   0  0  0  0  0  0  0  0  0  0  0  0
   -0.1420    4.1796   -2.0189 H   0  0  0  0  0  0  0  0  0  0  0  0
   -0.1711   -0.0594    1.8296 C   0  0  0  0  0  0  0  0  0  0  0  0
    0.9865   -0.2908    2.1726 O   0  0  0  0  0  0  0  0  0  0  0  0
   -1.0921    0.4156    2.6780 N   0  0  0  0  0  0  0  0  0  0  0  0
   -2.0168    0.5953    2.3206 H   0  0  0  0  0  0  0  0  0  0  0  0
   -0.8319    0.7034    4.0877 C   0  0  0  0  0  0  0  0  0  0  0  0
   -0.0192    1.4288    4.1710 H   0  0  0  0  0  0  0  0  0  0  0  0
   -1.7255    1.1088    4.5641 H   0  0  0  0  0  0  0  0  0  0  0  0
   -0.5319   -0.2118    4.6011 H   0  0  0  0  0  0  0  0  0  0  0  0
  5  6  2  0  0  0  0
  5  7  1  0  0  0  0
  2  3  1  0  0  0  0
  2  4  1  0  0  0  0
  2  5  1  0  0  0  0
  1  2  1  0  0  0  0
 22 23  2  0  0  0  0
 22 24  1  0  0  0  0
 18 19  1  0  0  0  0
 18 20  1  0  0  0  0
 18 21  1  0  0  0  0
 17 18  1  0  0  0  0
 14 15  1  0  0  0  0
 14 16  1  0  0  0  0
 14 17  1  0  0  0  0
 11 12  1  0  0  0  0
 11 13  1  0  0  0  0
 11 14  1  0  0  0  0
  9 10  1  0  0  0  0
  9 11  1  0  0  0  0
  9 22  1  0  0  0  0
  7  8  1  0  0  0  0
  7  9  1  0  0  0  0
 26 27  1  0  0  0  0
 26 28  1  0  0  0  0
 26 29  1  0  0  0  0
 24 25  1  0  0  0  0
 24 26  1  0  0  0  0
M  END
$$$$
default_name
  -OEChem-02102213163D

 29 28  0     1  0  0  0  0  0999 V2000
   -3.5781   -3.7296    1.2702 H   0  0  0  0  0  0  0  0  0  0  0  0
   -3.5311   -2.7616    0.7732 C   0  0  0  0  0  0  0  0  0  0  0  0
   -4.2371   -2.0766    1.2382 H   0  0  0  0  0  0  0  0  0  0  0  0
   -3.7681   -2.8816   -0.2818 H   0  0  0  0  0  0  0  0  0  0  0  0
   -2.1321   -2.2086    0.9112 C   0  0  0  0  0  0  0  0  0  0  0  0
   -1.2751   -2.8426    1.5112 O   0  0  0  0  0  0  0  0  0  0  0  0
   -1.9041   -1.0186    0.3602 N   0  0  0  0  0  0  0  0  0  0  0  0
   -2.6671   -0.5416   -0.0988 H   0  0  0  0  0  0  0  0  0  0  0  0
   -0.6131   -0.3236    0.3832 C   0  0  1  0  0  0  0  0  0  0  0  0
    0.1346   -0.9625   -0.0894 H   0  0  0  0  0  0  0  0  0  0  0  0
   -0.7253    0.9751   -0.4365 C   0  0  0  0  0  0  0  0  0  0  0  0
   -1.0055    0.7205   -1.4609 H   0  0  0  0  0  0  0  0  0  0  0  0
   -1.5124    1.6008   -0.0132 H   0  0  0  0  0  0  0  0  0  0  0  0
    0.5750    1.7860   -0.4801 C   0  0  0  0  0  0  0  0  0  0  0  0
    1.4013    1.1541   -0.1560 H   0  0  0  0  0  0  0  0  0  0  0  0
    0.7568    2.1013   -1.5081 H   0  0  0  0  0  0  0  0  0  0  0  0
    0.5474    3.2589    0.5732 S   0  0  0  0  0  0  0  0  0  0  0  0
   -0.6553    4.2655   -0.3335 C   0  0  0  0  0  0  0  0  0  0  0  0
   -1.6109    3.7426   -0.3810 H   0  0  0  0  0  0  0  0  0  0  0  0
   -0.7919    5.2168    0.1816 H   0  0  0  0  0  0  0  0  0  0  0  0
   -0.2904    4.4538   -1.3436 H   0  0  0  0  0  0  0  0  0  0  0  0
   -0.1711   -0.0594    1.8296 C   0  0  0  0  0  0  0  0  0  0  0  0
    0.9865   -0.2908    2.1726 O   0  0  0  0  0  0  0  0  0  0  0  0
   -1.0921    0.4156    2.6780 N   0  0  0  0  0  0  0  0  0  0  0  0
   -2.0168    0.5953    2.3206 H   0  0  0  0  0  0  0  0  0  0  0  0
   -0.8319    0.7034    4.0877 C   0  0  0  0  0  0  0  0  0  0  0  0
   -0.0192    1.4288    4.1710 H   0  0  0  0  0  0  0  0  0  0  0  0
   -1.7255    1.1088    4.5641 H   0  0  0  0  0  0  0  0  0  0  0  0
   -0.5319   -0.2118    4.6011 H   0  0  0  0  0  0  0  0  0  0  0  0
  5  6  2  0  0  0  0
  5  7  1  0  0  0  0
  2  3  1  0  0  0  0
  2  4  1  0  0  0  0
  2  5  1  0  0  0  0
  1  2  1  0  0  0  0
 22 23  2  0  0  0  0
 22 24  1  0  0  0  0
 18 19  1  0  0  0  0
 18 20  1  0  0  0  0
 18 21  1  0  0  0  0
 17 18  1  0  0  0  0
 14 15  1  0  0  0  0
 14 16  1  0  0  0  0
 14 17  1  0  0  0  0
 11 12  1  0  0  0  0
 11 13  1  0  0  0  0
 11 14  1  0  0  0  0
  9 10  1  0  0  0  0
  9 11  1  0  0  0  0
  9 22  1  0  0  0  0
  7  8  1  0  0  0  0
  7  9  1  0  0  0  0
 26 27  1  0  0  0  0
 26 28  1  0  0  0  0
 26 29  1  0  0  0  0
 24 25  1  0  0  0  0
 24 26  1  0  0  0  0
M  END
$$$$
default_name
  -OEChem-02102213163D

 29 28  0     1  0  0  0  0  0999 V2000
   -3.5781   -3.7296    1.2702 H   0  0  0  0  0  0  0  0  0  0  0  0
   -3.5311   -2.7616    0.7732 C   0  0  0  0  0  0  0  0  0  0  0  0
   -4.2371   -2.0766    1.2382 H   0  0  0  0  0  0  0  0  0  0  0  0
   -3.7681   -2.8816   -0.2818 H   0  0  0  0  0  0  0  0  0  0  0  0
   -2.1321   -2.2086    0.9112 C   0  0  0  0  0  0  0  0  0  0  0  0
   -1.2751   -2.8426    1.5112 O   0  0  0  0  0  0  0  0  0  0  0  0
   -1.9041   -1.0186    0.3602 N   0  0  0  0  0  0  0  0  0  0  0  0
   -2.6671   -0.5416   -0.0988 H   0  0  0  0  0  0  0  0  0  0  0  0
   -0.6131   -0.3236    0.3832 C   0  0  1  0  0  0  0  0  0  0  0  0
    0.1346   -0.9625   -0.0894 H   0  0  0  0  0  0  0  0  0  0  0  0
   -0.7253    0.9751   -0.4365 C   0  0  0  0  0  0  0  0  0  0  0  0
   -1.0055    0.7205   -1.4609 H   0  0  0  0  0  0  0  0  0  0  0  0
   -1.5124    1.6008   -0.0132 H   0  0  0  0  0  0  0  0  0  0  0  0
    0.5750    1.7860   -0.4801 C   0  0  0  0  0  0  0  0  0  0  0  0
    1.4232    1.1048   -0.4193 H   0  0  0  0  0  0  0  0  0  0  0  0
    0.6223    2.3212   -1.4291 H   0  0  0  0  0  0  0  0  0  0  0  0
    0.7244    2.9908    0.8637 S   0  0  0  0  0  0  0  0  0  0  0  0
   -0.5674    4.1627    0.3740 C   0  0  0  0  0  0  0  0  0  0  0  0
   -1.5322    3.6554    0.3452 H   0  0  0  0  0  0  0  0  0  0  0  0
   -0.6111    4.9761    1.0987 H   0  0  0  0  0  0  0  0  0  0  0  0
   -0.3392    4.5715   -0.6107 H   0  0  0  0  0  0  0  0  0  0  0  0
   -0.1711   -0.0594    1.8296 C   0  0  0  0  0  0  0  0  0  0  0  0
    0.9865   -0.2908    2.1726 O   0  0  0  0  0  0  0  0  0  0  0  0
   -1.0921    0.4156    2.6780 N   0  0  0  0  0  0  0  0  0  0  0  0
   -2.0168    0.5953    2.3206 H   0  0  0  0  0  0  0  0  0  0  0  0
   -0.8319    0.7034    4.0877 C   0  0  0  0  0  0  0  0  0  0  0  0
   -0.0192    1.4288    4.1710 H   0  0  0  0  0  0  0  0  0  0  0  0
   -1.7255    1.1088    4.5641 H   0  0  0  0  0  0  0  0  0  0  0  0
   -0.5319   -0.2118    4.6011 H   0  0  0  0  0  0  0  0  0  0  0  0
  5  6  2  0  0  0  0
  5  7  1  0  0  0  0
  2  3  1  0  0  0  0
  2  4  1  0  0  0  0
  2  5  1  0  0  0  0
  1  2  1  0  0  0  0
 22 23  2  0  0  0  0
 22 24  1  0  0  0  0
 18 19  1  0  0  0  0
 18 20  1  0  0  0  0
 18 21  1  0  0  0  0
 17 18  1  0  0  0  0
 14 15  1  0  0  0  0
 14 16  1  0  0  0  0
 14 17  1  0  0  0  0
 11 12  1  0  0  0  0
 11 13  1  0  0  0  0
 11 14  1  0  0  0  0
  9 10  1  0  0  0  0
  9 11  1  0  0  0  0
  9 22  1  0  0  0  0
  7  8  1  0  0  0  0
  7  9  1  0  0  0  0
 26 27  1  0  0  0  0
 26 28  1  0  0  0  0
 26 29  1  0  0  0  0
 24 25  1  0  0  0  0
 24 26  1  0  0  0  0
M  END
$$$$
default_name
  -OEChem-02102213163D

 29 28  0     1  0  0  0  0  0999 V2000
   -3.5781   -3.7296    1.2702 H   0  0  0  0  0  0  0  0  0  0  0  0
   -3.5311   -2.7616    0.7732 C   0  0  0  0  0  0  0  0  0  0  0  0
   -4.2371   -2.0766    1.2382 H   0  0  0  0  0  0  0  0  0  0  0  0
   -3.7681   -2.8816   -0.2818 H   0  0  0  0  0  0  0  0  0  0  0  0
   -2.1321   -2.2086    0.9112 C   0  0  0  0  0  0  0  0  0  0  0  0
   -1.2751   -2.8426    1.5112 O   0  0  0  0  0  0  0  0  0  0  0  0
   -1.9041   -1.0186    0.3602 N   0  0  0  0  0  0  0  0  0  0  0  0
   -2.6671   -0.5416   -0.0988 H   0  0  0  0  0  0  0  0  0  0  0  0
   -0.6131   -0.3236    0.3832 C   0  0  1  0  0  0  0  0  0  0  0  0
    0.1346   -0.9625   -0.0894 H   0  0  0  0  0  0  0  0  0  0  0  0
   -0.7253    0.9751   -0.4365 C   0  0  0  0  0  0  0  0  0  0  0  0
   -1.0055    0.7205   -1.4609 H   0  0  0  0  0  0  0  0  0  0  0  0
   -1.5124    1.6008   -0.0132 H   0  0  0  0  0  0  0  0  0  0  0  0
    0.5750    1.7860   -0.4801 C   0  0  0  0  0  0  0  0  0  0  0  0
    1.4079    1.1149   -0.6873 H   0  0  0  0  0  0  0  0  0  0  0  0
    0.5048    2.5172   -1.2861 H   0  0  0  0  0  0  0  0  0  0  0  0
    0.9331    2.6668    1.0612 S   0  0  0  0  0  0  0  0  0  0  0  0
   -0.3865    3.9074    1.0228 C   0  0  0  0  0  0  0  0  0  0  0  0
   -1.3575    3.4113    1.0167 H   0  0  0  0  0  0  0  0  0  0  0  0
   -0.3127    4.5411    1.9070 H   0  0  0  0  0  0  0  0  0  0  0  0
   -0.2852    4.5246    0.1297 H   0  0  0  0  0  0  0  0  0  0  0  0
   -0.1711   -0.0594    1.8296 C   0  0  0  0  0  0  0  0  0  0  0  0
    0.9865   -0.2908    2.1726 O   0  0  0  0  0  0  0  0  0  0  0  0
   -1.0921    0.4156    2.6780 N   0  0  0  0  0  0  0  0  0  0  0  0
   -2.0168    0.5953    2.3206 H   0  0  0  0  0  0  0  0  0  0  0  0
   -0.8319    0.7034    4.0877 C   0  0  0  0  0  0  0  0  0  0  0  0
   -0.0192    1.4288    4.1710 H   0  0  0  0  0  0  0  0  0  0  0  0
   -1.7255    1.1088    4.5641 H   0  0  0  0  0  0  0  0  0  0  0  0
   -0.5319   -0.2118    4.6011 H   0  0  0  0  0  0  0  0  0  0  0  0
  5  6  2  0  0  0  0
  5  7  1  0  0  0  0
  2  3  1  0  0  0  0
  2  4  1  0  0  0  0
  2  5  1  0  0  0  0
  1  2  1  0  0  0  0
 22 23  2  0  0  0  0
 22 24  1  0  0  0  0
 18 19  1  0  0  0  0
 18 20  1  0  0  0  0
 18 21  1  0  0  0  0
 17 18  1  0  0  0  0
 14 15  1  0  0  0  0
 14 16  1  0  0  0  0
 14 17  1  0  0  0  0
 11 12  1  0  0  0  0
 11 13  1  0  0  0  0
 11 14  1  0  0  0  0
  9 10  1  0  0  0  0
  9 11  1  0  0  0  0
  9 22  1  0  0  0  0
  7  8  1  0  0  0  0
  7  9  1  0  0  0  0
 26 27  1  0  0  0  0
 26 28  1  0  0  0  0
 26 29  1  0  0  0  0
 24 25  1  0  0  0  0
 24 26  1  0  0  0  0
M  END
$$$$
default_name
  -OEChem-02102213163D

 29 28  0     1  0  0  0  0  0999 V2000
   -3.5781   -3.7296    1.2702 H   0  0  0  0  0  0  0  0  0  0  0  0
   -3.5311   -2.7616    0.7732 C   0  0  0  0  0  0  0  0  0  0  0  0
   -4.2371   -2.0766    1.2382 H   0  0  0  0  0  0  0  0  0  0  0  0
   -3.7681   -2.8816   -0.2818 H   0  0  0  0  0  0  0  0  0  0  0  0
   -2.1321   -2.2086    0.9112 C   0  0  0  0  0  0  0  0  0  0  0  0
   -1.2751   -2.8426    1.5112 O   0  0  0  0  0  0  0  0  0  0  0  0
   -1.9041   -1.0186    0.3602 N   0  0  0  0  0  0  0  0  0  0  0  0
   -2.6671   -0.5416   -0.0988 H   0  0  0  0  0  0  0  0  0  0  0  0
   -0.6131   -0.3236    0.3832 C   0  0  1  0  0  0  0  0  0  0  0  0
    0.1346   -0.9625   -0.0894 H   0  0  0  0  0  0  0  0  0  0  0  0
   -0.7253    0.9751   -0.4365 C   0  0  0  0  0  0  0  0  0  0  0  0
   -1.0055    0.7205   -1.4609 H   0  0  0  0  0  0  0  0  0  0  0  0
   -1.5124    1.6008   -0.0132 H   0  0  0  0  0  0  0  0  0  0  0  0
    0.5750    1.7860   -0.4801 C   0  0  0  0  0  0  0  0  0  0  0  0
    1.3566    1.1836   -0.9420 H   0  0  0  0  0  0  0  0  0  0  0  0
    0.4124    2.6761   -1.0889 H   0  0  0  0  0  0  0  0  0  0  0  0
    1.1594    2.3089    1.1523 S   0  0  0  0  0  0  0  0  0  0  0  0
   -0.1247    3.5170    1.5686 C   0  0  0  0  0  0  0  0  0  0  0  0
   -1.0985    3.0267    1.5878 H   0  0  0  0  0  0  0  0  0  0  0  0
    0.0831    3.9412    2.5514 H   0  0  0  0  0  0  0  0  0  0  0  0
   -0.1319    4.3164    0.8272 H   0  0  0  0  0  0  0  0  0  0  0  0
   -0.1711   -0.0594    1.8296 C   0  0  0  0  0  0  0  0  0  0  0  0
    0.9865   -0.2908    2.1726 O   0  0  0  0  0  0  0  0  0  0  0  0
   -1.0921    0.4156    2.6780 N   0  0  0  0  0  0  0  0  0  0  0  0
   -2.0168    0.5953    2.3206 H   0  0  0  0  0  0  0  0  0  0  0  0
   -0.8319    0.7034    4.0877 C   0  0  0  0  0  0  0  0  0  0  0  0
   -0.0192    1.4288    4.1710 H   0  0  0  0  0  0  0  0  0  0  0  0
   -1.7255    1.1088    4.5641 H   0  0  0  0  0  0  0  0  0  0  0  0
   -0.5319   -0.2118    4.6011 H   0  0  0  0  0  0  0  0  0  0  0  0
  5  6  2  0  0  0  0
  5  7  1  0  0  0  0
  2  3  1  0  0  0  0
  2  4  1  0  0  0  0
  2  5  1  0  0  0  0
  1  2  1  0  0  0  0
 22 23  2  0  0  0  0
 22 24  1  0  0  0  0
 18 19  1  0  0  0  0
 18 20  1  0  0  0  0
 18 21  1  0  0  0  0
 17 18  1  0  0  0  0
 14 15  1  0  0  0  0
 14 16  1  0  0  0  0
 14 17  1  0  0  0  0
 11 12  1  0  0  0  0
 11 13  1  0  0  0  0
 11 14  1  0  0  0  0
  9 10  1  0  0  0  0
  9 11  1  0  0  0  0
  9 22  1  0  0  0  0
  7  8  1  0  0  0  0
  7  9  1  0  0  0  0
 26 27  1  0  0  0  0
 26 28  1  0  0  0  0
 26 29  1  0  0  0  0
 24 25  1  0  0  0  0
 24 26  1  0  0  0  0
M  END
$$$$
default_name
  -OEChem-02102213163D

 29 28  0     1  0  0  0  0  0999 V2000
   -3.5781   -3.7296    1.2702 H   0  0  0  0  0  0  0  0  0  0  0  0
   -3.5311   -2.7616    0.7732 C   0  0  0  0  0  0  0  0  0  0  0  0
   -4.2371   -2.0766    1.2382 H   0  0  0  0  0  0  0  0  0  0  0  0
   -3.7681   -2.8816   -0.2818 H   0  0  0  0  0  0  0  0  0  0  0  0
   -2.1321   -2.2086    0.9112 C   0  0  0  0  0  0  0  0  0  0  0  0
   -1.2751   -2.8426    1.5112 O   0  0  0  0  0  0  0  0  0  0  0  0
   -1.9041   -1.0186    0.3602 N   0  0  0  0  0  0  0  0  0  0  0  0
   -2.6671   -0.5416   -0.0988 H   0  0  0  0  0  0  0  0  0  0  0  0
   -0.6131   -0.3236    0.3832 C   0  0  1  0  0  0  0  0  0  0  0  0
    0.1346   -0.9625   -0.0894 H   0  0  0  0  0  0  0  0  0  0  0  0
   -0.7253    0.9751   -0.4365 C   0  0  0  0  0  0  0  0  0  0  0  0
   -1.0055    0.7205   -1.4609 H   0  0  0  0  0  0  0  0  0  0  0  0
   -1.5124    1.6008   -0.0132 H   0  0  0  0  0  0  0  0  0  0  0  0
    0.5750    1.7860   -0.4801 C   0  0  0  0  0  0  0  0  0  0  0  0
    1.2726    1.3062   -1.1658 H   0  0  0  0  0  0  0  0  0  0  0  0
    0.3512    2.7869   -0.8508 H   0  0  0  0  0  0  0  0  0  0  0  0
    1.3878    1.9415    1.1308 S   0  0  0  0  0  0  0  0  0  0  0  0
    0.2000    3.0182    1.9744 C   0  0  0  0  0  0  0  0  0  0  0  0
   -0.7730    2.5280    2.0197 H   0  0  0  0  0  0  0  0  0  0  0  0
    0.5491    3.2174    2.9879 H   0  0  0  0  0  0  0  0  0  0  0  0
    0.1100    3.9611    1.4342 H   0  0  0  0  0  0  0  0  0  0  0  0
   -0.1711   -0.0594    1.8296 C   0  0  0  0  0  0  0  0  0  0  0  0
    0.9865   -0.2908    2.1726 O   0  0  0  0  0  0  0  0  0  0  0  0
   -1.0921    0.4156    2.6780 N   0  0  0  0  0  0  0  0  0  0  0  0
   -2.0168    0.5953    2.3206 H   0  0  0  0  0  0  0  0  0  0  0  0
   -0.8319    0.7034    4.0877 C   0  0  0  0  0  0  0  0  0  0  0  0
   -0.0192    1.4288    4.1710 H   0  0  0  0  0  0  0  0  0  0  0  0
   -1.7255    1.1088    4.5641 H   0  0  0  0  0  0  0  0  0  0  0  0
   -0.5319   -0.2118    4.6011 H   0  0  0  0  0  0  0  0  0  0  0  0
  5  6  2  0  0  0  0
  5  7  1  0  0  0  0
  2  3  1  0  0  0  0
  2  4  1  0  0  0  0
  2  5  1  0  0  0  0
  1  2  1  0  0  0  0
 22 23  2  0  0  0  0
 22 24  1  0  0  0  0
 18 19  1  0  0  0  0
 18 20  1  0  0  0  0
 18 21  1  0  0  0  0
 17 18  1  0  0  0  0
 14 15  1  0  0  0  0
 14 16  1  0  0  0  0
 14 17  1  0  0  0  0
 11 12  1  0  0  0  0
 11 13  1  0  0  0  0
 11 14  1  0  0  0  0
  9 10  1  0  0  0  0
  9 11  1  0  0  0  0
  9 22  1  0  0  0  0
  7  8  1  0  0  0  0
  7  9  1  0  0  0  0
 26 27  1  0  0  0  0
 26 28  1  0  0  0  0
 26 29  1  0  0  0  0
 24 25  1  0  0  0  0
 24 26  1  0  0  0  0
M  END
$$$$
default_name
  -OEChem-02102213163D

 29 28  0     1  0  0  0  0  0999 V2000
   -3.5781   -3.7296    1.2702 H   0  0  0  0  0  0  0  0  0  0  0  0
   -3.5311   -2.7616    0.7732 C   0  0  0  0  0  0  0  0  0  0  0  0
   -4.2371   -2.0766    1.2382 H   0  0  0  0  0  0  0  0  0  0  0  0
   -3.7681   -2.8816   -0.2818 H   0  0  0  0  0  0  0  0  0  0  0  0
   -2.1321   -2.2086    0.9112 C   0  0  0  0  0  0  0  0  0  0  0  0
   -1.2751   -2.8426    1.5112 O   0  0  0  0  0  0  0  0  0  0  0  0
   -1.9041   -1.0186    0.3602 N   0  0  0  0  0  0  0  0  0  0  0  0
   -2.6671   -0.5416   -0.0988 H   0  0  0  0  0  0  0  0  0  0  0  0
   -0.6131   -0.3236    0.3832 C   0  0  1  0  0  0  0  0  0  0  0  0
    0.1346   -0.9625   -0.0894 H   0  0  0  0  0  0  0  0  0  0  0  0
   -0.7253    0.9751   -0.4365 C   0  0  0  0  0  0  0  0  0  0  0  0
   -1.0055    0.7205   -1.4609 H   0  0  0  0  0  0  0  0  0  0  0  0
   -1.5124    1.6008   -0.0132 H   0  0  0  0  0  0  0  0  0  0  0  0
    0.5750    1.7860   -0.4801 C   0  0  0  0  0  0  0  0  0  0  0  0
    1.1617    1.4744   -1.3436 H   0  0  0  0  0  0  0  0  0  0  0  0
    0.3256    2.8422   -0.5882 H   0  0  0  0  0  0  0  0  0  0  0  0
    1.6027    1.5897    0.9980 S   0  0  0  0  0  0  0  0  0  0  0  0
    0.5655    2.4449    2.2123 C   0  0  0  0  0  0  0  0  0  0  0  0
   -0.4031    1.9491    2.2827 H   0  0  0  0  0  0  0  0  0  0  0  0
    1.0537    2.4190    3.1869 H   0  0  0  0  0  0  0  0  0  0  0  0
    0.4242    3.4828    1.9094 H   0  0  0  0  0  0  0  0  0  0  0  0
   -0.1711   -0.0594    1.8296 C   0  0  0  0  0  0  0  0  0  0  0  0
    0.9865   -0.2908    2.1726 O   0  0  0  0  0  0  0  0  0  0  0  0
   -1.0921    0.4156    2.6780 N   0  0  0  0  0  0  0  0  0  0  0  0
   -2.0168    0.5953    2.3206 H   0  0  0  0  0  0  0  0  0  0  0  0
   -0.8319    0.7034    4.0877 C   0  0  0  0  0  0  0  0  0  0  0  0
   -0.0192    1.4288    4.1710 H   0  0  0  0  0  0  0  0  0  0  0  0
   -1.7255    1.1088    4.5641 H   0  0  0  0  0  0  0  0  0  0  0  0
   -0.5319   -0.2118    4.6011 H   0  0  0  0  0  0  0  0  0  0  0  0
  5  6  2  0  0  0  0
  5  7  1  0  0  0  0
  2  3  1  0  0  0  0
  2  4  1  0  0  0  0
  2  5  1  0  0  0  0
  1  2  1  0  0  0  0
 22 23  2  0  0  0  0
 22 24  1  0  0  0  0
 18 19  1  0  0  0  0
 18 20  1  0  0  0  0
 18 21  1  0  0  0  0
 17 18  1  0  0  0  0
 14 15  1  0  0  0  0
 14 16  1  0  0  0  0
 14 17  1  0  0  0  0
 11 12  1  0  0  0  0
 11 13  1  0  0  0  0
 11 14  1  0  0  0  0
  9 10  1  0  0  0  0
  9 11  1  0  0  0  0
  9 22  1  0  0  0  0
  7  8  1  0  0  0  0
  7  9  1  0  0  0  0
 26 27  1  0  0  0  0
 26 28  1  0  0  0  0
 26 29  1  0  0  0  0
 24 25  1  0  0  0  0
 24 26  1  0  0  0  0
M  END
$$$$
default_name
  -OEChem-02102213163D

 29 28  0     1  0  0  0  0  0999 V2000
   -3.5781   -3.7296    1.2702 H   0  0  0  0  0  0  0  0  0  0  0  0
   -3.5311   -2.7616    0.7732 C   0  0  0  0  0  0  0  0  0  0  0  0
   -4.2371   -2.0766    1.2382 H   0  0  0  0  0  0  0  0  0  0  0  0
   -3.7681   -2.8816   -0.2818 H   0  0  0  0  0  0  0  0  0  0  0  0
   -2.1321   -2.2086    0.9112 C   0  0  0  0  0  0  0  0  0  0  0  0
   -1.2751   -2.8426    1.5112 O   0  0  0  0  0  0  0  0  0  0  0  0
   -1.9041   -1.0186    0.3602 N   0  0  0  0  0  0  0  0  0  0  0  0
   -2.6671   -0.5416   -0.0988 H   0  0  0  0  0  0  0  0  0  0  0  0
   -0.6131   -0.3236    0.3832 C   0  0  1  0  0  0  0  0  0  0  0  0
    0.1346   -0.9625   -0.0894 H   0  0  0  0  0  0  0  0  0  0  0  0
   -0.7253    0.9751   -0.4365 C   0  0  0  0  0  0  0  0  0  0  0  0
   -1.0055    0.7205   -1.4609 H   0  0  0  0  0  0  0  0  0  0  0  0
   -1.5124    1.6008   -0.0132 H   0  0  0  0  0  0  0  0  0  0  0  0
    0.5750    1.7860   -0.4801 C   0  0  0  0  0  0  0  0  0  0  0  0
    1.0315    1.6767   -1.4633 H   0  0  0  0  0  0  0  0  0  0  0  0
    0.3372    2.8381   -0.3188 H   0  0  0  0  0  0  0  0  0  0  0  0
    1.7896    1.2774    0.7632 S   0  0  0  0  0  0  0  0  0  0  0  0
    0.9469    1.8363    2.2663 C   0  0  0  0  0  0  0  0  0  0  0  0
   -0.0141    1.3294    2.3591 H   0  0  0  0  0  0  0  0  0  0  0  0
    1.5625    1.6004    3.1347 H   0  0  0  0  0  0  0  0  0  0  0  0
    0.7893    2.9142    2.2204 H   0  0  0  0  0  0  0  0  0  0  0  0
   -0.1711   -0.0594    1.8296 C   0  0  0  0  0  0  0  0  0  0  0  0
    0.9865   -0.2908    2.1726 O   0  0  0  0  0  0  0  0  0  0  0  0
   -1.0921    0.4156    2.6780 N   0  0  0  0  0  0  0  0  0  0  0  0
   -2.0168    0.5953    2.3206 H   0  0  0  0  0  0  0  0  0  0  0  0
   -0.8319    0.7034    4.0877 C   0  0  0  0  0  0  0  0  0  0  0  0
   -0.0192    1.4288    4.1710 H   0  0  0  0  0  0  0  0  0  0  0  0
   -1.7255    1.1088    4.5641 H   0  0  0  0  0  0  0  0  0  0  0  0
   -0.5319   -0.2118    4.6011 H   0  0  0  0  0  0  0  0  0  0  0  0
  5  6  2  0  0  0  0
  5  7  1  0  0  0  0
  2  3  1  0  0  0  0
  2  4  1  0  0  0  0
  2  5  1  0  0  0  0
  1  2  1  0  0  0  0
 22 23  2  0  0  0  0
 22 24  1  0  0  0  0
 18 19  1  0  0  0  0
 18 20  1  0  0  0  0
 18 21  1  0  0  0  0
 17 18  1  0  0  0  0
 14 15  1  0  0  0  0
 14 16  1  0  0  0  0
 14 17  1  0  0  0  0
 11 12  1  0  0  0  0
 11 13  1  0  0  0  0
 11 14  1  0  0  0  0
  9 10  1  0  0  0  0
  9 11  1  0  0  0  0
  9 22  1  0  0  0  0
  7  8  1  0  0  0  0
  7  9  1  0  0  0  0
 26 27  1  0  0  0  0
 26 28  1  0  0  0  0
 26 29  1  0  0  0  0
 24 25  1  0  0  0  0
 24 26  1  0  0  0  0
M  END
$$$$
default_name
  -OEChem-02102213163D

 29 28  0     1  0  0  0  0  0999 V2000
   -3.5781   -3.7296    1.2702 H   0  0  0  0  0  0  0  0  0  0  0  0
   -3.5311   -2.7616    0.7732 C   0  0  0  0  0  0  0  0  0  0  0  0
   -4.2371   -2.0766    1.2382 H   0  0  0  0  0  0  0  0  0  0  0  0
   -3.7681   -2.8816   -0.2818 H   0  0  0  0  0  0  0  0  0  0  0  0
   -2.1321   -2.2086    0.9112 C   0  0  0  0  0  0  0  0  0  0  0  0
   -1.2751   -2.8426    1.5112 O   0  0  0  0  0  0  0  0  0  0  0  0
   -1.9041   -1.0186    0.3602 N   0  0  0  0  0  0  0  0  0  0  0  0
   -2.6671   -0.5416   -0.0988 H   0  0  0  0  0  0  0  0  0  0  0  0
   -0.6131   -0.3236    0.3832 C   0  0  1  0  0  0  0  0  0  0  0  0
    0.1346   -0.9625   -0.0894 H   0  0  0  0  0  0  0  0  0  0  0  0
   -0.7253    0.9751   -0.4365 C   0  0  0  0  0  0  0  0  0  0  0  0
   -1.0055    0.7205   -1.4609 H   0  0  0  0  0  0  0  0  0  0  0  0
   -1.5124    1.6008   -0.0132 H   0  0  0  0  0  0  0  0  0  0  0  0
    0.5750    1.7860   -0.4801 C   0  0  0  0  0  0  0  0  0  0  0  0
    0.8909    1.8994   -1.5166 H   0  0  0  0  0  0  0  0  0  0  0  0
    0.3852    2.7749   -0.0612 H   0  0  0  0  0  0  0  0  0  0  0  0
    1.9357    1.0260    0.4422 S   0  0  0  0  0  0  0  0  0  0  0  0
    1.3182    1.2337    2.1325 C   0  0  0  0  0  0  0  0  0  0  0  0
    0.3676    0.7112    2.2435 H   0  0  0  0  0  0  0  0  0  0  0  0
    2.0408    0.8174    2.8350 H   0  0  0  0  0  0  0  0  0  0  0  0
    1.1803    2.2940    2.3461 H   0  0  0  0  0  0  0  0  0  0  0  0
   -0.1711   -0.0594    1.8296 C   0  0  0  0  0  0  0  0  0  0  0  0
    0.9865   -0.2908    2.1726 O   0  0  0  0  0  0  0  0  0  0  0  0
   -1.0921    0.4156    2.6780 N   0  0  0  0  0  0  0  0  0  0  0  0
   -2.0168    0.5953    2.3206 H   0  0  0  0  0  0  0  0  0  0  0  0
   -0.8319    0.7034    4.0877 C   0  0  0  0  0  0  0  0  0  0  0  0
   -0.0192    1.4288    4.1710 H   0  0  0  0  0  0  0  0  0  0  0  0
   -1.7255    1.1088    4.5641 H   0  0  0  0  0  0  0  0  0  0  0  0
   -0.5319   -0.2118    4.6011 H   0  0  0  0  0  0  0  0  0  0  0  0
  5  6  2  0  0  0  0
  5  7  1  0  0  0  0
  2  3  1  0  0  0  0
  2  4  1  0  0  0  0
  2  5  1  0  0  0  0
  1  2  1  0  0  0  0
 22 23  2  0  0  0  0
 22 24  1  0  0  0  0
 18 19  1  0  0  0  0
 18 20  1  0  0  0  0
 18 21  1  0  0  0  0
 17 18  1  0  0  0  0
 14 15  1  0  0  0  0
 14 16  1  0  0  0  0
 14 17  1  0  0  0  0
 11 12  1  0  0  0  0
 11 13  1  0  0  0  0
 11 14  1  0  0  0  0
  9 10  1  0  0  0  0
  9 11  1  0  0  0  0
  9 22  1  0  0  0  0
  7  8  1  0  0  0  0
  7  9  1  0  0  0  0
 26 27  1  0  0  0  0
 26 28  1  0  0  0  0
 26 29  1  0  0  0  0
 24 25  1  0  0  0  0
 24 26  1  0  0  0  0
M  END
$$$$
default_name
  -OEChem-02102213163D

 29 28  0     1  0  0  0  0  0999 V2000
   -3.5781   -3.7296    1.2702 H   0  0  0  0  0  0  0  0  0  0  0  0
   -3.5311   -2.7616    0.7732 C   0  0  0  0  0  0  0  0  0  0  0  0
   -4.2371   -2.0766    1.2382 H   0  0  0  0  0  0  0  0  0  0  0  0
   -3.7681   -2.8816   -0.2818 H   0  0  0  0  0  0  0  0  0  0  0  0
   -2.1321   -2.2086    0.9112 C   0  0  0  0  0  0  0  0  0  0  0  0
   -1.2751   -2.8426    1.5112 O   0  0  0  0  0  0  0  0  0  0  0  0
   -1.9041   -1.0186    0.3602 N   0  0  0  0  0  0  0  0  0  0  0  0
   -2.6671   -0.5416   -0.0988 H   0  0  0  0  0  0  0  0  0  0  0  0
   -0.6131   -0.3236    0.3832 C   0  0  1  0  0  0  0  0  0  0  0  0
    0.1346   -0.9625   -0.0894 H   0  0  0  0  0  0  0  0  0  0  0  0
   -0.7253    0.9751   -0.4365 C   0  0  0  0  0  0  0  0  0  0  0  0
   -1.0055    0.7205   -1.4609 H   0  0  0  0  0  0  0  0  0  0  0  0
   -1.5124    1.6008   -0.0132 H   0  0  0  0  0  0  0  0  0  0  0  0
    0.5750    1.7860   -0.4801 C   0  0  0  0  0  0  0  0  0  0  0  0
    0.7494    2.1272   -1.5000 H   0  0  0  0  0  0  0  0  0  0  0  0
    0.4664    2.6569    0.1673 H   0  0  0  0  0  0  0  0  0  0  0  0
    2.0309    0.8525    0.0569 S   0  0  0  0  0  0  0  0  0  0  0  0
    1.6541    0.6783    1.8203 C   0  0  0  0  0  0  0  0  0  0  0  0
    0.7159    0.1367    1.9440 H   0  0  0  0  0  0  0  0  0  0  0  0
    2.4560    0.1234    2.3081 H   0  0  0  0  0  0  0  0  0  0  0  0
    1.5706    1.6645    2.2777 H   0  0  0  0  0  0  0  0  0  0  0  0
   -0.1711   -0.0594    1.8296 C   0  0  0  0  0  0  0  0  0  0  0  0
    0.9865   -0.2908    2.1726 O   0  0  0  0  0  0  0  0  0  0  0  0
   -1.0921    0.4156    2.6780 N   0  0  0  0  0  0  0  0  0  0  0  0
   -2.0168    0.5953    2.3206 H   0  0  0  0  0  0  0  0  0  0  0  0
   -0.8319    0.7034    4.0877 C   0  0  0  0  0  0  0  0  0  0  0  0
   -0.0192    1.4288    4.1710 H   0  0  0  0  0  0  0  0  0  0  0  0
   -1.7255    1.1088    4.5641 H   0  0  0  0  0  0  0  0  0  0  0  0
   -0.5319   -0.2118    4.6011 H   0  0  0  0  0  0  0  0  0  0  0  0
  5  6  2  0  0  0  0
  5  7  1  0  0  0  0
  2  3  1  0  0  0  0
  2  4  1  0  0  0  0
  2  5  1  0  0  0  0
  1  2  1  0  0  0  0
 22 23  2  0  0  0  0
 22 24  1  0  0  0  0
 18 19  1  0  0  0  0
 18 20  1  0  0  0  0
 18 21  1  0  0  0  0
 17 18  1  0  0  0  0
 14 15  1  0  0  0  0
 14 16  1  0  0  0  0
 14 17  1  0  0  0  0
 11 12  1  0  0  0  0
 11 13  1  0  0  0  0
 11 14  1  0  0  0  0
  9 10  1  0  0  0  0
  9 11  1  0  0  0  0
  9 22  1  0  0  0  0
  7  8  1  0  0  0  0
  7  9  1  0  0  0  0
 26 27  1  0  0  0  0
 26 28  1  0  0  0  0
 26 29  1  0  0  0  0
 24 25  1  0  0  0  0
 24 26  1  0  0  0  0
M  END
$$$$
default_name
  -OEChem-02102213163D

 29 28  0     1  0  0  0  0  0999 V2000
   -3.5781   -3.7296    1.2702 H   0  0  0  0  0  0  0  0  0  0  0  0
   -3.5311   -2.7616    0.7732 C   0  0  0  0  0  0  0  0  0  0  0  0
   -4.2371   -2.0766    1.2382 H   0  0  0  0  0  0  0  0  0  0  0  0
   -3.7681   -2.8816   -0.2818 H   0  0  0  0  0  0  0  0  0  0  0  0
   -2.1321   -2.2086    0.9112 C   0  0  0  0  0  0  0  0  0  0  0  0
   -1.2751   -2.8426    1.5112 O   0  0  0  0  0  0  0  0  0  0  0  0
   -1.9041   -1.0186    0.3602 N   0  0  0  0  0  0  0  0  0  0  0  0
   -2.6671   -0.5416   -0.0988 H   0  0  0  0  0  0  0  0  0  0  0  0
   -0.6131   -0.3236    0.3832 C   0  0  1  0  0  0  0  0  0  0  0  0
    0.1346   -0.9625   -0.0894 H   0  0  0  0  0  0  0  0  0  0  0  0
   -0.7253    0.9751   -0.4365 C   0  0  0  0  0  0  0  0  0  0  0  0
   -1.0055    0.7205   -1.4609 H   0  0  0  0  0  0  0  0  0  0  0  0
   -1.5124    1.6008   -0.0132 H   0  0  0  0  0  0  0  0  0  0  0  0
    0.5750    1.7860   -0.4801 C   0  0  0  0  0  0  0  0  0  0  0  0
    0.6166    2.3446   -1.4146 H   0  0  0  0  0  0  0  0  0  0  0  0
    0.5753    2.4923    0.3509 H   0  0  0  0  0  0  0  0  0  0  0  0
    2.0690    0.7688   -0.3663 S   0  0  0  0  0  0  0  0  0  0  0  0
    1.9318    0.2079    1.3507 C   0  0  0  0  0  0  0  0  0  0  0  0
    1.0070   -0.3551    1.4808 H   0  0  0  0  0  0  0  0  0  0  0  0
    2.7797   -0.4344    1.5900 H   0  0  0  0  0  0  0  0  0  0  0  0
    1.9336    1.0686    2.0201 H   0  0  0  0  0  0  0  0  0  0  0  0
   -0.1711   -0.0594    1.8296 C   0  0  0  0  0  0  0  0  0  0  0  0
    0.9865   -0.2908    2.1726 O   0  0  0  0  0  0  0  0  0  0  0  0
   -1.0921    0.4156    2.6780 N   0  0  0  0  0  0  0  0  0  0  0  0
   -2.0168    0.5953    2.3206 H   0  0  0  0  0  0  0  0  0  0  0  0
   -0.8319    0.7034    4.0877 C   0  0  0  0  0  0  0  0  0  0  0  0
   -0.0192    1.4288    4.1710 H   0  0  0  0  0  0  0  0  0  0  0  0
   -1.7255    1.1088    4.5641 H   0  0  0  0  0  0  0  0  0  0  0  0
   -0.5319   -0.2118    4.6011 H   0  0  0  0  0  0  0  0  0  0  0  0
  5  6  2  0  0  0  0
  5  7  1  0  0  0  0
  2  3  1  0  0  0  0
  2  4  1  0  0  0  0
  2  5  1  0  0  0  0
  1  2  1  0  0  0  0
 22 23  2  0  0  0  0
 22 24  1  0  0  0  0
 18 19  1  0  0  0  0
 18 20  1  0  0  0  0
 18 21  1  0  0  0  0
 17 18  1  0  0  0  0
 14 15  1  0  0  0  0
 14 16  1  0  0  0  0
 14 17  1  0  0  0  0
 11 12  1  0  0  0  0
 11 13  1  0  0  0  0
 11 14  1  0  0  0  0
  9 10  1  0  0  0  0
  9 11  1  0  0  0  0
  9 22  1  0  0  0  0
  7  8  1  0  0  0  0
  7  9  1  0  0  0  0
 26 27  1  0  0  0  0
 26 28  1  0  0  0  0
 26 29  1  0  0  0  0
 24 25  1  0  0  0  0
 24 26  1  0  0  0  0
M  END
$$$$
default_name
  -OEChem-02102213163D

 29 28  0     1  0  0  0  0  0999 V2000
   -3.5781   -3.7296    1.2702 H   0  0  0  0  0  0  0  0  0  0  0  0
   -3.5311   -2.7616    0.7732 C   0  0  0  0  0  0  0  0  0  0  0  0
   -4.2371   -2.0766    1.2382 H   0  0  0  0  0  0  0  0  0  0  0  0
   -3.7681   -2.8816   -0.2818 H   0  0  0  0  0  0  0  0  0  0  0  0
   -2.1321   -2.2086    0.9112 C   0  0  0  0  0  0  0  0  0  0  0  0
   -1.2751   -2.8426    1.5112 O   0  0  0  0  0  0  0  0  0  0  0  0
   -1.9041   -1.0186    0.3602 N   0  0  0  0  0  0  0  0  0  0  0  0
   -2.6671   -0.5416   -0.0988 H   0  0  0  0  0  0  0  0  0  0  0  0
   -0.6131   -0.3236    0.3832 C   0  0  1  0  0  0  0  0  0  0  0  0
    0.1346   -0.9625   -0.0894 H   0  0  0  0  0  0  0  0  0  0  0  0
   -0.7253    0.9751   -0.4365 C   0  0  0  0  0  0  0  0  0  0  0  0
   -1.0055    0.7205   -1.4609 H   0  0  0  0  0  0  0  0  0  0  0  0
   -1.5124    1.6008   -0.0132 H   0  0  0  0  0  0  0  0  0  0  0  0
    0.5750    1.7860   -0.4801 C   0  0  0  0  0  0  0  0  0  0  0  0
    0.5017    2.5368   -1.2662 H   0  0  0  0  0  0  0  0  0  0  0  0
    0.7044    2.2921    0.4773 H   0  0  0  0  0  0  0  0  0  0  0  0
    2.0471    0.7806   -0.7988 S   0  0  0  0  0  0  0  0  0  0  0  0
    2.1322   -0.1455    0.7559 C   0  0  0  0  0  0  0  0  0  0  0  0
    1.2213   -0.7306    0.8857 H   0  0  0  0  0  0  0  0  0  0  0  0
    2.9901   -0.8179    0.7295 H   0  0  0  0  0  0  0  0  0  0  0  0
    2.2446    0.5468    1.5907 H   0  0  0  0  0  0  0  0  0  0  0  0
   -0.1711   -0.0594    1.8296 C   0  0  0  0  0  0  0  0  0  0  0  0
    0.9865   -0.2908    2.1726 O   0  0  0  0  0  0  0  0  0  0  0  0
   -1.0921    0.4156    2.6780 N   0  0  0  0  0  0  0  0  0  0  0  0
   -2.0168    0.5953    2.3206 H   0  0  0  0  0  0  0  0  0  0  0  0
   -0.8319    0.7034    4.0877 C   0  0  0  0  0  0  0  0  0  0  0  0
   -0.0192    1.4288    4.1710 H   0  0  0  0  0  0  0  0  0  0  0  0
   -1.7255    1.1088    4.5641 H   0  0  0  0  0  0  0  0  0  0  0  0
   -0.5319   -0.2118    4.6011 H   0  0  0  0  0  0  0  0  0  0  0  0
  5  6  2  0  0  0  0
  5  7  1  0  0  0  0
  2  3  1  0  0  0  0
  2  4  1  0  0  0  0
  2  5  1  0  0  0  0
  1  2  1  0  0  0  0
 22 23  2  0  0  0  0
 22 24  1  0  0  0  0
 18 19  1  0  0  0  0
 18 20  1  0  0  0  0
 18 21  1  0  0  0  0
 17 18  1  0  0  0  0
 14 15  1  0  0  0  0
 14 16  1  0  0  0  0
 14 17  1  0  0  0  0
 11 12  1  0  0  0  0
 11 13  1  0  0  0  0
 11 14  1  0  0  0  0
  9 10  1  0  0  0  0
  9 11  1  0  0  0  0
  9 22  1  0  0  0  0
  7  8  1  0  0  0  0
  7  9  1  0  0  0  0
 26 27  1  0  0  0  0
 26 28  1  0  0  0  0
 26 29  1  0  0  0  0
 24 25  1  0  0  0  0
 24 26  1  0  0  0  0
M  END
$$$$
default_name
  -OEChem-02102213163D

 29 28  0     1  0  0  0  0  0999 V2000
   -3.5781   -3.7296    1.2702 H   0  0  0  0  0  0  0  0  0  0  0  0
   -3.5311   -2.7616    0.7732 C   0  0  0  0  0  0  0  0  0  0  0  0
   -4.2371   -2.0766    1.2382 H   0  0  0  0  0  0  0  0  0  0  0  0
   -3.7681   -2.8816   -0.2818 H   0  0  0  0  0  0  0  0  0  0  0  0
   -2.1321   -2.2086    0.9112 C   0  0  0  0  0  0  0  0  0  0  0  0
   -1.2751   -2.8426    1.5112 O   0  0  0  0  0  0  0  0  0  0  0  0
   -1.9041   -1.0186    0.3602 N   0  0  0  0  0  0  0  0  0  0  0  0
   -2.6671   -0.5416   -0.0988 H   0  0  0  0  0  0  0  0  0  0  0  0
   -0.6131   -0.3236    0.3832 C   0  0  1  0  0  0  0  0  0  0  0  0
    0.1346   -0.9625   -0.0894 H   0  0  0  0  0  0  0  0  0  0  0  0
   -0.7253    0.9751   -0.4365 C   0  0  0  0  0  0  0  0  0  0  0  0
   -1.0055    0.7205   -1.4609 H   0  0  0  0  0  0  0  0  0  0  0  0
   -1.5124    1.6008   -0.0132 H   0  0  0  0  0  0  0  0  0  0  0  0
    0.5750    1.7860   -0.4801 C   0  0  0  0  0  0  0  0  0  0  0  0
    0.4124    2.6908   -1.0649 H   0  0  0  0  0  0  0  0  0  0  0  0
    0.8449    2.0700    0.5377 H   0  0  0  0  0  0  0  0  0  0  0  0
    1.9669    0.8870   -1.2109 S   0  0  0  0  0  0  0  0  0  0  0  0
    2.2418   -0.3577    0.0763 C   0  0  0  0  0  0  0  0  0  0  0  0
    1.3440   -0.9642    0.1990 H   0  0  0  0  0  0  0  0  0  0  0  0
    3.0726   -1.0010   -0.2146 H   0  0  0  0  0  0  0  0  0  0  0  0
    2.4824    0.1348    1.0189 H   0  0  0  0  0  0  0  0  0  0  0  0
   -0.1711   -0.0594    1.8296 C   0  0  0  0  0  0  0  0  0  0  0  0
    0.9865   -0.2908    2.1726 O   0  0  0  0  0  0  0  0  0  0  0  0
   -1.0921    0.4156    2.6780 N   0  0  0  0  0  0  0  0  0  0  0  0
   -2.0168    0.5953    2.3206 H   0  0  0  0  0  0  0  0  0  0  0  0
   -0.8319    0.7034    4.0877 C   0  0  0  0  0  0  0  0  0  0  0  0
   -0.0192    1.4288    4.1710 H   0  0  0  0  0  0  0  0  0  0  0  0
   -1.7255    1.1088    4.5641 H   0  0  0  0  0  0  0  0  0  0  0  0
   -0.5319   -0.2118    4.6011 H   0  0  0  0  0  0  0  0  0  0  0  0
  5  6  2  0  0  0  0
  5  7  1  0  0  0  0
  2  3  1  0  0  0  0
  2  4  1  0  0  0  0
  2  5  1  0  0  0  0
  1  2  1  0  0  0  0
 22 23  2  0  0  0  0
 22 24  1  0  0  0  0
 18 19  1  0  0  0  0
 18 20  1  0  0  0  0
 18 21  1  0  0  0  0
 17 18  1  0  0  0  0
 14 15  1  0  0  0  0
 14 16  1  0  0  0  0
 14 17  1  0  0  0  0
 11 12  1  0  0  0  0
 11 13  1  0  0  0  0
 11 14  1  0  0  0  0
  9 10  1  0  0  0  0
  9 11  1  0  0  0  0
  9 22  1  0  0  0  0
  7  8  1  0  0  0  0
  7  9  1  0  0  0  0
 26 27  1  0  0  0  0
 26 28  1  0  0  0  0
 26 29  1  0  0  0  0
 24 25  1  0  0  0  0
 24 26  1  0  0  0  0
M  END
$$$$
default_name
  -OEChem-02102213163D

 29 28  0     1  0  0  0  0  0999 V2000
   -3.5781   -3.7296    1.2702 H   0  0  0  0  0  0  0  0  0  0  0  0
   -3.5311   -2.7616    0.7732 C   0  0  0  0  0  0  0  0  0  0  0  0
   -4.2371   -2.0766    1.2382 H   0  0  0  0  0  0  0  0  0  0  0  0
   -3.7681   -2.8816   -0.2818 H   0  0  0  0  0  0  0  0  0  0  0  0
   -2.1321   -2.2086    0.9112 C   0  0  0  0  0  0  0  0  0  0  0  0
   -1.2751   -2.8426    1.5112 O   0  0  0  0  0  0  0  0  0  0  0  0
   -1.9041   -1.0186    0.3602 N   0  0  0  0  0  0  0  0  0  0  0  0
   -2.6671   -0.5416   -0.0988 H   0  0  0  0  0  0  0  0  0  0  0  0
   -0.6131   -0.3236    0.3832 C   0  0  1  0  0  0  0  0  0  0  0  0
    0.1346   -0.9625   -0.0894 H   0  0  0  0  0  0  0  0  0  0  0  0
   -0.7253    0.9751   -0.4365 C   0  0  0  0  0  0  0  0  0  0  0  0
   -1.0055    0.7205   -1.4609 H   0  0  0  0  0  0  0  0  0  0  0  0
   -1.5124    1.6008   -0.0132 H   0  0  0  0  0  0  0  0  0  0  0  0
    0.5750    1.7860   -0.4801 C   0  0  0  0  0  0  0  0  0  0  0  0
    0.3549    2.7960   -0.8244 H   0  0  0  0  0  0  0  0  0  0  0  0
    0.9872    1.8413    0.5281 H   0  0  0  0  0  0  0  0  0  0  0  0
    1.8338    1.0809   -1.5746 S   0  0  0  0  0  0  0  0  0  0  0  0
    2.2530   -0.4143   -0.6417 C   0  0  0  0  0  0  0  0  0  0  0  0
    1.3667   -1.0400   -0.5324 H   0  0  0  0  0  0  0  0  0  0  0  0
    3.0218   -0.9713   -1.1780 H   0  0  0  0  0  0  0  0  0  0  0  0
    2.6308   -0.1394    0.3435 H   0  0  0  0  0  0  0  0  0  0  0  0
   -0.1711   -0.0594    1.8296 C   0  0  0  0  0  0  0  0  0  0  0  0
    0.9865   -0.2908    2.1726 O   0  0  0  0  0  0  0  0  0  0  0  0
   -1.0921    0.4156    2.6780 N   0  0  0  0  0  0  0  0  0  0  0  0
   -2.0168    0.5953    2.3206 H   0  0  0  0  0  0  0  0  0  0  0  0
   -0.8319    0.7034    4.0877 C   0  0  0  0  0  0  0  0  0  0  0  0
   -0.0192    1.4288    4.1710 H   0  0  0  0  0  0  0  0  0  0  0  0
   -1.7255    1.1088    4.5641 H   0  0  0  0  0  0  0  0  0  0  0  0
   -0.5319   -0.2118    4.6011 H   0  0  0  0  0  0  0  0  0  0  0  0
  5  6  2  0  0  0  0
  5  7  1  0  0  0  0
  2  3  1  0  0  0  0
  2  4  1  0  0  0  0
  2  5  1  0  0  0  0
  1  2  1  0  0  0  0
 22 23  2  0  0  0  0
 22 24  1  0  0  0  0
 18 19  1  0  0  0  0
 18 20  1  0  0  0  0
 18 21  1  0  0  0  0
 17 18  1  0  0  0  0
 14 15  1  0  0  0  0
 14 16  1  0  0  0  0
 14 17  1  0  0  0  0
 11 12  1  0  0  0  0
 11 13  1  0  0  0  0
 11 14  1  0  0  0  0
  9 10  1  0  0  0  0
  9 11  1  0  0  0  0
  9 22  1  0  0  0  0
  7  8  1  0  0  0  0
  7  9  1  0  0  0  0
 26 27  1  0  0  0  0
 26 28  1  0  0  0  0
 26 29  1  0  0  0  0
 24 25  1  0  0  0  0
 24 26  1  0  0  0  0
M  END
$$$$
default_name
  -OEChem-02102213163D

 29 28  0     1  0  0  0  0  0999 V2000
   -3.5781   -3.7296    1.2702 H   0  0  0  0  0  0  0  0  0  0  0  0
   -3.5311   -2.7616    0.7732 C   0  0  0  0  0  0  0  0  0  0  0  0
   -4.2371   -2.0766    1.2382 H   0  0  0  0  0  0  0  0  0  0  0  0
   -3.7681   -2.8816   -0.2818 H   0  0  0  0  0  0  0  0  0  0  0  0
   -2.1321   -2.2086    0.9112 C   0  0  0  0  0  0  0  0  0  0  0  0
   -1.2751   -2.8426    1.5112 O   0  0  0  0  0  0  0  0  0  0  0  0
   -1.9041   -1.0186    0.3602 N   0  0  0  0  0  0  0  0  0  0  0  0
   -2.6671   -0.5416   -0.0988 H   0  0  0  0  0  0  0  0  0  0  0  0
   -0.6131   -0.3236    0.3832 C   0  0  1  0  0  0  0  0  0  0  0  0
    0.1346   -0.9625   -0.0894 H   0  0  0  0  0  0  0  0  0  0  0  0
   -0.7253    0.9751   -0.4365 C   0  0  0  0  0  0  0  0  0  0  0  0
   -1.0055    0.7205   -1.4609 H   0  0  0  0  0  0  0  0  0  0  0  0
   -1.5124    1.6008   -0.0132 H   0  0  0  0  0  0  0  0  0  0  0  0
    0.5750    1.7860   -0.4801 C   0  0  0  0  0  0  0  0  0  0  0  0
    0.3330    2.8452   -0.5612 H   0  0  0  0  0  0  0  0  0  0  0  0
    1.1217    1.6214    0.4491 H   0  0  0  0  0  0  0  0  0  0  0  0
    1.6568    1.3490   -1.8651 S   0  0  0  0  0  0  0  0  0  0  0  0
    2.1651   -0.3114   -1.3492 C   0  0  0  0  0  0  0  0  0  0  0  0
    1.2881   -0.9529   -1.2586 H   0  0  0  0  0  0  0  0  0  0  0  0
    2.8410   -0.7306   -2.0951 H   0  0  0  0  0  0  0  0  0  0  0  0
    2.6796   -0.2570   -0.3893 H   0  0  0  0  0  0  0  0  0  0  0  0
   -0.1711   -0.0594    1.8296 C   0  0  0  0  0  0  0  0  0  0  0  0
    0.9865   -0.2908    2.1726 O   0  0  0  0  0  0  0  0  0  0  0  0
   -1.0921    0.4156    2.6780 N   0  0  0  0  0  0  0  0  0  0  0  0
   -2.0168    0.5953    2.3206 H   0  0  0  0  0  0  0  0  0  0  0  0
   -0.8319    0.7034    4.0877 C   0  0  0  0  0  0  0  0  0  0  0  0
   -0.0192    1.4288    4.1710 H   0  0  0  0  0  0  0  0  0  0  0  0
   -1.7255    1.1088    4.5641 H   0  0  0  0  0  0  0  0  0  0  0  0
   -0.5319   -0.2118    4.6011 H   0  0  0  0  0  0  0  0  0  0  0  0
  5  6  2  0  0  0  0
  5  7  1  0  0  0  0
  2  3  1  0  0  0  0
  2  4  1  0  0  0  0
  2  5  1  0  0  0  0
  1  2  1  0  0  0  0
 22 23  2  0  0  0  0
 22 24  1  0  0  0  0
 18 19  1  0  0  0  0
 18 20  1  0  0  0  0
 18 21  1  0  0  0  0
 17 18  1  0  0  0  0
 14 15  1  0  0  0  0
 14 16  1  0  0  0  0
 14 17  1  0  0  0  0
 11 12  1  0  0  0  0
 11 13  1  0  0  0  0
 11 14  1  0  0  0  0
  9 10  1  0  0  0  0
  9 11  1  0  0  0  0
  9 22  1  0  0  0  0
  7  8  1  0  0  0  0
  7  9  1  0  0  0  0
 26 27  1  0  0  0  0
 26 28  1  0  0  0  0
 26 29  1  0  0  0  0
 24 25  1  0  0  0  0
 24 26  1  0  0  0  0
M  END
$$$$
default_name
  -OEChem-02102213163D

 29 28  0     1  0  0  0  0  0999 V2000
   -3.5781   -3.7296    1.2702 H   0  0  0  0  0  0  0  0  0  0  0  0
   -3.5311   -2.7616    0.7732 C   0  0  0  0  0  0  0  0  0  0  0  0
   -4.2371   -2.0766    1.2382 H   0  0  0  0  0  0  0  0  0  0  0  0
   -3.7681   -2.8816   -0.2818 H   0  0  0  0  0  0  0  0  0  0  0  0
   -2.1321   -2.2086    0.9112 C   0  0  0  0  0  0  0  0  0  0  0  0
   -1.2751   -2.8426    1.5112 O   0  0  0  0  0  0  0  0  0  0  0  0
   -1.9041   -1.0186    0.3602 N   0  0  0  0  0  0  0  0  0  0  0  0
   -2.6671   -0.5416   -0.0988 H   0  0  0  0  0  0  0  0  0  0  0  0
   -0.6131   -0.3236    0.3832 C   0  0  1  0  0  0  0  0  0  0  0  0
    0.1346   -0.9625   -0.0894 H   0  0  0  0  0  0  0  0  0  0  0  0
   -0.7253    0.9751   -0.4365 C   0  0  0  0  0  0  0  0  0  0  0  0
   -1.0055    0.7205   -1.4609 H   0  0  0  0  0  0  0  0  0  0  0  0
   -1.5124    1.6008   -0.0132 H   0  0  0  0  0  0  0  0  0  0  0  0
    0.5750    1.7860   -0.4801 C   0  0  0  0  0  0  0  0  0  0  0  0
    0.3483    2.8352   -0.2931 H   0  0  0  0  0  0  0  0  0  0  0  0
    1.2392    1.4253    0.3061 H   0  0  0  0  0  0  0  0  0  0  0  0
    1.4481    1.6731   -2.0626 S   0  0  0  0  0  0  0  0  0  0  0  0
    1.9842   -0.0561   -1.9979 C   0  0  0  0  0  0  0  0  0  0  0  0
    1.1133   -0.7088   -1.9301 H   0  0  0  0  0  0  0  0  0  0  0  0
    2.5425   -0.2956   -2.9033 H   0  0  0  0  0  0  0  0  0  0  0  0
    2.6255   -0.2102   -1.1297 H   0  0  0  0  0  0  0  0  0  0  0  0
   -0.1711   -0.0594    1.8296 C   0  0  0  0  0  0  0  0  0  0  0  0
    0.9865   -0.2908    2.1726 O   0  0  0  0  0  0  0  0  0  0  0  0
   -1.0921    0.4156    2.6780 N   0  0  0  0  0  0  0  0  0  0  0  0
   -2.0168    0.5953    2.3206 H   0  0  0  0  0  0  0  0  0  0  0  0
   -0.8319    0.7034    4.0877 C   0  0  0  0  0  0  0  0  0  0  0  0
   -0.0192    1.4288    4.1710 H   0  0  0  0  0  0  0  0  0  0  0  0
   -1.7255    1.1088    4.5641 H   0  0  0  0  0  0  0  0  0  0  0  0
   -0.5319   -0.2118    4.6011 H   0  0  0  0  0  0  0  0  0  0  0  0
  5  6  2  0  0  0  0
  5  7  1  0  0  0  0
  2  3  1  0  0  0  0
  2  4  1  0  0  0  0
  2  5  1  0  0  0  0
  1  2  1  0  0  0  0
 22 23  2  0  0  0  0
 22 24  1  0  0  0  0
 18 19  1  0  0  0  0
 18 20  1  0  0  0  0
 18 21  1  0  0  0  0
 17 18  1  0  0  0  0
 14 15  1  0  0  0  0
 14 16  1  0  0  0  0
 14 17  1  0  0  0  0
 11 12  1  0  0  0  0
 11 13  1  0  0  0  0
 11 14  1  0  0  0  0
  9 10  1  0  0  0  0
  9 11  1  0  0  0  0
  9 22  1  0  0  0  0
  7  8  1  0  0  0  0
  7  9  1  0  0  0  0
 26 27  1  0  0  0  0
 26 28  1  0  0  0  0
 26 29  1  0  0  0  0
 24 25  1  0  0  0  0
 24 26  1  0  0  0  0
M  END
$$$$
default_name
  -OEChem-02102213163D

 29 28  0     1  0  0  0  0  0999 V2000
   -3.5781   -3.7296    1.2702 H   0  0  0  0  0  0  0  0  0  0  0  0
   -3.5311   -2.7616    0.7732 C   0  0  0  0  0  0  0  0  0  0  0  0
   -4.2371   -2.0766    1.2382 H   0  0  0  0  0  0  0  0  0  0  0  0
   -3.7681   -2.8816   -0.2818 H   0  0  0  0  0  0  0  0  0  0  0  0
   -2.1321   -2.2086    0.9112 C   0  0  0  0  0  0  0  0  0  0  0  0
   -1.2751   -2.8426    1.5112 O   0  0  0  0  0  0  0  0  0  0  0  0
   -1.9041   -1.0186    0.3602 N   0  0  0  0  0  0  0  0  0  0  0  0
   -2.6671   -0.5416   -0.0988 H   0  0  0  0  0  0  0  0  0  0  0  0
   -0.6131   -0.3236    0.3832 C   0  0  1  0  0  0  0  0  0  0  0  0
    0.1346   -0.9625   -0.0894 H   0  0  0  0  0  0  0  0  0  0  0  0
   -0.7253    0.9751   -0.4365 C   0  0  0  0  0  0  0  0  0  0  0  0
   -1.0055    0.7205   -1.4609 H   0  0  0  0  0  0  0  0  0  0  0  0
   -1.5124    1.6008   -0.0132 H   0  0  0  0  0  0  0  0  0  0  0  0
    0.5750    1.7860   -0.4801 C   0  0  0  0  0  0  0  0  0  0  0  0
    0.3996    2.7665   -0.0385 H   0  0  0  0  0  0  0  0  0  0  0  0
    1.3317    1.2664    0.1088 H   0  0  0  0  0  0  0  0  0  0  0  0
    1.2218    2.0310   -2.1537 S   0  0  0  0  0  0  0  0  0  0  0  0
    1.7224    0.3342   -2.5438 C   0  0  0  0  0  0  0  0  0  0  0  0
    0.8543   -0.3242   -2.5013 H   0  0  0  0  0  0  0  0  0  0  0  0
    2.1468    0.3043   -3.5477 H   0  0  0  0  0  0  0  0  0  0  0  0
    2.4723   -0.0020   -1.8272 H   0  0  0  0  0  0  0  0  0  0  0  0
   -0.1711   -0.0594    1.8296 C   0  0  0  0  0  0  0  0  0  0  0  0
    0.9865   -0.2908    2.1726 O   0  0  0  0  0  0  0  0  0  0  0  0
   -1.0921    0.4156    2.6780 N   0  0  0  0  0  0  0  0  0  0  0  0
   -2.0168    0.5953    2.3206 H   0  0  0  0  0  0  0  0  0  0  0  0
   -0.8319    0.7034    4.0877 C   0  0  0  0  0  0  0  0  0  0  0  0
   -0.0192    1.4288    4.1710 H   0  0  0  0  0  0  0  0  0  0  0  0
   -1.7255    1.1088    4.5641 H   0  0  0  0  0  0  0  0  0  0  0  0
   -0.5319   -0.2118    4.6011 H   0  0  0  0  0  0  0  0  0  0  0  0
  5  6  2  0  0  0  0
  5  7  1  0  0  0  0
  2  3  1  0  0  0  0
  2  4  1  0  0  0  0
  2  5  1  0  0  0  0
  1  2  1  0  0  0  0
 22 23  2  0  0  0  0
 22 24  1  0  0  0  0
 18 19  1  0  0  0  0
 18 20  1  0  0  0  0
 18 21  1  0  0  0  0
 17 18  1  0  0  0  0
 14 15  1  0  0  0  0
 14 16  1  0  0  0  0
 14 17  1  0  0  0  0
 11 12  1  0  0  0  0
 11 13  1  0  0  0  0
 11 14  1  0  0  0  0
  9 10  1  0  0  0  0
  9 11  1  0  0  0  0
  9 22  1  0  0  0  0
  7  8  1  0  0  0  0
  7  9  1  0  0  0  0
 26 27  1  0  0  0  0
 26 28  1  0  0  0  0
 26 29  1  0  0  0  0
 24 25  1  0  0  0  0
 24 26  1  0  0  0  0
M  END
$$$$
default_name
  -OEChem-02102213163D

 29 28  0     1  0  0  0  0  0999 V2000
   -3.5781   -3.7296    1.2702 H   0  0  0  0  0  0  0  0  0  0  0  0
   -3.5311   -2.7616    0.7732 C   0  0  0  0  0  0  0  0  0  0  0  0
   -4.2371   -2.0766    1.2382 H   0  0  0  0  0  0  0  0  0  0  0  0
   -3.7681   -2.8816   -0.2818 H   0  0  0  0  0  0  0  0  0  0  0  0
   -2.1321   -2.2086    0.9112 C   0  0  0  0  0  0  0  0  0  0  0  0
   -1.2751   -2.8426    1.5112 O   0  0  0  0  0  0  0  0  0  0  0  0
   -1.9041   -1.0186    0.3602 N   0  0  0  0  0  0  0  0  0  0  0  0
   -2.6671   -0.5416   -0.0988 H   0  0  0  0  0  0  0  0  0  0  0  0
   -0.6131   -0.3236    0.3832 C   0  0  1  0  0  0  0  0  0  0  0  0
    0.1346   -0.9625   -0.0894 H   0  0  0  0  0  0  0  0  0  0  0  0
   -0.7253    0.9751   -0.4365 C   0  0  0  0  0  0  0  0  0  0  0  0
   -1.0055    0.7205   -1.4609 H   0  0  0  0  0  0  0  0  0  0  0  0
   -1.5124    1.6008   -0.0132 H   0  0  0  0  0  0  0  0  0  0  0  0
    0.5750    1.7860   -0.4801 C   0  0  0  0  0  0  0  0  0  0  0  0
    0.4836    2.6439    0.1854 H   0  0  0  0  0  0  0  0  0  0  0  0
    1.3928    1.1556   -0.1292 H   0  0  0  0  0  0  0  0  0  0  0  0
    0.9934    2.3984   -2.1322 S   0  0  0  0  0  0  0  0  0  0  0  0
    1.3977    0.8330   -2.9495 C   0  0  0  0  0  0  0  0  0  0  0  0
    0.5288    0.1745   -2.9331 H   0  0  0  0  0  0  0  0  0  0  0  0
    1.6808    1.0281   -3.9842 H   0  0  0  0  0  0  0  0  0  0  0  0
    2.2304    0.3534   -2.4343 H   0  0  0  0  0  0  0  0  0  0  0  0
   -0.1711   -0.0594    1.8296 C   0  0  0  0  0  0  0  0  0  0  0  0
    0.9865   -0.2908    2.1726 O   0  0  0  0  0  0  0  0  0  0  0  0
   -1.0921    0.4156    2.6780 N   0  0  0  0  0  0  0  0  0  0  0  0
   -2.0168    0.5953    2.3206 H   0  0  0  0  0  0  0  0  0  0  0  0
   -0.8319    0.7034    4.0877 C   0  0  0  0  0  0  0  0  0  0  0  0
   -0.0192    1.4288    4.1710 H   0  0  0  0  0  0  0  0  0  0  0  0
   -1.7255    1.1088    4.5641 H   0  0  0  0  0  0  0  0  0  0  0  0
   -0.5319   -0.2118    4.6011 H   0  0  0  0  0  0  0  0  0  0  0  0
  5  6  2  0  0  0  0
  5  7  1  0  0  0  0
  2  3  1  0  0  0  0
  2  4  1  0  0  0  0
  2  5  1  0  0  0  0
  1  2  1  0  0  0  0
 22 23  2  0  0  0  0
 22 24  1  0  0  0  0
 18 19  1  0  0  0  0
 18 20  1  0  0  0  0
 18 21  1  0  0  0  0
 17 18  1  0  0  0  0
 14 15  1  0  0  0  0
 14 16  1  0  0  0  0
 14 17  1  0  0  0  0
 11 12  1  0  0  0  0
 11 13  1  0  0  0  0
 11 14  1  0  0  0  0
  9 10  1  0  0  0  0
  9 11  1  0  0  0  0
  9 22  1  0  0  0  0
  7  8  1  0  0  0  0
  7  9  1  0  0  0  0
 26 27  1  0  0  0  0
 26 28  1  0  0  0  0
 26 29  1  0  0  0  0
 24 25  1  0  0  0  0
 24 26  1  0  0  0  0
M  END
$$$$
default_name
  -OEChem-02102213163D

 29 28  0     1  0  0  0  0  0999 V2000
   -3.5781   -3.7296    1.2702 H   0  0  0  0  0  0  0  0  0  0  0  0
   -3.5311   -2.7616    0.7732 C   0  0  0  0  0  0  0  0  0  0  0  0
   -4.2371   -2.0766    1.2382 H   0  0  0  0  0  0  0  0  0  0  0  0
   -3.7681   -2.8816   -0.2818 H   0  0  0  0  0  0  0  0  0  0  0  0
   -2.1321   -2.2086    0.9112 C   0  0  0  0  0  0  0  0  0  0  0  0
   -1.2751   -2.8426    1.5112 O   0  0  0  0  0  0  0  0  0  0  0  0
   -1.9041   -1.0186    0.3602 N   0  0  0  0  0  0  0  0  0  0  0  0
   -2.6671   -0.5416   -0.0988 H   0  0  0  0  0  0  0  0  0  0  0  0
   -0.6131   -0.3236    0.3832 C   0  0  1  0  0  0  0  0  0  0  0  0
    0.1346   -0.9625   -0.0894 H   0  0  0  0  0  0  0  0  0  0  0  0
   -0.7253    0.9751   -0.4365 C   0  0  0  0  0  0  0  0  0  0  0  0
   -1.0055    0.7205   -1.4609 H   0  0  0  0  0  0  0  0  0  0  0  0
   -1.5124    1.6008   -0.0132 H   0  0  0  0  0  0  0  0  0  0  0  0
    0.5750    1.7860   -0.4801 C   0  0  0  0  0  0  0  0  0  0  0  0
    0.5945    2.4757    0.3632 H   0  0  0  0  0  0  0  0  0  0  0  0
    1.4185    1.1004   -0.3919 H   0  0  0  0  0  0  0  0  0  0  0  0
    0.7785    2.7502   -1.9995 S   0  0  0  0  0  0  0  0  0  0  0  0
    1.0322    1.4063   -3.1875 C   0  0  0  0  0  0  0  0  0  0  0  0
    0.1589    0.7534   -3.1961 H   0  0  0  0  0  0  0  0  0  0  0  0
    1.1761    1.8265   -4.1832 H   0  0  0  0  0  0  0  0  0  0  0  0
    1.9161    0.8316   -2.9095 H   0  0  0  0  0  0  0  0  0  0  0  0
   -0.1711   -0.0594    1.8296 C   0  0  0  0  0  0  0  0  0  0  0  0
    0.9865   -0.2908    2.1726 O   0  0  0  0  0  0  0  0  0  0  0  0
   -1.0921    0.4156    2.6780 N   0  0  0  0  0  0  0  0  0  0  0  0
   -2.0168    0.5953    2.3206 H   0  0  0  0  0  0  0  0  0  0  0  0
   -0.8319    0.7034    4.0877 C   0  0  0  0  0  0  0  0  0  0  0  0
   -0.0192    1.4288    4.1710 H   0  0  0  0  0  0  0  0  0  0  0  0
   -1.7255    1.1088    4.5641 H   0  0  0  0  0  0  0  0  0  0  0  0
   -0.5319   -0.2118    4.6011 H   0  0  0  0  0  0  0  0  0  0  0  0
  5  6  2  0  0  0  0
  5  7  1  0  0  0  0
  2  3  1  0  0  0  0
  2  4  1  0  0  0  0
  2  5  1  0  0  0  0
  1  2  1  0  0  0  0
 22 23  2  0  0  0  0
 22 24  1  0  0  0  0
 18 19  1  0  0  0  0
 18 20  1  0  0  0  0
 18 21  1  0  0  0  0
 17 18  1  0  0  0  0
 14 15  1  0  0  0  0
 14 16  1  0  0  0  0
 14 17  1  0  0  0  0
 11 12  1  0  0  0  0
 11 13  1  0  0  0  0
 11 14  1  0  0  0  0
  9 10  1  0  0  0  0
  9 11  1  0  0  0  0
  9 22  1  0  0  0  0
  7  8  1  0  0  0  0
  7  9  1  0  0  0  0
 26 27  1  0  0  0  0
 26 28  1  0  0  0  0
 26 29  1  0  0  0  0
 24 25  1  0  0  0  0
 24 26  1  0  0  0  0
M  END
$$$$
default_name
  -OEChem-02102213163D

 29 28  0     1  0  0  0  0  0999 V2000
   -3.5781   -3.7296    1.2702 H   0  0  0  0  0  0  0  0  0  0  0  0
   -3.5311   -2.7616    0.7732 C   0  0  0  0  0  0  0  0  0  0  0  0
   -4.2371   -2.0766    1.2382 H   0  0  0  0  0  0  0  0  0  0  0  0
   -3.7681   -2.8816   -0.2818 H   0  0  0  0  0  0  0  0  0  0  0  0
   -2.1321   -2.2086    0.9112 C   0  0  0  0  0  0  0  0  0  0  0  0
   -1.2751   -2.8426    1.5112 O   0  0  0  0  0  0  0  0  0  0  0  0
   -1.9041   -1.0186    0.3602 N   0  0  0  0  0  0  0  0  0  0  0  0
   -2.6671   -0.5416   -0.0988 H   0  0  0  0  0  0  0  0  0  0  0  0
   -0.6131   -0.3236    0.3832 C   0  0  1  0  0  0  0  0  0  0  0  0
    0.1346   -0.9625   -0.0894 H   0  0  0  0  0  0  0  0  0  0  0  0
   -0.7253    0.9751   -0.4365 C   0  0  0  0  0  0  0  0  0  0  0  0
   -1.0055    0.7205   -1.4609 H   0  0  0  0  0  0  0  0  0  0  0  0
   -1.5124    1.6008   -0.0132 H   0  0  0  0  0  0  0  0  0  0  0  0
    0.5750    1.7860   -0.4801 C   0  0  0  0  0  0  0  0  0  0  0  0
    0.7247    2.2734    0.4828 H   0  0  0  0  0  0  0  0  0  0  0  0
    1.4069    1.1045   -0.6612 H   0  0  0  0  0  0  0  0  0  0  0  0
    0.5916    3.0625   -1.7646 S   0  0  0  0  0  0  0  0  0  0  0  0
    0.6508    2.0150   -3.2414 C   0  0  0  0  0  0  0  0  0  0  0  0
   -0.2301    1.3731   -3.2725 H   0  0  0  0  0  0  0  0  0  0  0  0
    0.6674    2.6451   -4.1311 H   0  0  0  0  0  0  0  0  0  0  0  0
    1.5511    1.4002   -3.2205 H   0  0  0  0  0  0  0  0  0  0  0  0
   -0.1711   -0.0594    1.8296 C   0  0  0  0  0  0  0  0  0  0  0  0
    0.9865   -0.2908    2.1726 O   0  0  0  0  0  0  0  0  0  0  0  0
   -1.0921    0.4156    2.6780 N   0  0  0  0  0  0  0  0  0  0  0  0
   -2.0168    0.5953    2.3206 H   0  0  0  0  0  0  0  0  0  0  0  0
   -0.8319    0.7034    4.0877 C   0  0  0  0  0  0  0  0  0  0  0  0
   -0.0192    1.4288    4.1710 H   0  0  0  0  0  0  0  0  0  0  0  0
   -1.7255    1.1088    4.5641 H   0  0  0  0  0  0  0  0  0  0  0  0
   -0.5319   -0.2118    4.6011 H   0  0  0  0  0  0  0  0  0  0  0  0
  5  6  2  0  0  0  0
  5  7  1  0  0  0  0
  2  3  1  0  0  0  0
  2  4  1  0  0  0  0
  2  5  1  0  0  0  0
  1  2  1  0  0  0  0
 22 23  2  0  0  0  0
 22 24  1  0  0  0  0
 18 19  1  0  0  0  0
 18 20  1  0  0  0  0
 18 21  1  0  0  0  0
 17 18  1  0  0  0  0
 14 15  1  0  0  0  0
 14 16  1  0  0  0  0
 14 17  1  0  0  0  0
 11 12  1  0  0  0  0
 11 13  1  0  0  0  0
 11 14  1  0  0  0  0
  9 10  1  0  0  0  0
  9 11  1  0  0  0  0
  9 22  1  0  0  0  0
  7  8  1  0  0  0  0
  7  9  1  0  0  0  0
 26 27  1  0  0  0  0
 26 28  1  0  0  0  0
 26 29  1  0  0  0  0
 24 25  1  0  0  0  0
 24 26  1  0  0  0  0
M  END
$$$$
default_name
  -OEChem-02102213163D

 29 28  0     1  0  0  0  0  0999 V2000
   -3.5781   -3.7296    1.2702 H   0  0  0  0  0  0  0  0  0  0  0  0
   -3.5311   -2.7616    0.7732 C   0  0  0  0  0  0  0  0  0  0  0  0
   -4.2371   -2.0766    1.2382 H   0  0  0  0  0  0  0  0  0  0  0  0
   -3.7681   -2.8816   -0.2818 H   0  0  0  0  0  0  0  0  0  0  0  0
   -2.1321   -2.2086    0.9112 C   0  0  0  0  0  0  0  0  0  0  0  0
   -1.2751   -2.8426    1.5112 O   0  0  0  0  0  0  0  0  0  0  0  0
   -1.9041   -1.0186    0.3602 N   0  0  0  0  0  0  0  0  0  0  0  0
   -2.6671   -0.5416   -0.0988 H   0  0  0  0  0  0  0  0  0  0  0  0
   -0.6131   -0.3236    0.3832 C   0  0  1  0  0  0  0  0  0  0  0  0
    0.1346   -0.9625   -0.0894 H   0  0  0  0  0  0  0  0  0  0  0  0
   -0.7253    0.9751   -0.4365 C   0  0  0  0  0  0  0  0  0  0  0  0
   -1.2555    0.7586   -1.3663 H   0  0  0  0  0  0  0  0  0  0  0  0
   -1.3079    1.7062    0.1258 H   0  0  0  0  0  0  0  0  0  0  0  0
    0.6313    1.5960   -0.7888 C   0  0  0  0  0  0  0  0  0  0  0  0
    1.1710    1.8211    0.1306 H   0  0  0  0  0  0  0  0  0  0  0  0
    1.2084    0.8725   -1.3659 H   0  0  0  0  0  0  0  0  0  0  0  0
    0.5020    3.1235   -1.7529 S   0  0  0  0  0  0  0  0  0  0  0  0
   -0.1183    2.4513   -3.3166 C   0  0  0  0  0  0  0  0  0  0  0  0
   -1.0752    1.9557   -3.1499 H   0  0  0  0  0  0  0  0  0  0  0  0
   -0.2546    3.2640   -4.0306 H   0  0  0  0  0  0  0  0  0  0  0  0
    0.5991    1.7360   -3.7198 H   0  0  0  0  0  0  0  0  0  0  0  0
   -0.1711   -0.0594    1.8296 C   0  0  0  0  0  0  0  0  0  0  0  0
    0.9865   -0.2908    2.1726 O   0  0  0  0  0  0  0  0  0  0  0  0
   -1.0921    0.4156    2.6780 N   0  0  0  0  0  0  0  0  0  0  0  0
   -2.0168    0.5953    2.3206 H   0  0  0  0  0  0  0  0  0  0  0  0
   -0.8319    0.7034    4.0877 C   0  0  0  0  0  0  0  0  0  0  0  0
   -0.0192    1.4288    4.1710 H   0  0  0  0  0  0  0  0  0  0  0  0
   -1.7255    1.1088    4.5641 H   0  0  0  0  0  0  0  0  0  0  0  0
   -0.5319   -0.2118    4.6011 H   0  0  0  0  0  0  0  0  0  0  0  0
  5  6  2  0  0  0  0
  5  7  1  0  0  0  0
  2  3  1  0  0  0  0
  2  4  1  0  0  0  0
  2  5  1  0  0  0  0
  1  2  1  0  0  0  0
 22 23  2  0  0  0  0
 22 24  1  0  0  0  0
 18 19  1  0  0  0  0
 18 20  1  0  0  0  0
 18 21  1  0  0  0  0
 17 18  1  0  0  0  0
 14 15  1  0  0  0  0
 14 16  1  0  0  0  0
 14 17  1  0  0  0  0
 11 12  1  0  0  0  0
 11 13  1  0  0  0  0
 11 14  1  0  0  0  0
  9 10  1  0  0  0  0
  9 11  1  0  0  0  0
  9 22  1  0  0  0  0
  7  8  1  0  0  0  0
  7  9  1  0  0  0  0
 26 27  1  0  0  0  0
 26 28  1  0  0  0  0
 26 29  1  0  0  0  0
 24 25  1  0  0  0  0
 24 26  1  0  0  0  0
M  END
$$$$
default_name
  -OEChem-02102213163D

 29 28  0     1  0  0  0  0  0999 V2000
   -3.5781   -3.7296    1.2702 H   0  0  0  0  0  0  0  0  0  0  0  0
   -3.5311   -2.7616    0.7732 C   0  0  0  0  0  0  0  0  0  0  0  0
   -4.2371   -2.0766    1.2382 H   0  0  0  0  0  0  0  0  0  0  0  0
   -3.7681   -2.8816   -0.2818 H   0  0  0  0  0  0  0  0  0  0  0  0
   -2.1321   -2.2086    0.9112 C   0  0  0  0  0  0  0  0  0  0  0  0
   -1.2751   -2.8426    1.5112 O   0  0  0  0  0  0  0  0  0  0  0  0
   -1.9041   -1.0186    0.3602 N   0  0  0  0  0  0  0  0  0  0  0  0
   -2.6671   -0.5416   -0.0988 H   0  0  0  0  0  0  0  0  0  0  0  0
   -0.6131   -0.3236    0.3832 C   0  0  1  0  0  0  0  0  0  0  0  0
    0.1346   -0.9625   -0.0894 H   0  0  0  0  0  0  0  0  0  0  0  0
   -0.7253    0.9751   -0.4365 C   0  0  0  0  0  0  0  0  0  0  0  0
   -1.2555    0.7586   -1.3663 H   0  0  0  0  0  0  0  0  0  0  0  0
   -1.3079    1.7062    0.1258 H   0  0  0  0  0  0  0  0  0  0  0  0
    0.6313    1.5960   -0.7888 C   0  0  0  0  0  0  0  0  0  0  0  0
    1.2731    1.5757    0.0915 H   0  0  0  0  0  0  0  0  0  0  0  0
    1.0958    0.9998   -1.5752 H   0  0  0  0  0  0  0  0  0  0  0  0
    0.5181    3.3100   -1.3623 S   0  0  0  0  0  0  0  0  0  0  0  0
   -0.2989    3.0494   -2.9580 C   0  0  0  0  0  0  0  0  0  0  0  0
   -1.2679    2.5744   -2.8017 H   0  0  0  0  0  0  0  0  0  0  0  0
   -0.4458    4.0111   -3.4502 H   0  0  0  0  0  0  0  0  0  0  0  0
    0.3224    2.4142   -3.5900 H   0  0  0  0  0  0  0  0  0  0  0  0
   -0.1711   -0.0594    1.8296 C   0  0  0  0  0  0  0  0  0  0  0  0
    0.9865   -0.2908    2.1726 O   0  0  0  0  0  0  0  0  0  0  0  0
   -1.0921    0.4156    2.6780 N   0  0  0  0  0  0  0  0  0  0  0  0
   -2.0168    0.5953    2.3206 H   0  0  0  0  0  0  0  0  0  0  0  0
   -0.8319    0.7034    4.0877 C   0  0  0  0  0  0  0  0  0  0  0  0
   -0.0192    1.4288    4.1710 H   0  0  0  0  0  0  0  0  0  0  0  0
   -1.7255    1.1088    4.5641 H   0  0  0  0  0  0  0  0  0  0  0  0
   -0.5319   -0.2118    4.6011 H   0  0  0  0  0  0  0  0  0  0  0  0
  5  6  2  0  0  0  0
  5  7  1  0  0  0  0
  2  3  1  0  0  0  0
  2  4  1  0  0  0  0
  2  5  1  0  0  0  0
  1  2  1  0  0  0  0
 22 23  2  0  0  0  0
 22 24  1  0  0  0  0
 18 19  1  0  0  0  0
 18 20  1  0  0  0  0
 18 21  1  0  0  0  0
 17 18  1  0  0  0  0
 14 15  1  0  0  0  0
 14 16  1  0  0  0  0
 14 17  1  0  0  0  0
 11 12  1  0  0  0  0
 11 13  1  0  0  0  0
 11 14  1  0  0  0  0
  9 10  1  0  0  0  0
  9 11  1  0  0  0  0
  9 22  1  0  0  0  0
  7  8  1  0  0  0  0
  7  9  1  0  0  0  0
 26 27  1  0  0  0  0
 26 28  1  0  0  0  0
 26 29  1  0  0  0  0
 24 25  1  0  0  0  0
 24 26  1  0  0  0  0
M  END
$$$$
default_name
  -OEChem-02102213163D

 29 28  0     1  0  0  0  0  0999 V2000
   -3.5781   -3.7296    1.2702 H   0  0  0  0  0  0  0  0  0  0  0  0
   -3.5311   -2.7616    0.7732 C   0  0  0  0  0  0  0  0  0  0  0  0
   -4.2371   -2.0766    1.2382 H   0  0  0  0  0  0  0  0  0  0  0  0
   -3.7681   -2.8816   -0.2818 H   0  0  0  0  0  0  0  0  0  0  0  0
   -2.1321   -2.2086    0.9112 C   0  0  0  0  0  0  0  0  0  0  0  0
   -1.2751   -2.8426    1.5112 O   0  0  0  0  0  0  0  0  0  0  0  0
   -1.9041   -1.0186    0.3602 N   0  0  0  0  0  0  0  0  0  0  0  0
   -2.6671   -0.5416   -0.0988 H   0  0  0  0  0  0  0  0  0  0  0  0
   -0.6131   -0.3236    0.3832 C   0  0  1  0  0  0  0  0  0  0  0  0
    0.1346   -0.9625   -0.0894 H   0  0  0  0  0  0  0  0  0  0  0  0
   -0.7253    0.9751   -0.4365 C   0  0  0  0  0  0  0  0  0  0  0  0
   -1.2555    0.7586   -1.3663 H   0  0  0  0  0  0  0  0  0  0  0  0
   -1.3079    1.7062    0.1258 H   0  0  0  0  0  0  0  0  0  0  0  0
    0.6313    1.5960   -0.7888 C   0  0  0  0  0  0  0  0  0  0  0  0
    1.3531    1.3416   -0.0133 H   0  0  0  0  0  0  0  0  0  0  0  0
    0.9726    1.1775   -1.7363 H   0  0  0  0  0  0  0  0  0  0  0  0
    0.5857    3.3997   -0.9440 S   0  0  0  0  0  0  0  0  0  0  0  0
   -0.4002    3.5557   -2.4558 C   0  0  0  0  0  0  0  0  0  0  0  0
   -1.3808    3.1037   -2.3035 H   0  0  0  0  0  0  0  0  0  0  0  0
   -0.5253    4.6113   -2.6985 H   0  0  0  0  0  0  0  0  0  0  0  0
    0.1091    3.0560   -3.2803 H   0  0  0  0  0  0  0  0  0  0  0  0
   -0.1711   -0.0594    1.8296 C   0  0  0  0  0  0  0  0  0  0  0  0
    0.9865   -0.2908    2.1726 O   0  0  0  0  0  0  0  0  0  0  0  0
   -1.0921    0.4156    2.6780 N   0  0  0  0  0  0  0  0  0  0  0  0
   -2.0168    0.5953    2.3206 H   0  0  0  0  0  0  0  0  0  0  0  0
   -0.8319    0.7034    4.0877 C   0  0  0  0  0  0  0  0  0  0  0  0
   -0.0192    1.4288    4.1710 H   0  0  0  0  0  0  0  0  0  0  0  0
   -1.7255    1.1088    4.5641 H   0  0  0  0  0  0  0  0  0  0  0  0
   -0.5319   -0.2118    4.6011 H   0  0  0  0  0  0  0  0  0  0  0  0
  5  6  2  0  0  0  0
  5  7  1  0  0  0  0
  2  3  1  0  0  0  0
  2  4  1  0  0  0  0
  2  5  1  0  0  0  0
  1  2  1  0  0  0  0
 22 23  2  0  0  0  0
 22 24  1  0  0  0  0
 18 19  1  0  0  0  0
 18 20  1  0  0  0  0
 18 21  1  0  0  0  0
 17 18  1  0  0  0  0
 14 15  1  0  0  0  0
 14 16  1  0  0  0  0
 14 17  1  0  0  0  0
 11 12  1  0  0  0  0
 11 13  1  0  0  0  0
 11 14  1  0  0  0  0
  9 10  1  0  0  0  0
  9 11  1  0  0  0  0
  9 22  1  0  0  0  0
  7  8  1  0  0  0  0
  7  9  1  0  0  0  0
 26 27  1  0  0  0  0
 26 28  1  0  0  0  0
 26 29  1  0  0  0  0
 24 25  1  0  0  0  0
 24 26  1  0  0  0  0
M  END
$$$$
default_name
  -OEChem-02102213163D

 29 28  0     1  0  0  0  0  0999 V2000
   -3.5781   -3.7296    1.2702 H   0  0  0  0  0  0  0  0  0  0  0  0
   -3.5311   -2.7616    0.7732 C   0  0  0  0  0  0  0  0  0  0  0  0
   -4.2371   -2.0766    1.2382 H   0  0  0  0  0  0  0  0  0  0  0  0
   -3.7681   -2.8816   -0.2818 H   0  0  0  0  0  0  0  0  0  0  0  0
   -2.1321   -2.2086    0.9112 C   0  0  0  0  0  0  0  0  0  0  0  0
   -1.2751   -2.8426    1.5112 O   0  0  0  0  0  0  0  0  0  0  0  0
   -1.9041   -1.0186    0.3602 N   0  0  0  0  0  0  0  0  0  0  0  0
   -2.6671   -0.5416   -0.0988 H   0  0  0  0  0  0  0  0  0  0  0  0
   -0.6131   -0.3236    0.3832 C   0  0  1  0  0  0  0  0  0  0  0  0
    0.1346   -0.9625   -0.0894 H   0  0  0  0  0  0  0  0  0  0  0  0
   -0.7253    0.9751   -0.4365 C   0  0  0  0  0  0  0  0  0  0  0  0
   -1.2555    0.7586   -1.3663 H   0  0  0  0  0  0  0  0  0  0  0  0
   -1.3079    1.7062    0.1258 H   0  0  0  0  0  0  0  0  0  0  0  0
    0.6313    1.5960   -0.7888 C   0  0  0  0  0  0  0  0  0  0  0  0
    1.4054    1.1346   -0.1764 H   0  0  0  0  0  0  0  0  0  0  0  0
    0.8473    1.3933   -1.8384 H   0  0  0  0  0  0  0  0  0  0  0  0
    0.7002    3.3865   -0.5265 S   0  0  0  0  0  0  0  0  0  0  0  0
   -0.4153    3.9357   -1.8441 C   0  0  0  0  0  0  0  0  0  0  0  0
   -1.4061    3.5076   -1.6892 H   0  0  0  0  0  0  0  0  0  0  0  0
   -0.4875    5.0235   -1.8265 H   0  0  0  0  0  0  0  0  0  0  0  0
   -0.0263    3.6176   -2.8117 H   0  0  0  0  0  0  0  0  0  0  0  0
   -0.1711   -0.0594    1.8296 C   0  0  0  0  0  0  0  0  0  0  0  0
    0.9865   -0.2908    2.1726 O   0  0  0  0  0  0  0  0  0  0  0  0
   -1.0921    0.4156    2.6780 N   0  0  0  0  0  0  0  0  0  0  0  0
   -2.0168    0.5953    2.3206 H   0  0  0  0  0  0  0  0  0  0  0  0
   -0.8319    0.7034    4.0877 C   0  0  0  0  0  0  0  0  0  0  0  0
   -0.0192    1.4288    4.1710 H   0  0  0  0  0  0  0  0  0  0  0  0
   -1.7255    1.1088    4.5641 H   0  0  0  0  0  0  0  0  0  0  0  0
   -0.5319   -0.2118    4.6011 H   0  0  0  0  0  0  0  0  0  0  0  0
  5  6  2  0  0  0  0
  5  7  1  0  0  0  0
  2  3  1  0  0  0  0
  2  4  1  0  0  0  0
  2  5  1  0  0  0  0
  1  2  1  0  0  0  0
 22 23  2  0  0  0  0
 22 24  1  0  0  0  0
 18 19  1  0  0  0  0
 18 20  1  0  0  0  0
 18 21  1  0  0  0  0
 17 18  1  0  0  0  0
 14 15  1  0  0  0  0
 14 16  1  0  0  0  0
 14 17  1  0  0  0  0
 11 12  1  0  0  0  0
 11 13  1  0  0  0  0
 11 14  1  0  0  0  0
  9 10  1  0  0  0  0
  9 11  1  0  0  0  0
  9 22  1  0  0  0  0
  7  8  1  0  0  0  0
  7  9  1  0  0  0  0
 26 27  1  0  0  0  0
 26 28  1  0  0  0  0
 26 29  1  0  0  0  0
 24 25  1  0  0  0  0
 24 26  1  0  0  0  0
M  END
$$$$
default_name
  -OEChem-02102213163D

 29 28  0     1  0  0  0  0  0999 V2000
   -3.5781   -3.7296    1.2702 H   0  0  0  0  0  0  0  0  0  0  0  0
   -3.5311   -2.7616    0.7732 C   0  0  0  0  0  0  0  0  0  0  0  0
   -4.2371   -2.0766    1.2382 H   0  0  0  0  0  0  0  0  0  0  0  0
   -3.7681   -2.8816   -0.2818 H   0  0  0  0  0  0  0  0  0  0  0  0
   -2.1321   -2.2086    0.9112 C   0  0  0  0  0  0  0  0  0  0  0  0
   -1.2751   -2.8426    1.5112 O   0  0  0  0  0  0  0  0  0  0  0  0
   -1.9041   -1.0186    0.3602 N   0  0  0  0  0  0  0  0  0  0  0  0
   -2.6671   -0.5416   -0.0988 H   0  0  0  0  0  0  0  0  0  0  0  0
   -0.6131   -0.3236    0.3832 C   0  0  1  0  0  0  0  0  0  0  0  0
    0.1346   -0.9625   -0.0894 H   0  0  0  0  0  0  0  0  0  0  0  0
   -0.7253    0.9751   -0.4365 C   0  0  0  0  0  0  0  0  0  0  0  0
   -1.2555    0.7586   -1.3663 H   0  0  0  0  0  0  0  0  0  0  0  0
   -1.3079    1.7062    0.1258 H   0  0  0  0  0  0  0  0  0  0  0  0
    0.6313    1.5960   -0.7888 C   0  0  0  0  0  0  0  0  0  0  0  0
    1.4266    0.9689   -0.3869 H   0  0  0  0  0  0  0  0  0  0  0  0
    0.7284    1.6326   -1.8745 H   0  0  0  0  0  0  0  0  0  0  0  0
    0.8537    3.2714   -0.1382 S   0  0  0  0  0  0  0  0  0  0  0  0
   -0.3431    4.1636   -1.1646 C   0  0  0  0  0  0  0  0  0  0  0  0
   -1.3421    3.7585   -1.0006 H   0  0  0  0  0  0  0  0  0  0  0  0
   -0.3350    5.2197   -0.8938 H   0  0  0  0  0  0  0  0  0  0  0  0
   -0.0745    4.0609   -2.2163 H   0  0  0  0  0  0  0  0  0  0  0  0
   -0.1711   -0.0594    1.8296 C   0  0  0  0  0  0  0  0  0  0  0  0
    0.9865   -0.2908    2.1726 O   0  0  0  0  0  0  0  0  0  0  0  0
   -1.0921    0.4156    2.6780 N   0  0  0  0  0  0  0  0  0  0  0  0
   -2.0168    0.5953    2.3206 H   0  0  0  0  0  0  0  0  0  0  0  0
   -0.8319    0.7034    4.0877 C   0  0  0  0  0  0  0  0  0  0  0  0
   -0.0192    1.4288    4.1710 H   0  0  0  0  0  0  0  0  0  0  0  0
   -1.7255    1.1088    4.5641 H   0  0  0  0  0  0  0  0  0  0  0  0
   -0.5319   -0.2118    4.6011 H   0  0  0  0  0  0  0  0  0  0  0  0
  5  6  2  0  0  0  0
  5  7  1  0  0  0  0
  2  3  1  0  0  0  0
  2  4  1  0  0  0  0
  2  5  1  0  0  0  0
  1  2  1  0  0  0  0
 22 23  2  0  0  0  0
 22 24  1  0  0  0  0
 18 19  1  0  0  0  0
 18 20  1  0  0  0  0
 18 21  1  0  0  0  0
 17 18  1  0  0  0  0
 14 15  1  0  0  0  0
 14 16  1  0  0  0  0
 14 17  1  0  0  0  0
 11 12  1  0  0  0  0
 11 13  1  0  0  0  0
 11 14  1  0  0  0  0
  9 10  1  0  0  0  0
  9 11  1  0  0  0  0
  9 22  1  0  0  0  0
  7  8  1  0  0  0  0
  7  9  1  0  0  0  0
 26 27  1  0  0  0  0
 26 28  1  0  0  0  0
 26 29  1  0  0  0  0
 24 25  1  0  0  0  0
 24 26  1  0  0  0  0
M  END
$$$$
default_name
  -OEChem-02102213163D

 29 28  0     1  0  0  0  0  0999 V2000
   -3.5781   -3.7296    1.2702 H   0  0  0  0  0  0  0  0  0  0  0  0
   -3.5311   -2.7616    0.7732 C   0  0  0  0  0  0  0  0  0  0  0  0
   -4.2371   -2.0766    1.2382 H   0  0  0  0  0  0  0  0  0  0  0  0
   -3.7681   -2.8816   -0.2818 H   0  0  0  0  0  0  0  0  0  0  0  0
   -2.1321   -2.2086    0.9112 C   0  0  0  0  0  0  0  0  0  0  0  0
   -1.2751   -2.8426    1.5112 O   0  0  0  0  0  0  0  0  0  0  0  0
   -1.9041   -1.0186    0.3602 N   0  0  0  0  0  0  0  0  0  0  0  0
   -2.6671   -0.5416   -0.0988 H   0  0  0  0  0  0  0  0  0  0  0  0
   -0.6131   -0.3236    0.3832 C   0  0  1  0  0  0  0  0  0  0  0  0
    0.1346   -0.9625   -0.0894 H   0  0  0  0  0  0  0  0  0  0  0  0
   -0.7253    0.9751   -0.4365 C   0  0  0  0  0  0  0  0  0  0  0  0
   -1.2555    0.7586   -1.3663 H   0  0  0  0  0  0  0  0  0  0  0  0
   -1.3079    1.7062    0.1258 H   0  0  0  0  0  0  0  0  0  0  0  0
    0.6313    1.5960   -0.7888 C   0  0  0  0  0  0  0  0  0  0  0  0
    1.4151    0.8559   -0.6304 H   0  0  0  0  0  0  0  0  0  0  0  0
    0.6241    1.8790   -1.8420 H   0  0  0  0  0  0  0  0  0  0  0  0
    1.0359    3.0621    0.1943 S   0  0  0  0  0  0  0  0  0  0  0  0
   -0.1886    4.2237   -0.4636 C   0  0  0  0  0  0  0  0  0  0  0  0
   -1.1932    3.8394   -0.2848 H   0  0  0  0  0  0  0  0  0  0  0  0
   -0.0784    5.1866    0.0361 H   0  0  0  0  0  0  0  0  0  0  0  0
   -0.0323    4.3555   -1.5346 H   0  0  0  0  0  0  0  0  0  0  0  0
   -0.1711   -0.0594    1.8296 C   0  0  0  0  0  0  0  0  0  0  0  0
    0.9865   -0.2908    2.1726 O   0  0  0  0  0  0  0  0  0  0  0  0
   -1.0921    0.4156    2.6780 N   0  0  0  0  0  0  0  0  0  0  0  0
   -2.0168    0.5953    2.3206 H   0  0  0  0  0  0  0  0  0  0  0  0
   -0.8319    0.7034    4.0877 C   0  0  0  0  0  0  0  0  0  0  0  0
   -0.0192    1.4288    4.1710 H   0  0  0  0  0  0  0  0  0  0  0  0
   -1.7255    1.1088    4.5641 H   0  0  0  0  0  0  0  0  0  0  0  0
   -0.5319   -0.2118    4.6011 H   0  0  0  0  0  0  0  0  0  0  0  0
  5  6  2  0  0  0  0
  5  7  1  0  0  0  0
  2  3  1  0  0  0  0
  2  4  1  0  0  0  0
  2  5  1  0  0  0  0
  1  2  1  0  0  0  0
 22 23  2  0  0  0  0
 22 24  1  0  0  0  0
 18 19  1  0  0  0  0
 18 20  1  0  0  0  0
 18 21  1  0  0  0  0
 17 18  1  0  0  0  0
 14 15  1  0  0  0  0
 14 16  1  0  0  0  0
 14 17  1  0  0  0  0
 11 12  1  0  0  0  0
 11 13  1  0  0  0  0
 11 14  1  0  0  0  0
  9 10  1  0  0  0  0
  9 11  1  0  0  0  0
  9 22  1  0  0  0  0
  7  8  1  0  0  0  0
  7  9  1  0  0  0  0
 26 27  1  0  0  0  0
 26 28  1  0  0  0  0
 26 29  1  0  0  0  0
 24 25  1  0  0  0  0
 24 26  1  0  0  0  0
M  END
$$$$
default_name
  -OEChem-02102213163D

 29 28  0     1  0  0  0  0  0999 V2000
   -3.5781   -3.7296    1.2702 H   0  0  0  0  0  0  0  0  0  0  0  0
   -3.5311   -2.7616    0.7732 C   0  0  0  0  0  0  0  0  0  0  0  0
   -4.2371   -2.0766    1.2382 H   0  0  0  0  0  0  0  0  0  0  0  0
   -3.7681   -2.8816   -0.2818 H   0  0  0  0  0  0  0  0  0  0  0  0
   -2.1321   -2.2086    0.9112 C   0  0  0  0  0  0  0  0  0  0  0  0
   -1.2751   -2.8426    1.5112 O   0  0  0  0  0  0  0  0  0  0  0  0
   -1.9041   -1.0186    0.3602 N   0  0  0  0  0  0  0  0  0  0  0  0
   -2.6671   -0.5416   -0.0988 H   0  0  0  0  0  0  0  0  0  0  0  0
   -0.6131   -0.3236    0.3832 C   0  0  1  0  0  0  0  0  0  0  0  0
    0.1346   -0.9625   -0.0894 H   0  0  0  0  0  0  0  0  0  0  0  0
   -0.7253    0.9751   -0.4365 C   0  0  0  0  0  0  0  0  0  0  0  0
   -1.2555    0.7586   -1.3663 H   0  0  0  0  0  0  0  0  0  0  0  0
   -1.3079    1.7062    0.1258 H   0  0  0  0  0  0  0  0  0  0  0  0
    0.6313    1.5960   -0.7888 C   0  0  0  0  0  0  0  0  0  0  0  0
    1.3718    0.8031   -0.8903 H   0  0  0  0  0  0  0  0  0  0  0  0
    0.5413    2.1159   -1.7433 H   0  0  0  0  0  0  0  0  0  0  0  0
    1.2343    2.7729    0.4485 S   0  0  0  0  0  0  0  0  0  0  0  0
    0.0377    4.1121    0.2111 C   0  0  0  0  0  0  0  0  0  0  0  0
   -0.9696    3.7447    0.4096 H   0  0  0  0  0  0  0  0  0  0  0  0
    0.2651    4.9263    0.8998 H   0  0  0  0  0  0  0  0  0  0  0  0
    0.0974    4.4814   -0.8131 H   0  0  0  0  0  0  0  0  0  0  0  0
   -0.1711   -0.0594    1.8296 C   0  0  0  0  0  0  0  0  0  0  0  0
    0.9865   -0.2908    2.1726 O   0  0  0  0  0  0  0  0  0  0  0  0
   -1.0921    0.4156    2.6780 N   0  0  0  0  0  0  0  0  0  0  0  0
   -2.0168    0.5953    2.3206 H   0  0  0  0  0  0  0  0  0  0  0  0
   -0.8319    0.7034    4.0877 C   0  0  0  0  0  0  0  0  0  0  0  0
   -0.0192    1.4288    4.1710 H   0  0  0  0  0  0  0  0  0  0  0  0
   -1.7255    1.1088    4.5641 H   0  0  0  0  0  0  0  0  0  0  0  0
   -0.5319   -0.2118    4.6011 H   0  0  0  0  0  0  0  0  0  0  0  0
  5  6  2  0  0  0  0
  5  7  1  0  0  0  0
  2  3  1  0  0  0  0
  2  4  1  0  0  0  0
  2  5  1  0  0  0  0
  1  2  1  0  0  0  0
 22 23  2  0  0  0  0
 22 24  1  0  0  0  0
 18 19  1  0  0  0  0
 18 20  1  0  0  0  0
 18 21  1  0  0  0  0
 17 18  1  0  0  0  0
 14 15  1  0  0  0  0
 14 16  1  0  0  0  0
 14 17  1  0  0  0  0
 11 12  1  0  0  0  0
 11 13  1  0  0  0  0
 11 14  1  0  0  0  0
  9 10  1  0  0  0  0
  9 11  1  0  0  0  0
  9 22  1  0  0  0  0
  7  8  1  0  0  0  0
  7  9  1  0  0  0  0
 26 27  1  0  0  0  0
 26 28  1  0  0  0  0
 26 29  1  0  0  0  0
 24 25  1  0  0  0  0
 24 26  1  0  0  0  0
M  END
$$$$
default_name
  -OEChem-02102213163D

 29 28  0     1  0  0  0  0  0999 V2000
   -3.5781   -3.7296    1.2702 H   0  0  0  0  0  0  0  0  0  0  0  0
   -3.5311   -2.7616    0.7732 C   0  0  0  0  0  0  0  0  0  0  0  0
   -4.2371   -2.0766    1.2382 H   0  0  0  0  0  0  0  0  0  0  0  0
   -3.7681   -2.8816   -0.2818 H   0  0  0  0  0  0  0  0  0  0  0  0
   -2.1321   -2.2086    0.9112 C   0  0  0  0  0  0  0  0  0  0  0  0
   -1.2751   -2.8426    1.5112 O   0  0  0  0  0  0  0  0  0  0  0  0
   -1.9041   -1.0186    0.3602 N   0  0  0  0  0  0  0  0  0  0  0  0
   -2.6671   -0.5416   -0.0988 H   0  0  0  0  0  0  0  0  0  0  0  0
   -0.6131   -0.3236    0.3832 C   0  0  1  0  0  0  0  0  0  0  0  0
    0.1346   -0.9625   -0.0894 H   0  0  0  0  0  0  0  0  0  0  0  0
   -0.7253    0.9751   -0.4365 C   0  0  0  0  0  0  0  0  0  0  0  0
   -1.2555    0.7586   -1.3663 H   0  0  0  0  0  0  0  0  0  0  0  0
   -1.3079    1.7062    0.1258 H   0  0  0  0  0  0  0  0  0  0  0  0
    0.6313    1.5960   -0.7888 C   0  0  0  0  0  0  0  0  0  0  0  0
    1.2995    0.8143   -1.1488 H   0  0  0  0  0  0  0  0  0  0  0  0
    0.4858    2.3270   -1.5850 H   0  0  0  0  0  0  0  0  0  0  0  0
    1.4353    2.4235    0.6070 S   0  0  0  0  0  0  0  0  0  0  0  0
    0.3204    3.8363    0.8135 C   0  0  0  0  0  0  0  0  0  0  0  0
   -0.6864    3.4809    1.0351 H   0  0  0  0  0  0  0  0  0  0  0  0
    0.6719    4.4566    1.6384 H   0  0  0  0  0  0  0  0  0  0  0  0
    0.3059    4.4301   -0.1009 H   0  0  0  0  0  0  0  0  0  0  0  0
   -0.1711   -0.0594    1.8296 C   0  0  0  0  0  0  0  0  0  0  0  0
    0.9865   -0.2908    2.1726 O   0  0  0  0  0  0  0  0  0  0  0  0
   -1.0921    0.4156    2.6780 N   0  0  0  0  0  0  0  0  0  0  0  0
   -2.0168    0.5953    2.3206 H   0  0  0  0  0  0  0  0  0  0  0  0
   -0.8319    0.7034    4.0877 C   0  0  0  0  0  0  0  0  0  0  0  0
   -0.0192    1.4288    4.1710 H   0  0  0  0  0  0  0  0  0  0  0  0
   -1.7255    1.1088    4.5641 H   0  0  0  0  0  0  0  0  0  0  0  0
   -0.5319   -0.2118    4.6011 H   0  0  0  0  0  0  0  0  0  0  0  0
  5  6  2  0  0  0  0
  5  7  1  0  0  0  0
  2  3  1  0  0  0  0
  2  4  1  0  0  0  0
  2  5  1  0  0  0  0
  1  2  1  0  0  0  0
 22 23  2  0  0  0  0
 22 24  1  0  0  0  0
 18 19  1  0  0  0  0
 18 20  1  0  0  0  0
 18 21  1  0  0  0  0
 17 18  1  0  0  0  0
 14 15  1  0  0  0  0
 14 16  1  0  0  0  0
 14 17  1  0  0  0  0
 11 12  1  0  0  0  0
 11 13  1  0  0  0  0
 11 14  1  0  0  0  0
  9 10  1  0  0  0  0
  9 11  1  0  0  0  0
  9 22  1  0  0  0  0
  7  8  1  0  0  0  0
  7  9  1  0  0  0  0
 26 27  1  0  0  0  0
 26 28  1  0  0  0  0
 26 29  1  0  0  0  0
 24 25  1  0  0  0  0
 24 26  1  0  0  0  0
M  END
$$$$
default_name
  -OEChem-02102213163D

 29 28  0     1  0  0  0  0  0999 V2000
   -3.5781   -3.7296    1.2702 H   0  0  0  0  0  0  0  0  0  0  0  0
   -3.5311   -2.7616    0.7732 C   0  0  0  0  0  0  0  0  0  0  0  0
   -4.2371   -2.0766    1.2382 H   0  0  0  0  0  0  0  0  0  0  0  0
   -3.7681   -2.8816   -0.2818 H   0  0  0  0  0  0  0  0  0  0  0  0
   -2.1321   -2.2086    0.9112 C   0  0  0  0  0  0  0  0  0  0  0  0
   -1.2751   -2.8426    1.5112 O   0  0  0  0  0  0  0  0  0  0  0  0
   -1.9041   -1.0186    0.3602 N   0  0  0  0  0  0  0  0  0  0  0  0
   -2.6671   -0.5416   -0.0988 H   0  0  0  0  0  0  0  0  0  0  0  0
   -0.6131   -0.3236    0.3832 C   0  0  1  0  0  0  0  0  0  0  0  0
    0.1346   -0.9625   -0.0894 H   0  0  0  0  0  0  0  0  0  0  0  0
   -0.7253    0.9751   -0.4365 C   0  0  0  0  0  0  0  0  0  0  0  0
   -1.2555    0.7586   -1.3663 H   0  0  0  0  0  0  0  0  0  0  0  0
   -1.3079    1.7062    0.1258 H   0  0  0  0  0  0  0  0  0  0  0  0
    0.6313    1.5960   -0.7888 C   0  0  0  0  0  0  0  0  0  0  0  0
    1.2033    0.8885   -1.3884 H   0  0  0  0  0  0  0  0  0  0  0  0
    0.4614    2.4979   -1.3779 H   0  0  0  0  0  0  0  0  0  0  0  0
    1.6254    2.0378    0.6591 S   0  0  0  0  0  0  0  0  0  0  0  0
    0.6402    3.4151    1.3025 C   0  0  0  0  0  0  0  0  0  0  0  0
   -0.3629    3.0659    1.5493 H   0  0  0  0  0  0  0  0  0  0  0  0
    1.1143    3.8096    2.2017 H   0  0  0  0  0  0  0  0  0  0  0  0
    0.5788    4.2050    0.5534 H   0  0  0  0  0  0  0  0  0  0  0  0
   -0.1711   -0.0594    1.8296 C   0  0  0  0  0  0  0  0  0  0  0  0
    0.9865   -0.2908    2.1726 O   0  0  0  0  0  0  0  0  0  0  0  0
   -1.0921    0.4156    2.6780 N   0  0  0  0  0  0  0  0  0  0  0  0
   -2.0168    0.5953    2.3206 H   0  0  0  0  0  0  0  0  0  0  0  0
   -0.8319    0.7034    4.0877 C   0  0  0  0  0  0  0  0  0  0  0  0
   -0.0192    1.4288    4.1710 H   0  0  0  0  0  0  0  0  0  0  0  0
   -1.7255    1.1088    4.5641 H   0  0  0  0  0  0  0  0  0  0  0  0
   -0.5319   -0.2118    4.6011 H   0  0  0  0  0  0  0  0  0  0  0  0
  5  6  2  0  0  0  0
  5  7  1  0  0  0  0
  2  3  1  0  0  0  0
  2  4  1  0  0  0  0
  2  5  1  0  0  0  0
  1  2  1  0  0  0  0
 22 23  2  0  0  0  0
 22 24  1  0  0  0  0
 18 19  1  0  0  0  0
 18 20  1  0  0  0  0
 18 21  1  0  0  0  0
 17 18  1  0  0  0  0
 14 15  1  0  0  0  0
 14 16  1  0  0  0  0
 14 17  1  0  0  0  0
 11 12  1  0  0  0  0
 11 13  1  0  0  0  0
 11 14  1  0  0  0  0
  9 10  1  0  0  0  0
  9 11  1  0  0  0  0
  9 22  1  0  0  0  0
  7  8  1  0  0  0  0
  7  9  1  0  0  0  0
 26 27  1  0  0  0  0
 26 28  1  0  0  0  0
 26 29  1  0  0  0  0
 24 25  1  0  0  0  0
 24 26  1  0  0  0  0
M  END
$$$$
default_name
  -OEChem-02102213163D

 29 28  0     1  0  0  0  0  0999 V2000
   -3.5781   -3.7296    1.2702 H   0  0  0  0  0  0  0  0  0  0  0  0
   -3.5311   -2.7616    0.7732 C   0  0  0  0  0  0  0  0  0  0  0  0
   -4.2371   -2.0766    1.2382 H   0  0  0  0  0  0  0  0  0  0  0  0
   -3.7681   -2.8816   -0.2818 H   0  0  0  0  0  0  0  0  0  0  0  0
   -2.1321   -2.2086    0.9112 C   0  0  0  0  0  0  0  0  0  0  0  0
   -1.2751   -2.8426    1.5112 O   0  0  0  0  0  0  0  0  0  0  0  0
   -1.9041   -1.0186    0.3602 N   0  0  0  0  0  0  0  0  0  0  0  0
   -2.6671   -0.5416   -0.0988 H   0  0  0  0  0  0  0  0  0  0  0  0
   -0.6131   -0.3236    0.3832 C   0  0  1  0  0  0  0  0  0  0  0  0
    0.1346   -0.9625   -0.0894 H   0  0  0  0  0  0  0  0  0  0  0  0
   -0.7253    0.9751   -0.4365 C   0  0  0  0  0  0  0  0  0  0  0  0
   -1.2555    0.7586   -1.3663 H   0  0  0  0  0  0  0  0  0  0  0  0
   -1.3079    1.7062    0.1258 H   0  0  0  0  0  0  0  0  0  0  0  0
    0.6313    1.5960   -0.7888 C   0  0  0  0  0  0  0  0  0  0  0  0
    1.0896    1.0209   -1.5928 H   0  0  0  0  0  0  0  0  0  0  0  0
    0.4696    2.6170   -1.1362 H   0  0  0  0  0  0  0  0  0  0  0  0
    1.7915    1.6420    0.6010 S   0  0  0  0  0  0  0  0  0  0  0  0
    0.9753    2.8773    1.6449 C   0  0  0  0  0  0  0  0  0  0  0  0
   -0.0213    2.5281    1.9170 H   0  0  0  0  0  0  0  0  0  0  0  0
    1.5622    3.0293    2.5512 H   0  0  0  0  0  0  0  0  0  0  0  0
    0.8977    3.8215    1.1053 H   0  0  0  0  0  0  0  0  0  0  0  0
   -0.1711   -0.0594    1.8296 C   0  0  0  0  0  0  0  0  0  0  0  0
    0.9865   -0.2908    2.1726 O   0  0  0  0  0  0  0  0  0  0  0  0
   -1.0921    0.4156    2.6780 N   0  0  0  0  0  0  0  0  0  0  0  0
   -2.0168    0.5953    2.3206 H   0  0  0  0  0  0  0  0  0  0  0  0
   -0.8319    0.7034    4.0877 C   0  0  0  0  0  0  0  0  0  0  0  0
   -0.0192    1.4288    4.1710 H   0  0  0  0  0  0  0  0  0  0  0  0
   -1.7255    1.1088    4.5641 H   0  0  0  0  0  0  0  0  0  0  0  0
   -0.5319   -0.2118    4.6011 H   0  0  0  0  0  0  0  0  0  0  0  0
  5  6  2  0  0  0  0
  5  7  1  0  0  0  0
  2  3  1  0  0  0  0
  2  4  1  0  0  0  0
  2  5  1  0  0  0  0
  1  2  1  0  0  0  0
 22 23  2  0  0  0  0
 22 24  1  0  0  0  0
 18 19  1  0  0  0  0
 18 20  1  0  0  0  0
 18 21  1  0  0  0  0
 17 18  1  0  0  0  0
 14 15  1  0  0  0  0
 14 16  1  0  0  0  0
 14 17  1  0  0  0  0
 11 12  1  0  0  0  0
 11 13  1  0  0  0  0
 11 14  1  0  0  0  0
  9 10  1  0  0  0  0
  9 11  1  0  0  0  0
  9 22  1  0  0  0  0
  7  8  1  0  0  0  0
  7  9  1  0  0  0  0
 26 27  1  0  0  0  0
 26 28  1  0  0  0  0
 26 29  1  0  0  0  0
 24 25  1  0  0  0  0
 24 26  1  0  0  0  0
M  END
$$$$
default_name
  -OEChem-02102213163D

 29 28  0     1  0  0  0  0  0999 V2000
   -3.5781   -3.7296    1.2702 H   0  0  0  0  0  0  0  0  0  0  0  0
   -3.5311   -2.7616    0.7732 C   0  0  0  0  0  0  0  0  0  0  0  0
   -4.2371   -2.0766    1.2382 H   0  0  0  0  0  0  0  0  0  0  0  0
   -3.7681   -2.8816   -0.2818 H   0  0  0  0  0  0  0  0  0  0  0  0
   -2.1321   -2.2086    0.9112 C   0  0  0  0  0  0  0  0  0  0  0  0
   -1.2751   -2.8426    1.5112 O   0  0  0  0  0  0  0  0  0  0  0  0
   -1.9041   -1.0186    0.3602 N   0  0  0  0  0  0  0  0  0  0  0  0
   -2.6671   -0.5416   -0.0988 H   0  0  0  0  0  0  0  0  0  0  0  0
   -0.6131   -0.3236    0.3832 C   0  0  1  0  0  0  0  0  0  0  0  0
    0.1346   -0.9625   -0.0894 H   0  0  0  0  0  0  0  0  0  0  0  0
   -0.7253    0.9751   -0.4365 C   0  0  0  0  0  0  0  0  0  0  0  0
   -1.2555    0.7586   -1.3663 H   0  0  0  0  0  0  0  0  0  0  0  0
   -1.3079    1.7062    0.1258 H   0  0  0  0  0  0  0  0  0  0  0  0
    0.6313    1.5960   -0.7888 C   0  0  0  0  0  0  0  0  0  0  0  0
    0.9663    1.2023   -1.7480 H   0  0  0  0  0  0  0  0  0  0  0  0
    0.5100    2.6763   -0.8763 H   0  0  0  0  0  0  0  0  0  0  0  0
    1.9223    1.2631    0.4369 S   0  0  0  0  0  0  0  0  0  0  0  0
    1.3029    2.2594    1.8174 C   0  0  0  0  0  0  0  0  0  0  0  0
    0.3153    1.9041    2.1131 H   0  0  0  0  0  0  0  0  0  0  0  0
    1.9851    2.1688    2.6631 H   0  0  0  0  0  0  0  0  0  0  0  0
    1.2407    3.3057    1.5171 H   0  0  0  0  0  0  0  0  0  0  0  0
   -0.1711   -0.0594    1.8296 C   0  0  0  0  0  0  0  0  0  0  0  0
    0.9865   -0.2908    2.1726 O   0  0  0  0  0  0  0  0  0  0  0  0
   -1.0921    0.4156    2.6780 N   0  0  0  0  0  0  0  0  0  0  0  0
   -2.0168    0.5953    2.3206 H   0  0  0  0  0  0  0  0  0  0  0  0
   -0.8319    0.7034    4.0877 C   0  0  0  0  0  0  0  0  0  0  0  0
   -0.0192    1.4288    4.1710 H   0  0  0  0  0  0  0  0  0  0  0  0
   -1.7255    1.1088    4.5641 H   0  0  0  0  0  0  0  0  0  0  0  0
   -0.5319   -0.2118    4.6011 H   0  0  0  0  0  0  0  0  0  0  0  0
  5  6  2  0  0  0  0
  5  7  1  0  0  0  0
  2  3  1  0  0  0  0
  2  4  1  0  0  0  0
  2  5  1  0  0  0  0
  1  2  1  0  0  0  0
 22 23  2  0  0  0  0
 22 24  1  0  0  0  0
 18 19  1  0  0  0  0
 18 20  1  0  0  0  0
 18 21  1  0  0  0  0
 17 18  1  0  0  0  0
 14 15  1  0  0  0  0
 14 16  1  0  0  0  0
 14 17  1  0  0  0  0
 11 12  1  0  0  0  0
 11 13  1  0  0  0  0
 11 14  1  0  0  0  0
  9 10  1  0  0  0  0
  9 11  1  0  0  0  0
  9 22  1  0  0  0  0
  7  8  1  0  0  0  0
  7  9  1  0  0  0  0
 26 27  1  0  0  0  0
 26 28  1  0  0  0  0
 26 29  1  0  0  0  0
 24 25  1  0  0  0  0
 24 26  1  0  0  0  0
M  END
$$$$
default_name
  -OEChem-02102213163D

 29 28  0     1  0  0  0  0  0999 V2000
   -3.5781   -3.7296    1.2702 H   0  0  0  0  0  0  0  0  0  0  0  0
   -3.5311   -2.7616    0.7732 C   0  0  0  0  0  0  0  0  0  0  0  0
   -4.2371   -2.0766    1.2382 H   0  0  0  0  0  0  0  0  0  0  0  0
   -3.7681   -2.8816   -0.2818 H   0  0  0  0  0  0  0  0  0  0  0  0
   -2.1321   -2.2086    0.9112 C   0  0  0  0  0  0  0  0  0  0  0  0
   -1.2751   -2.8426    1.5112 O   0  0  0  0  0  0  0  0  0  0  0  0
   -1.9041   -1.0186    0.3602 N   0  0  0  0  0  0  0  0  0  0  0  0
   -2.6671   -0.5416   -0.0988 H   0  0  0  0  0  0  0  0  0  0  0  0
   -0.6131   -0.3236    0.3832 C   0  0  1  0  0  0  0  0  0  0  0  0
    0.1346   -0.9625   -0.0894 H   0  0  0  0  0  0  0  0  0  0  0  0
   -0.7253    0.9751   -0.4365 C   0  0  0  0  0  0  0  0  0  0  0  0
   -1.2555    0.7586   -1.3663 H   0  0  0  0  0  0  0  0  0  0  0  0
   -1.3079    1.7062    0.1258 H   0  0  0  0  0  0  0  0  0  0  0  0
    0.6313    1.5960   -0.7888 C   0  0  0  0  0  0  0  0  0  0  0  0
    0.8417    1.4204   -1.8434 H   0  0  0  0  0  0  0  0  0  0  0  0
    0.5798    2.6715   -0.6159 H   0  0  0  0  0  0  0  0  0  0  0  0
    2.0089    0.9269    0.1779 S   0  0  0  0  0  0  0  0  0  0  0  0
    1.6006    1.6035    1.8080 C   0  0  0  0  0  0  0  0  0  0  0  0
    0.6238    1.2364    2.1244 H   0  0  0  0  0  0  0  0  0  0  0  0
    2.3541    1.2870    2.5298 H   0  0  0  0  0  0  0  0  0  0  0  0
    1.5845    2.6927    1.7607 H   0  0  0  0  0  0  0  0  0  0  0  0
   -0.1711   -0.0594    1.8296 C   0  0  0  0  0  0  0  0  0  0  0  0
    0.9865   -0.2908    2.1726 O   0  0  0  0  0  0  0  0  0  0  0  0
   -1.0921    0.4156    2.6780 N   0  0  0  0  0  0  0  0  0  0  0  0
   -2.0168    0.5953    2.3206 H   0  0  0  0  0  0  0  0  0  0  0  0
   -0.8319    0.7034    4.0877 C   0  0  0  0  0  0  0  0  0  0  0  0
   -0.0192    1.4288    4.1710 H   0  0  0  0  0  0  0  0  0  0  0  0
   -1.7255    1.1088    4.5641 H   0  0  0  0  0  0  0  0  0  0  0  0
   -0.5319   -0.2118    4.6011 H   0  0  0  0  0  0  0  0  0  0  0  0
  5  6  2  0  0  0  0
  5  7  1  0  0  0  0
  2  3  1  0  0  0  0
  2  4  1  0  0  0  0
  2  5  1  0  0  0  0
  1  2  1  0  0  0  0
 22 23  2  0  0  0  0
 22 24  1  0  0  0  0
 18 19  1  0  0  0  0
 18 20  1  0  0  0  0
 18 21  1  0  0  0  0
 17 18  1  0  0  0  0
 14 15  1  0  0  0  0
 14 16  1  0  0  0  0
 14 17  1  0  0  0  0
 11 12  1  0  0  0  0
 11 13  1  0  0  0  0
 11 14  1  0  0  0  0
  9 10  1  0  0  0  0
  9 11  1  0  0  0  0
  9 22  1  0  0  0  0
  7  8  1  0  0  0  0
  7  9  1  0  0  0  0
 26 27  1  0  0  0  0
 26 28  1  0  0  0  0
 26 29  1  0  0  0  0
 24 25  1  0  0  0  0
 24 26  1  0  0  0  0
M  END
$$$$
default_name
  -OEChem-02102213163D

 29 28  0     1  0  0  0  0  0999 V2000
   -3.5781   -3.7296    1.2702 H   0  0  0  0  0  0  0  0  0  0  0  0
   -3.5311   -2.7616    0.7732 C   0  0  0  0  0  0  0  0  0  0  0  0
   -4.2371   -2.0766    1.2382 H   0  0  0  0  0  0  0  0  0  0  0  0
   -3.7681   -2.8816   -0.2818 H   0  0  0  0  0  0  0  0  0  0  0  0
   -2.1321   -2.2086    0.9112 C   0  0  0  0  0  0  0  0  0  0  0  0
   -1.2751   -2.8426    1.5112 O   0  0  0  0  0  0  0  0  0  0  0  0
   -1.9041   -1.0186    0.3602 N   0  0  0  0  0  0  0  0  0  0  0  0
   -2.6671   -0.5416   -0.0988 H   0  0  0  0  0  0  0  0  0  0  0  0
   -0.6131   -0.3236    0.3832 C   0  0  1  0  0  0  0  0  0  0  0  0
    0.1346   -0.9625   -0.0894 H   0  0  0  0  0  0  0  0  0  0  0  0
   -0.7253    0.9751   -0.4365 C   0  0  0  0  0  0  0  0  0  0  0  0
   -1.2555    0.7586   -1.3663 H   0  0  0  0  0  0  0  0  0  0  0  0
   -1.3079    1.7062    0.1258 H   0  0  0  0  0  0  0  0  0  0  0  0
    0.6313    1.5960   -0.7888 C   0  0  0  0  0  0  0  0  0  0  0  0
    0.7243    1.6603   -1.8725 H   0  0  0  0  0  0  0  0  0  0  0  0
    0.6742    2.6032   -0.3728 H   0  0  0  0  0  0  0  0  0  0  0  0
    2.0453    0.6564   -0.1584 S   0  0  0  0  0  0  0  0  0  0  0  0
    1.8482    0.9545    1.6176 C   0  0  0  0  0  0  0  0  0  0  0  0
    0.8833    0.5705    1.9500 H   0  0  0  0  0  0  0  0  0  0  0  0
    2.6441    0.4437    2.1604 H   0  0  0  0  0  0  0  0  0  0  0  0
    1.9057    2.0244    1.8196 H   0  0  0  0  0  0  0  0  0  0  0  0
   -0.1711   -0.0594    1.8296 C   0  0  0  0  0  0  0  0  0  0  0  0
    0.9865   -0.2908    2.1726 O   0  0  0  0  0  0  0  0  0  0  0  0
   -1.0921    0.4156    2.6780 N   0  0  0  0  0  0  0  0  0  0  0  0
   -2.0168    0.5953    2.3206 H   0  0  0  0  0  0  0  0  0  0  0  0
   -0.8319    0.7034    4.0877 C   0  0  0  0  0  0  0  0  0  0  0  0
   -0.0192    1.4288    4.1710 H   0  0  0  0  0  0  0  0  0  0  0  0
   -1.7255    1.1088    4.5641 H   0  0  0  0  0  0  0  0  0  0  0  0
   -0.5319   -0.2118    4.6011 H   0  0  0  0  0  0  0  0  0  0  0  0
  5  6  2  0  0  0  0
  5  7  1  0  0  0  0
  2  3  1  0  0  0  0
  2  4  1  0  0  0  0
  2  5  1  0  0  0  0
  1  2  1  0  0  0  0
 22 23  2  0  0  0  0
 22 24  1  0  0  0  0
 18 19  1  0  0  0  0
 18 20  1  0  0  0  0
 18 21  1  0  0  0  0
 17 18  1  0  0  0  0
 14 15  1  0  0  0  0
 14 16  1  0  0  0  0
 14 17  1  0  0  0  0
 11 12  1  0  0  0  0
 11 13  1  0  0  0  0
 11 14  1  0  0  0  0
  9 10  1  0  0  0  0
  9 11  1  0  0  0  0
  9 22  1  0  0  0  0
  7  8  1  0  0  0  0
  7  9  1  0  0  0  0
 26 27  1  0  0  0  0
 26 28  1  0  0  0  0
 26 29  1  0  0  0  0
 24 25  1  0  0  0  0
 24 26  1  0  0  0  0
M  END
$$$$
default_name
  -OEChem-02102213163D

 29 28  0     1  0  0  0  0  0999 V2000
   -3.5781   -3.7296    1.2702 H   0  0  0  0  0  0  0  0  0  0  0  0
   -3.5311   -2.7616    0.7732 C   0  0  0  0  0  0  0  0  0  0  0  0
   -4.2371   -2.0766    1.2382 H   0  0  0  0  0  0  0  0  0  0  0  0
   -3.7681   -2.8816   -0.2818 H   0  0  0  0  0  0  0  0  0  0  0  0
   -2.1321   -2.2086    0.9112 C   0  0  0  0  0  0  0  0  0  0  0  0
   -1.2751   -2.8426    1.5112 O   0  0  0  0  0  0  0  0  0  0  0  0
   -1.9041   -1.0186    0.3602 N   0  0  0  0  0  0  0  0  0  0  0  0
   -2.6671   -0.5416   -0.0988 H   0  0  0  0  0  0  0  0  0  0  0  0
   -0.6131   -0.3236    0.3832 C   0  0  1  0  0  0  0  0  0  0  0  0
    0.1346   -0.9625   -0.0894 H   0  0  0  0  0  0  0  0  0  0  0  0
   -0.7253    0.9751   -0.4365 C   0  0  0  0  0  0  0  0  0  0  0  0
   -1.2555    0.7586   -1.3663 H   0  0  0  0  0  0  0  0  0  0  0  0
   -1.3079    1.7062    0.1258 H   0  0  0  0  0  0  0  0  0  0  0  0
    0.6313    1.5960   -0.7888 C   0  0  0  0  0  0  0  0  0  0  0  0
    0.6222    1.9058   -1.8334 H   0  0  0  0  0  0  0  0  0  0  0  0
    0.7868    2.4759   -0.1635 H   0  0  0  0  0  0  0  0  0  0  0  0
    2.0293    0.4699   -0.5490 S   0  0  0  0  0  0  0  0  0  0  0  0
    2.0288    0.3564    1.2591 C   0  0  0  0  0  0  0  0  0  0  0  0
    1.0760   -0.0482    1.6018 H   0  0  0  0  0  0  0  0  0  0  0  0
    2.8353   -0.3034    1.5800 H   0  0  0  0  0  0  0  0  0  0  0  0
    2.1824    1.3463    1.6898 H   0  0  0  0  0  0  0  0  0  0  0  0
   -0.1711   -0.0594    1.8296 C   0  0  0  0  0  0  0  0  0  0  0  0
    0.9865   -0.2908    2.1726 O   0  0  0  0  0  0  0  0  0  0  0  0
   -1.0921    0.4156    2.6780 N   0  0  0  0  0  0  0  0  0  0  0  0
   -2.0168    0.5953    2.3206 H   0  0  0  0  0  0  0  0  0  0  0  0
   -0.8319    0.7034    4.0877 C   0  0  0  0  0  0  0  0  0  0  0  0
   -0.0192    1.4288    4.1710 H   0  0  0  0  0  0  0  0  0  0  0  0
   -1.7255    1.1088    4.5641 H   0  0  0  0  0  0  0  0  0  0  0  0
   -0.5319   -0.2118    4.6011 H   0  0  0  0  0  0  0  0  0  0  0  0
  5  6  2  0  0  0  0
  5  7  1  0  0  0  0
  2  3  1  0  0  0  0
  2  4  1  0  0  0  0
  2  5  1  0  0  0  0
  1  2  1  0  0  0  0
 22 23  2  0  0  0  0
 22 24  1  0  0  0  0
 18 19  1  0  0  0  0
 18 20  1  0  0  0  0
 18 21  1  0  0  0  0
 17 18  1  0  0  0  0
 14 15  1  0  0  0  0
 14 16  1  0  0  0  0
 14 17  1  0  0  0  0
 11 12  1  0  0  0  0
 11 13  1  0  0  0  0
 11 14  1  0  0  0  0
  9 10  1  0  0  0  0
  9 11  1  0  0  0  0
  9 22  1  0  0  0  0
  7  8  1  0  0  0  0
  7  9  1  0  0  0  0
 26 27  1  0  0  0  0
 26 28  1  0  0  0  0
 26 29  1  0  0  0  0
 24 25  1  0  0  0  0
 24 26  1  0  0  0  0
M  END
$$$$
default_name
  -OEChem-02102213163D

 29 28  0     1  0  0  0  0  0999 V2000
   -3.5781   -3.7296    1.2702 H   0  0  0  0  0  0  0  0  0  0  0  0
   -3.5311   -2.7616    0.7732 C   0  0  0  0  0  0  0  0  0  0  0  0
   -4.2371   -2.0766    1.2382 H   0  0  0  0  0  0  0  0  0  0  0  0
   -3.7681   -2.8816   -0.2818 H   0  0  0  0  0  0  0  0  0  0  0  0
   -2.1321   -2.2086    0.9112 C   0  0  0  0  0  0  0  0  0  0  0  0
   -1.2751   -2.8426    1.5112 O   0  0  0  0  0  0  0  0  0  0  0  0
   -1.9041   -1.0186    0.3602 N   0  0  0  0  0  0  0  0  0  0  0  0
   -2.6671   -0.5416   -0.0988 H   0  0  0  0  0  0  0  0  0  0  0  0
   -0.6131   -0.3236    0.3832 C   0  0  1  0  0  0  0  0  0  0  0  0
    0.1346   -0.9625   -0.0894 H   0  0  0  0  0  0  0  0  0  0  0  0
   -0.7253    0.9751   -0.4365 C   0  0  0  0  0  0  0  0  0  0  0  0
   -1.2555    0.7586   -1.3663 H   0  0  0  0  0  0  0  0  0  0  0  0
   -1.3079    1.7062    0.1258 H   0  0  0  0  0  0  0  0  0  0  0  0
    0.6313    1.5960   -0.7888 C   0  0  0  0  0  0  0  0  0  0  0  0
    0.5422    2.1399   -1.7287 H   0  0  0  0  0  0  0  0  0  0  0  0
    0.9100    2.2982   -0.0023 H   0  0  0  0  0  0  0  0  0  0  0  0
    1.9617    0.3802   -0.9673 S   0  0  0  0  0  0  0  0  0  0  0  0
    2.1301   -0.1499    0.7568 C   0  0  0  0  0  0  0  0  0  0  0  0
    1.1889   -0.5775    1.1036 H   0  0  0  0  0  0  0  0  0  0  0  0
    2.9147   -0.9036    0.8282 H   0  0  0  0  0  0  0  0  0  0  0  0
    2.3957    0.7045    1.3800 H   0  0  0  0  0  0  0  0  0  0  0  0
   -0.1711   -0.0594    1.8296 C   0  0  0  0  0  0  0  0  0  0  0  0
    0.9865   -0.2908    2.1726 O   0  0  0  0  0  0  0  0  0  0  0  0
   -1.0921    0.4156    2.6780 N   0  0  0  0  0  0  0  0  0  0  0  0
   -2.0168    0.5953    2.3206 H   0  0  0  0  0  0  0  0  0  0  0  0
   -0.8319    0.7034    4.0877 C   0  0  0  0  0  0  0  0  0  0  0  0
   -0.0192    1.4288    4.1710 H   0  0  0  0  0  0  0  0  0  0  0  0
   -1.7255    1.1088    4.5641 H   0  0  0  0  0  0  0  0  0  0  0  0
   -0.5319   -0.2118    4.6011 H   0  0  0  0  0  0  0  0  0  0  0  0
  5  6  2  0  0  0  0
  5  7  1  0  0  0  0
  2  3  1  0  0  0  0
  2  4  1  0  0  0  0
  2  5  1  0  0  0  0
  1  2  1  0  0  0  0
 22 23  2  0  0  0  0
 22 24  1  0  0  0  0
 18 19  1  0  0  0  0
 18 20  1  0  0  0  0
 18 21  1  0  0  0  0
 17 18  1  0  0  0  0
 14 15  1  0  0  0  0
 14 16  1  0  0  0  0
 14 17  1  0  0  0  0
 11 12  1  0  0  0  0
 11 13  1  0  0  0  0
 11 14  1  0  0  0  0
  9 10  1  0  0  0  0
  9 11  1  0  0  0  0
  9 22  1  0  0  0  0
  7  8  1  0  0  0  0
  7  9  1  0  0  0  0
 26 27  1  0  0  0  0
 26 28  1  0  0  0  0
 26 29  1  0  0  0  0
 24 25  1  0  0  0  0
 24 26  1  0  0  0  0
M  END
$$$$
default_name
  -OEChem-02102213163D

 29 28  0     1  0  0  0  0  0999 V2000
   -3.5781   -3.7296    1.2702 H   0  0  0  0  0  0  0  0  0  0  0  0
   -3.5311   -2.7616    0.7732 C   0  0  0  0  0  0  0  0  0  0  0  0
   -4.2371   -2.0766    1.2382 H   0  0  0  0  0  0  0  0  0  0  0  0
   -3.7681   -2.8816   -0.2818 H   0  0  0  0  0  0  0  0  0  0  0  0
   -2.1321   -2.2086    0.9112 C   0  0  0  0  0  0  0  0  0  0  0  0
   -1.2751   -2.8426    1.5112 O   0  0  0  0  0  0  0  0  0  0  0  0
   -1.9041   -1.0186    0.3602 N   0  0  0  0  0  0  0  0  0  0  0  0
   -2.6671   -0.5416   -0.0988 H   0  0  0  0  0  0  0  0  0  0  0  0
   -0.6131   -0.3236    0.3832 C   0  0  1  0  0  0  0  0  0  0  0  0
    0.1346   -0.9625   -0.0894 H   0  0  0  0  0  0  0  0  0  0  0  0
   -0.7253    0.9751   -0.4365 C   0  0  0  0  0  0  0  0  0  0  0  0
   -1.2555    0.7586   -1.3663 H   0  0  0  0  0  0  0  0  0  0  0  0
   -1.3079    1.7062    0.1258 H   0  0  0  0  0  0  0  0  0  0  0  0
    0.6313    1.5960   -0.7888 C   0  0  0  0  0  0  0  0  0  0  0  0
    0.4898    2.3469   -1.5655 H   0  0  0  0  0  0  0  0  0  0  0  0
    1.0353    2.0824    0.0998 H   0  0  0  0  0  0  0  0  0  0  0  0
    1.8472    0.3934   -1.3848 S   0  0  0  0  0  0  0  0  0  0  0  0
    2.1452   -0.5299    0.1451 C   0  0  0  0  0  0  0  0  0  0  0  0
    1.2142   -0.9814    0.4893 H   0  0  0  0  0  0  0  0  0  0  0  0
    2.8769   -1.3158   -0.0438 H   0  0  0  0  0  0  0  0  0  0  0  0
    2.5311    0.1428    0.9115 H   0  0  0  0  0  0  0  0  0  0  0  0
   -0.1711   -0.0594    1.8296 C   0  0  0  0  0  0  0  0  0  0  0  0
    0.9865   -0.2908    2.1726 O   0  0  0  0  0  0  0  0  0  0  0  0
   -1.0921    0.4156    2.6780 N   0  0  0  0  0  0  0  0  0  0  0  0
   -2.0168    0.5953    2.3206 H   0  0  0  0  0  0  0  0  0  0  0  0
   -0.8319    0.7034    4.0877 C   0  0  0  0  0  0  0  0  0  0  0  0
   -0.0192    1.4288    4.1710 H   0  0  0  0  0  0  0  0  0  0  0  0
   -1.7255    1.1088    4.5641 H   0  0  0  0  0  0  0  0  0  0  0  0
   -0.5319   -0.2118    4.6011 H   0  0  0  0  0  0  0  0  0  0  0  0
  5  6  2  0  0  0  0
  5  7  1  0  0  0  0
  2  3  1  0  0  0  0
  2  4  1  0  0  0  0
  2  5  1  0  0  0  0
  1  2  1  0  0  0  0
 22 23  2  0  0  0  0
 22 24  1  0  0  0  0
 18 19  1  0  0  0  0
 18 20  1  0  0  0  0
 18 21  1  0  0  0  0
 17 18  1  0  0  0  0
 14 15  1  0  0  0  0
 14 16  1  0  0  0  0
 14 17  1  0  0  0  0
 11 12  1  0  0  0  0
 11 13  1  0  0  0  0
 11 14  1  0  0  0  0
  9 10  1  0  0  0  0
  9 11  1  0  0  0  0
  9 22  1  0  0  0  0
  7  8  1  0  0  0  0
  7  9  1  0  0  0  0
 26 27  1  0  0  0  0
 26 28  1  0  0  0  0
 26 29  1  0  0  0  0
 24 25  1  0  0  0  0
 24 26  1  0  0  0  0
M  END
$$$$
default_name
  -OEChem-02102213163D

 29 28  0     1  0  0  0  0  0999 V2000
   -3.5781   -3.7296    1.2702 H   0  0  0  0  0  0  0  0  0  0  0  0
   -3.5311   -2.7616    0.7732 C   0  0  0  0  0  0  0  0  0  0  0  0
   -4.2371   -2.0766    1.2382 H   0  0  0  0  0  0  0  0  0  0  0  0
   -3.7681   -2.8816   -0.2818 H   0  0  0  0  0  0  0  0  0  0  0  0
   -2.1321   -2.2086    0.9112 C   0  0  0  0  0  0  0  0  0  0  0  0
   -1.2751   -2.8426    1.5112 O   0  0  0  0  0  0  0  0  0  0  0  0
   -1.9041   -1.0186    0.3602 N   0  0  0  0  0  0  0  0  0  0  0  0
   -2.6671   -0.5416   -0.0988 H   0  0  0  0  0  0  0  0  0  0  0  0
   -0.6131   -0.3236    0.3832 C   0  0  1  0  0  0  0  0  0  0  0  0
    0.1346   -0.9625   -0.0894 H   0  0  0  0  0  0  0  0  0  0  0  0
   -0.7253    0.9751   -0.4365 C   0  0  0  0  0  0  0  0  0  0  0  0
   -1.2555    0.7586   -1.3663 H   0  0  0  0  0  0  0  0  0  0  0  0
   -1.3079    1.7062    0.1258 H   0  0  0  0  0  0  0  0  0  0  0  0
    0.6313    1.5960   -0.7888 C   0  0  0  0  0  0  0  0  0  0  0  0
    0.4687    2.5126   -1.3550 H   0  0  0  0  0  0  0  0  0  0  0  0
    1.1542    1.8431    0.1358 H   0  0  0  0  0  0  0  0  0  0  0  0
    1.6937    0.5086   -1.7731 S   0  0  0  0  0  0  0  0  0  0  0  0
    2.0730   -0.7578   -0.5344 C   0  0  0  0  0  0  0  0  0  0  0  0
    1.1503   -1.2323   -0.1992 H   0  0  0  0  0  0  0  0  0  0  0  0
    2.7245   -1.5120   -0.9765 H   0  0  0  0  0  0  0  0  0  0  0  0
    2.5793   -0.3004    0.3161 H   0  0  0  0  0  0  0  0  0  0  0  0
   -0.1711   -0.0594    1.8296 C   0  0  0  0  0  0  0  0  0  0  0  0
    0.9865   -0.2908    2.1726 O   0  0  0  0  0  0  0  0  0  0  0  0
   -1.0921    0.4156    2.6780 N   0  0  0  0  0  0  0  0  0  0  0  0
   -2.0168    0.5953    2.3206 H   0  0  0  0  0  0  0  0  0  0  0  0
   -0.8319    0.7034    4.0877 C   0  0  0  0  0  0  0  0  0  0  0  0
   -0.0192    1.4288    4.1710 H   0  0  0  0  0  0  0  0  0  0  0  0
   -1.7255    1.1088    4.5641 H   0  0  0  0  0  0  0  0  0  0  0  0
   -0.5319   -0.2118    4.6011 H   0  0  0  0  0  0  0  0  0  0  0  0
  5  6  2  0  0  0  0
  5  7  1  0  0  0  0
  2  3  1  0  0  0  0
  2  4  1  0  0  0  0
  2  5  1  0  0  0  0
  1  2  1  0  0  0  0
 22 23  2  0  0  0  0
 22 24  1  0  0  0  0
 18 19  1  0  0  0  0
 18 20  1  0  0  0  0
 18 21  1  0  0  0  0
 17 18  1  0  0  0  0
 14 15  1  0  0  0  0
 14 16  1  0  0  0  0
 14 17  1  0  0  0  0
 11 12  1  0  0  0  0
 11 13  1  0  0  0  0
 11 14  1  0  0  0  0
  9 10  1  0  0  0  0
  9 11  1  0  0  0  0
  9 22  1  0  0  0  0
  7  8  1  0  0  0  0
  7  9  1  0  0  0  0
 26 27  1  0  0  0  0
 26 28  1  0  0  0  0
 26 29  1  0  0  0  0
 24 25  1  0  0  0  0
 24 26  1  0  0  0  0
M  END
$$$$
default_name
  -OEChem-02102213163D

 29 28  0     1  0  0  0  0  0999 V2000
   -3.5781   -3.7296    1.2702 H   0  0  0  0  0  0  0  0  0  0  0  0
   -3.5311   -2.7616    0.7732 C   0  0  0  0  0  0  0  0  0  0  0  0
   -4.2371   -2.0766    1.2382 H   0  0  0  0  0  0  0  0  0  0  0  0
   -3.7681   -2.8816   -0.2818 H   0  0  0  0  0  0  0  0  0  0  0  0
   -2.1321   -2.2086    0.9112 C   0  0  0  0  0  0  0  0  0  0  0  0
   -1.2751   -2.8426    1.5112 O   0  0  0  0  0  0  0  0  0  0  0  0
   -1.9041   -1.0186    0.3602 N   0  0  0  0  0  0  0  0  0  0  0  0
   -2.6671   -0.5416   -0.0988 H   0  0  0  0  0  0  0  0  0  0  0  0
   -0.6131   -0.3236    0.3832 C   0  0  1  0  0  0  0  0  0  0  0  0
    0.1346   -0.9625   -0.0894 H   0  0  0  0  0  0  0  0  0  0  0  0
   -0.7253    0.9751   -0.4365 C   0  0  0  0  0  0  0  0  0  0  0  0
   -1.2555    0.7586   -1.3663 H   0  0  0  0  0  0  0  0  0  0  0  0
   -1.3079    1.7062    0.1258 H   0  0  0  0  0  0  0  0  0  0  0  0
    0.6313    1.5960   -0.7888 C   0  0  0  0  0  0  0  0  0  0  0  0
    0.4802    2.6256   -1.1115 H   0  0  0  0  0  0  0  0  0  0  0  0
    1.2586    1.5966    0.1034 H   0  0  0  0  0  0  0  0  0  0  0  0
    1.5115    0.7179   -2.1056 S   0  0  0  0  0  0  0  0  0  0  0  0
    1.9185   -0.8180   -1.2354 C   0  0  0  0  0  0  0  0  0  0  0  0
    1.0014   -1.3132   -0.9151 H   0  0  0  0  0  0  0  0  0  0  0  0
    2.4679   -1.4789   -1.9064 H   0  0  0  0  0  0  0  0  0  0  0  0
    2.5371   -0.5950   -0.3656 H   0  0  0  0  0  0  0  0  0  0  0  0
   -0.1711   -0.0594    1.8296 C   0  0  0  0  0  0  0  0  0  0  0  0
    0.9865   -0.2908    2.1726 O   0  0  0  0  0  0  0  0  0  0  0  0
   -1.0921    0.4156    2.6780 N   0  0  0  0  0  0  0  0  0  0  0  0
   -2.0168    0.5953    2.3206 H   0  0  0  0  0  0  0  0  0  0  0  0
   -0.8319    0.7034    4.0877 C   0  0  0  0  0  0  0  0  0  0  0  0
   -0.0192    1.4288    4.1710 H   0  0  0  0  0  0  0  0  0  0  0  0
   -1.7255    1.1088    4.5641 H   0  0  0  0  0  0  0  0  0  0  0  0
   -0.5319   -0.2118    4.6011 H   0  0  0  0  0  0  0  0  0  0  0  0
  5  6  2  0  0  0  0
  5  7  1  0  0  0  0
  2  3  1  0  0  0  0
  2  4  1  0  0  0  0
  2  5  1  0  0  0  0
  1  2  1  0  0  0  0
 22 23  2  0  0  0  0
 22 24  1  0  0  0  0
 18 19  1  0  0  0  0
 18 20  1  0  0  0  0
 18 21  1  0  0  0  0
 17 18  1  0  0  0  0
 14 15  1  0  0  0  0
 14 16  1  0  0  0  0
 14 17  1  0  0  0  0
 11 12  1  0  0  0  0
 11 13  1  0  0  0  0
 11 14  1  0  0  0  0
  9 10  1  0  0  0  0
  9 11  1  0  0  0  0
  9 22  1  0  0  0  0
  7  8  1  0  0  0  0
  7  9  1  0  0  0  0
 26 27  1  0  0  0  0
 26 28  1  0  0  0  0
 26 29  1  0  0  0  0
 24 25  1  0  0  0  0
 24 26  1  0  0  0  0
M  END
$$$$
default_name
  -OEChem-02102213163D

 29 28  0     1  0  0  0  0  0999 V2000
   -3.5781   -3.7296    1.2702 H   0  0  0  0  0  0  0  0  0  0  0  0
   -3.5311   -2.7616    0.7732 C   0  0  0  0  0  0  0  0  0  0  0  0
   -4.2371   -2.0766    1.2382 H   0  0  0  0  0  0  0  0  0  0  0  0
   -3.7681   -2.8816   -0.2818 H   0  0  0  0  0  0  0  0  0  0  0  0
   -2.1321   -2.2086    0.9112 C   0  0  0  0  0  0  0  0  0  0  0  0
   -1.2751   -2.8426    1.5112 O   0  0  0  0  0  0  0  0  0  0  0  0
   -1.9041   -1.0186    0.3602 N   0  0  0  0  0  0  0  0  0  0  0  0
   -2.6671   -0.5416   -0.0988 H   0  0  0  0  0  0  0  0  0  0  0  0
   -0.6131   -0.3236    0.3832 C   0  0  1  0  0  0  0  0  0  0  0  0
    0.1346   -0.9625   -0.0894 H   0  0  0  0  0  0  0  0  0  0  0  0
   -0.7253    0.9751   -0.4365 C   0  0  0  0  0  0  0  0  0  0  0  0
   -1.2555    0.7586   -1.3663 H   0  0  0  0  0  0  0  0  0  0  0  0
   -1.3079    1.7062    0.1258 H   0  0  0  0  0  0  0  0  0  0  0  0
    0.6313    1.5960   -0.7888 C   0  0  0  0  0  0  0  0  0  0  0  0
    0.5235    2.6784   -0.8517 H   0  0  0  0  0  0  0  0  0  0  0  0
    1.3413    1.3598    0.0046 H   0  0  0  0  0  0  0  0  0  0  0  0
    1.3131    1.0071   -2.3598 S   0  0  0  0  0  0  0  0  0  0  0  0
    1.6922   -0.7063   -1.9100 C   0  0  0  0  0  0  0  0  0  0  0  0
    0.7777   -1.2185   -1.6094 H   0  0  0  0  0  0  0  0  0  0  0  0
    2.1244   -1.2186   -2.7700 H   0  0  0  0  0  0  0  0  0  0  0  0
    2.4074   -0.7210   -1.0871 H   0  0  0  0  0  0  0  0  0  0  0  0
   -0.1711   -0.0594    1.8296 C   0  0  0  0  0  0  0  0  0  0  0  0
    0.9865   -0.2908    2.1726 O   0  0  0  0  0  0  0  0  0  0  0  0
   -1.0921    0.4156    2.6780 N   0  0  0  0  0  0  0  0  0  0  0  0
   -2.0168    0.5953    2.3206 H   0  0  0  0  0  0  0  0  0  0  0  0
   -0.8319    0.7034    4.0877 C   0  0  0  0  0  0  0  0  0  0  0  0
   -0.0192    1.4288    4.1710 H   0  0  0  0  0  0  0  0  0  0  0  0
   -1.7255    1.1088    4.5641 H   0  0  0  0  0  0  0  0  0  0  0  0
   -0.5319   -0.2118    4.6011 H   0  0  0  0  0  0  0  0  0  0  0  0
  5  6  2  0  0  0  0
  5  7  1  0  0  0  0
  2  3  1  0  0  0  0
  2  4  1  0  0  0  0
  2  5  1  0  0  0  0
  1  2  1  0  0  0  0
 22 23  2  0  0  0  0
 22 24  1  0  0  0  0
 18 19  1  0  0  0  0
 18 20  1  0  0  0  0
 18 21  1  0  0  0  0
 17 18  1  0  0  0  0
 14 15  1  0  0  0  0
 14 16  1  0  0  0  0
 14 17  1  0  0  0  0
 11 12  1  0  0  0  0
 11 13  1  0  0  0  0
 11 14  1  0  0  0  0
  9 10  1  0  0  0  0
  9 11  1  0  0  0  0
  9 22  1  0  0  0  0
  7  8  1  0  0  0  0
  7  9  1  0  0  0  0
 26 27  1  0  0  0  0
 26 28  1  0  0  0  0
 26 29  1  0  0  0  0
 24 25  1  0  0  0  0
 24 26  1  0  0  0  0
M  END
$$$$
default_name
  -OEChem-02102213163D

 29 28  0     1  0  0  0  0  0999 V2000
   -3.5781   -3.7296    1.2702 H   0  0  0  0  0  0  0  0  0  0  0  0
   -3.5311   -2.7616    0.7732 C   0  0  0  0  0  0  0  0  0  0  0  0
   -4.2371   -2.0766    1.2382 H   0  0  0  0  0  0  0  0  0  0  0  0
   -3.7681   -2.8816   -0.2818 H   0  0  0  0  0  0  0  0  0  0  0  0
   -2.1321   -2.2086    0.9112 C   0  0  0  0  0  0  0  0  0  0  0  0
   -1.2751   -2.8426    1.5112 O   0  0  0  0  0  0  0  0  0  0  0  0
   -1.9041   -1.0186    0.3602 N   0  0  0  0  0  0  0  0  0  0  0  0
   -2.6671   -0.5416   -0.0988 H   0  0  0  0  0  0  0  0  0  0  0  0
   -0.6131   -0.3236    0.3832 C   0  0  1  0  0  0  0  0  0  0  0  0
    0.1346   -0.9625   -0.0894 H   0  0  0  0  0  0  0  0  0  0  0  0
   -0.7253    0.9751   -0.4365 C   0  0  0  0  0  0  0  0  0  0  0  0
   -1.2555    0.7586   -1.3663 H   0  0  0  0  0  0  0  0  0  0  0  0
   -1.3079    1.7062    0.1258 H   0  0  0  0  0  0  0  0  0  0  0  0
    0.6313    1.5960   -0.7888 C   0  0  0  0  0  0  0  0  0  0  0  0
    0.5958    2.6672   -0.5931 H   0  0  0  0  0  0  0  0  0  0  0  0
    1.3968    1.1487   -0.1537 H   0  0  0  0  0  0  0  0  0  0  0  0
    1.1120    1.3564   -2.5183 S   0  0  0  0  0  0  0  0  0  0  0  0
    1.4095   -0.4305   -2.5124 C   0  0  0  0  0  0  0  0  0  0  0  0
    0.4945   -0.9547   -2.2350 H   0  0  0  0  0  0  0  0  0  0  0  0
    1.7176   -0.7489   -3.5087 H   0  0  0  0  0  0  0  0  0  0  0  0
    2.1989   -0.6697   -1.7993 H   0  0  0  0  0  0  0  0  0  0  0  0
   -0.1711   -0.0594    1.8296 C   0  0  0  0  0  0  0  0  0  0  0  0
    0.9865   -0.2908    2.1726 O   0  0  0  0  0  0  0  0  0  0  0  0
   -1.0921    0.4156    2.6780 N   0  0  0  0  0  0  0  0  0  0  0  0
   -2.0168    0.5953    2.3206 H   0  0  0  0  0  0  0  0  0  0  0  0
   -0.8319    0.7034    4.0877 C   0  0  0  0  0  0  0  0  0  0  0  0
   -0.0192    1.4288    4.1710 H   0  0  0  0  0  0  0  0  0  0  0  0
   -1.7255    1.1088    4.5641 H   0  0  0  0  0  0  0  0  0  0  0  0
   -0.5319   -0.2118    4.6011 H   0  0  0  0  0  0  0  0  0  0  0  0
  5  6  2  0  0  0  0
  5  7  1  0  0  0  0
  2  3  1  0  0  0  0
  2  4  1  0  0  0  0
  2  5  1  0  0  0  0
  1  2  1  0  0  0  0
 22 23  2  0  0  0  0
 22 24  1  0  0  0  0
 18 19  1  0  0  0  0
 18 20  1  0  0  0  0
 18 21  1  0  0  0  0
 17 18  1  0  0  0  0
 14 15  1  0  0  0  0
 14 16  1  0  0  0  0
 14 17  1  0  0  0  0
 11 12  1  0  0  0  0
 11 13  1  0  0  0  0
 11 14  1  0  0  0  0
  9 10  1  0  0  0  0
  9 11  1  0  0  0  0
  9 22  1  0  0  0  0
  7  8  1  0  0  0  0
  7  9  1  0  0  0  0
 26 27  1  0  0  0  0
 26 28  1  0  0  0  0
 26 29  1  0  0  0  0
 24 25  1  0  0  0  0
 24 26  1  0  0  0  0
M  END
$$$$
default_name
  -OEChem-02102213163D

 29 28  0     1  0  0  0  0  0999 V2000
   -3.5781   -3.7296    1.2702 H   0  0  0  0  0  0  0  0  0  0  0  0
   -3.5311   -2.7616    0.7732 C   0  0  0  0  0  0  0  0  0  0  0  0
   -4.2371   -2.0766    1.2382 H   0  0  0  0  0  0  0  0  0  0  0  0
   -3.7681   -2.8816   -0.2818 H   0  0  0  0  0  0  0  0  0  0  0  0
   -2.1321   -2.2086    0.9112 C   0  0  0  0  0  0  0  0  0  0  0  0
   -1.2751   -2.8426    1.5112 O   0  0  0  0  0  0  0  0  0  0  0  0
   -1.9041   -1.0186    0.3602 N   0  0  0  0  0  0  0  0  0  0  0  0
   -2.6671   -0.5416   -0.0988 H   0  0  0  0  0  0  0  0  0  0  0  0
   -0.6131   -0.3236    0.3832 C   0  0  1  0  0  0  0  0  0  0  0  0
    0.1346   -0.9625   -0.0894 H   0  0  0  0  0  0  0  0  0  0  0  0
   -0.7253    0.9751   -0.4365 C   0  0  0  0  0  0  0  0  0  0  0  0
   -1.2555    0.7586   -1.3663 H   0  0  0  0  0  0  0  0  0  0  0  0
   -1.3079    1.7062    0.1258 H   0  0  0  0  0  0  0  0  0  0  0  0
    0.6313    1.5960   -0.7888 C   0  0  0  0  0  0  0  0  0  0  0  0
    0.6920    2.5930   -0.3535 H   0  0  0  0  0  0  0  0  0  0  0  0
    1.4213    0.9778   -0.3607 H   0  0  0  0  0  0  0  0  0  0  0  0
    0.9220    1.7421   -2.5703 S   0  0  0  0  0  0  0  0  0  0  0  0
    1.0897   -0.0094   -3.0015 C   0  0  0  0  0  0  0  0  0  0  0  0
    0.1710   -0.5397   -2.7492 H   0  0  0  0  0  0  0  0  0  0  0  0
    1.2752   -0.1019   -4.0720 H   0  0  0  0  0  0  0  0  0  0  0  0
    1.9260   -0.4446   -2.4536 H   0  0  0  0  0  0  0  0  0  0  0  0
   -0.1711   -0.0594    1.8296 C   0  0  0  0  0  0  0  0  0  0  0  0
    0.9865   -0.2908    2.1726 O   0  0  0  0  0  0  0  0  0  0  0  0
   -1.0921    0.4156    2.6780 N   0  0  0  0  0  0  0  0  0  0  0  0
   -2.0168    0.5953    2.3206 H   0  0  0  0  0  0  0  0  0  0  0  0
   -0.8319    0.7034    4.0877 C   0  0  0  0  0  0  0  0  0  0  0  0
   -0.0192    1.4288    4.1710 H   0  0  0  0  0  0  0  0  0  0  0  0
   -1.7255    1.1088    4.5641 H   0  0  0  0  0  0  0  0  0  0  0  0
   -0.5319   -0.2118    4.6011 H   0  0  0  0  0  0  0  0  0  0  0  0
  5  6  2  0  0  0  0
  5  7  1  0  0  0  0
  2  3  1  0  0  0  0
  2  4  1  0  0  0  0
  2  5  1  0  0  0  0
  1  2  1  0  0  0  0
 22 23  2  0  0  0  0
 22 24  1  0  0  0  0
 18 19  1  0  0  0  0
 18 20  1  0  0  0  0
 18 21  1  0  0  0  0
 17 18  1  0  0  0  0
 14 15  1  0  0  0  0
 14 16  1  0  0  0  0
 14 17  1  0  0  0  0
 11 12  1  0  0  0  0
 11 13  1  0  0  0  0
 11 14  1  0  0  0  0
  9 10  1  0  0  0  0
  9 11  1  0  0  0  0
  9 22  1  0  0  0  0
  7  8  1  0  0  0  0
  7  9  1  0  0  0  0
 26 27  1  0  0  0  0
 26 28  1  0  0  0  0
 26 29  1  0  0  0  0
 24 25  1  0  0  0  0
 24 26  1  0  0  0  0
M  END
$$$$
default_name
  -OEChem-02102213163D

 29 28  0     1  0  0  0  0  0999 V2000
   -3.5781   -3.7296    1.2702 H   0  0  0  0  0  0  0  0  0  0  0  0
   -3.5311   -2.7616    0.7732 C   0  0  0  0  0  0  0  0  0  0  0  0
   -4.2371   -2.0766    1.2382 H   0  0  0  0  0  0  0  0  0  0  0  0
   -3.7681   -2.8816   -0.2818 H   0  0  0  0  0  0  0  0  0  0  0  0
   -2.1321   -2.2086    0.9112 C   0  0  0  0  0  0  0  0  0  0  0  0
   -1.2751   -2.8426    1.5112 O   0  0  0  0  0  0  0  0  0  0  0  0
   -1.9041   -1.0186    0.3602 N   0  0  0  0  0  0  0  0  0  0  0  0
   -2.6671   -0.5416   -0.0988 H   0  0  0  0  0  0  0  0  0  0  0  0
   -0.6131   -0.3236    0.3832 C   0  0  1  0  0  0  0  0  0  0  0  0
    0.1346   -0.9625   -0.0894 H   0  0  0  0  0  0  0  0  0  0  0  0
   -0.7253    0.9751   -0.4365 C   0  0  0  0  0  0  0  0  0  0  0  0
   -1.2555    0.7586   -1.3663 H   0  0  0  0  0  0  0  0  0  0  0  0
   -1.3079    1.7062    0.1258 H   0  0  0  0  0  0  0  0  0  0  0  0
    0.6313    1.5960   -0.7888 C   0  0  0  0  0  0  0  0  0  0  0  0
    0.8056    2.4606   -0.1491 H   0  0  0  0  0  0  0  0  0  0  0  0
    1.4130    0.8586   -0.6025 H   0  0  0  0  0  0  0  0  0  0  0  0
    0.7559    2.1379   -2.5123 S   0  0  0  0  0  0  0  0  0  0  0  0
    0.7546    0.5285   -3.3439 C   0  0  0  0  0  0  0  0  0  0  0  0
   -0.1706   -0.0019   -3.1168 H   0  0  0  0  0  0  0  0  0  0  0  0
    0.8273    0.6784   -4.4215 H   0  0  0  0  0  0  0  0  0  0  0  0
    1.6071   -0.0611   -3.0055 H   0  0  0  0  0  0  0  0  0  0  0  0
   -0.1711   -0.0594    1.8296 C   0  0  0  0  0  0  0  0  0  0  0  0
    0.9865   -0.2908    2.1726 O   0  0  0  0  0  0  0  0  0  0  0  0
   -1.0921    0.4156    2.6780 N   0  0  0  0  0  0  0  0  0  0  0  0
   -2.0168    0.5953    2.3206 H   0  0  0  0  0  0  0  0  0  0  0  0
   -0.8319    0.7034    4.0877 C   0  0  0  0  0  0  0  0  0  0  0  0
   -0.0192    1.4288    4.1710 H   0  0  0  0  0  0  0  0  0  0  0  0
   -1.7255    1.1088    4.5641 H   0  0  0  0  0  0  0  0  0  0  0  0
   -0.5319   -0.2118    4.6011 H   0  0  0  0  0  0  0  0  0  0  0  0
  5  6  2  0  0  0  0
  5  7  1  0  0  0  0
  2  3  1  0  0  0  0
  2  4  1  0  0  0  0
  2  5  1  0  0  0  0
  1  2  1  0  0  0  0
 22 23  2  0  0  0  0
 22 24  1  0  0  0  0
 18 19  1  0  0  0  0
 18 20  1  0  0  0  0
 18 21  1  0  0  0  0
 17 18  1  0  0  0  0
 14 15  1  0  0  0  0
 14 16  1  0  0  0  0
 14 17  1  0  0  0  0
 11 12  1  0  0  0  0
 11 13  1  0  0  0  0
 11 14  1  0  0  0  0
  9 10  1  0  0  0  0
  9 11  1  0  0  0  0
  9 22  1  0  0  0  0
  7  8  1  0  0  0  0
  7  9  1  0  0  0  0
 26 27  1  0  0  0  0
 26 28  1  0  0  0  0
 26 29  1  0  0  0  0
 24 25  1  0  0  0  0
 24 26  1  0  0  0  0
M  END
$$$$
default_name
  -OEChem-02102213163D

 29 28  0     1  0  0  0  0  0999 V2000
   -3.5781   -3.7296    1.2702 H   0  0  0  0  0  0  0  0  0  0  0  0
   -3.5311   -2.7616    0.7732 C   0  0  0  0  0  0  0  0  0  0  0  0
   -4.2371   -2.0766    1.2382 H   0  0  0  0  0  0  0  0  0  0  0  0
   -3.7681   -2.8816   -0.2818 H   0  0  0  0  0  0  0  0  0  0  0  0
   -2.1321   -2.2086    0.9112 C   0  0  0  0  0  0  0  0  0  0  0  0
   -1.2751   -2.8426    1.5112 O   0  0  0  0  0  0  0  0  0  0  0  0
   -1.9041   -1.0186    0.3602 N   0  0  0  0  0  0  0  0  0  0  0  0
   -2.6671   -0.5416   -0.0988 H   0  0  0  0  0  0  0  0  0  0  0  0
   -0.6131   -0.3236    0.3832 C   0  0  1  0  0  0  0  0  0  0  0  0
    0.1346   -0.9625   -0.0894 H   0  0  0  0  0  0  0  0  0  0  0  0
   -0.7253    0.9751   -0.4365 C   0  0  0  0  0  0  0  0  0  0  0  0
   -1.2555    0.7586   -1.3663 H   0  0  0  0  0  0  0  0  0  0  0  0
   -1.3079    1.7062    0.1258 H   0  0  0  0  0  0  0  0  0  0  0  0
    0.6313    1.5960   -0.7888 C   0  0  0  0  0  0  0  0  0  0  0  0
    0.9290    2.2792    0.0060 H   0  0  0  0  0  0  0  0  0  0  0  0
    1.3726    0.7994   -0.8624 H   0  0  0  0  0  0  0  0  0  0  0  0
    0.6251    2.5168   -2.3482 S   0  0  0  0  0  0  0  0  0  0  0  0
    0.4270    1.1464   -3.5163 C   0  0  0  0  0  0  0  0  0  0  0  0
   -0.5072    0.6221   -3.3130 H   0  0  0  0  0  0  0  0  0  0  0  0
    0.4044    1.5388   -4.5334 H   0  0  0  0  0  0  0  0  0  0  0  0
    1.2641    0.4547   -3.4173 H   0  0  0  0  0  0  0  0  0  0  0  0
   -0.1711   -0.0594    1.8296 C   0  0  0  0  0  0  0  0  0  0  0  0
    0.9865   -0.2908    2.1726 O   0  0  0  0  0  0  0  0  0  0  0  0
   -1.0921    0.4156    2.6780 N   0  0  0  0  0  0  0  0  0  0  0  0
   -2.0168    0.5953    2.3206 H   0  0  0  0  0  0  0  0  0  0  0  0
   -0.8319    0.7034    4.0877 C   0  0  0  0  0  0  0  0  0  0  0  0
   -0.0192    1.4288    4.1710 H   0  0  0  0  0  0  0  0  0  0  0  0
   -1.7255    1.1088    4.5641 H   0  0  0  0  0  0  0  0  0  0  0  0
   -0.5319   -0.2118    4.6011 H   0  0  0  0  0  0  0  0  0  0  0  0
  5  6  2  0  0  0  0
  5  7  1  0  0  0  0
  2  3  1  0  0  0  0
  2  4  1  0  0  0  0
  2  5  1  0  0  0  0
  1  2  1  0  0  0  0
 22 23  2  0  0  0  0
 22 24  1  0  0  0  0
 18 19  1  0  0  0  0
 18 20  1  0  0  0  0
 18 21  1  0  0  0  0
 17 18  1  0  0  0  0
 14 15  1  0  0  0  0
 14 16  1  0  0  0  0
 14 17  1  0  0  0  0
 11 12  1  0  0  0  0
 11 13  1  0  0  0  0
 11 14  1  0  0  0  0
  9 10  1  0  0  0  0
  9 11  1  0  0  0  0
  9 22  1  0  0  0  0
  7  8  1  0  0  0  0
  7  9  1  0  0  0  0
 26 27  1  0  0  0  0
 26 28  1  0  0  0  0
 26 29  1  0  0  0  0
 24 25  1  0  0  0  0
 24 26  1  0  0  0  0
M  END
$$$$
default_name
  -OEChem-02102213163D

 29 28  0     1  0  0  0  0  0999 V2000
   -3.5781   -3.7296    1.2702 H   0  0  0  0  0  0  0  0  0  0  0  0
   -3.5311   -2.7616    0.7732 C   0  0  0  0  0  0  0  0  0  0  0  0
   -4.2371   -2.0766    1.2382 H   0  0  0  0  0  0  0  0  0  0  0  0
   -3.7681   -2.8816   -0.2818 H   0  0  0  0  0  0  0  0  0  0  0  0
   -2.1321   -2.2086    0.9112 C   0  0  0  0  0  0  0  0  0  0  0  0
   -1.2751   -2.8426    1.5112 O   0  0  0  0  0  0  0  0  0  0  0  0
   -1.9041   -1.0186    0.3602 N   0  0  0  0  0  0  0  0  0  0  0  0
   -2.6671   -0.5416   -0.0988 H   0  0  0  0  0  0  0  0  0  0  0  0
   -0.6131   -0.3236    0.3832 C   0  0  1  0  0  0  0  0  0  0  0  0
    0.1346   -0.9625   -0.0894 H   0  0  0  0  0  0  0  0  0  0  0  0
   -0.7253    0.9751   -0.4365 C   0  0  0  0  0  0  0  0  0  0  0  0
   -1.2555    0.7586   -1.3663 H   0  0  0  0  0  0  0  0  0  0  0  0
   -1.3079    1.7062    0.1258 H   0  0  0  0  0  0  0  0  0  0  0  0
    0.6313    1.5960   -0.7888 C   0  0  0  0  0  0  0  0  0  0  0  0
    1.0536    2.0611    0.1014 H   0  0  0  0  0  0  0  0  0  0  0  0
    1.3028    0.8041   -1.1228 H   0  0  0  0  0  0  0  0  0  0  0  0
    0.5385    2.8530   -2.0892 S   0  0  0  0  0  0  0  0  0  0  0  0
    0.1293    1.8022   -3.5070 C   0  0  0  0  0  0  0  0  0  0  0  0
   -0.8157    1.2898   -3.3243 H   0  0  0  0  0  0  0  0  0  0  0  0
    0.0354    2.4207   -4.4001 H   0  0  0  0  0  0  0  0  0  0  0  0
    0.9202    1.0677   -3.6609 H   0  0  0  0  0  0  0  0  0  0  0  0
   -0.1711   -0.0594    1.8296 C   0  0  0  0  0  0  0  0  0  0  0  0
    0.9865   -0.2908    2.1726 O   0  0  0  0  0  0  0  0  0  0  0  0
   -1.0921    0.4156    2.6780 N   0  0  0  0  0  0  0  0  0  0  0  0
   -2.0168    0.5953    2.3206 H   0  0  0  0  0  0  0  0  0  0  0  0
   -0.8319    0.7034    4.0877 C   0  0  0  0  0  0  0  0  0  0  0  0
   -0.0192    1.4288    4.1710 H   0  0  0  0  0  0  0  0  0  0  0  0
   -1.7255    1.1088    4.5641 H   0  0  0  0  0  0  0  0  0  0  0  0
   -0.5319   -0.2118    4.6011 H   0  0  0  0  0  0  0  0  0  0  0  0
  5  6  2  0  0  0  0
  5  7  1  0  0  0  0
  2  3  1  0  0  0  0
  2  4  1  0  0  0  0
  2  5  1  0  0  0  0
  1  2  1  0  0  0  0
 22 23  2  0  0  0  0
 22 24  1  0  0  0  0
 18 19  1  0  0  0  0
 18 20  1  0  0  0  0
 18 21  1  0  0  0  0
 17 18  1  0  0  0  0
 14 15  1  0  0  0  0
 14 16  1  0  0  0  0
 14 17  1  0  0  0  0
 11 12  1  0  0  0  0
 11 13  1  0  0  0  0
 11 14  1  0  0  0  0
  9 10  1  0  0  0  0
  9 11  1  0  0  0  0
  9 22  1  0  0  0  0
  7  8  1  0  0  0  0
  7  9  1  0  0  0  0
 26 27  1  0  0  0  0
 26 28  1  0  0  0  0
 26 29  1  0  0  0  0
 24 25  1  0  0  0  0
 24 26  1  0  0  0  0
M  END
$$$$
default_name
  -OEChem-02102213163D

 29 28  0     1  0  0  0  0  0999 V2000
   -3.5781   -3.7296    1.2702 H   0  0  0  0  0  0  0  0  0  0  0  0
   -3.5311   -2.7616    0.7732 C   0  0  0  0  0  0  0  0  0  0  0  0
   -4.2371   -2.0766    1.2382 H   0  0  0  0  0  0  0  0  0  0  0  0
   -3.7681   -2.8816   -0.2818 H   0  0  0  0  0  0  0  0  0  0  0  0
   -2.1321   -2.2086    0.9112 C   0  0  0  0  0  0  0  0  0  0  0  0
   -1.2751   -2.8426    1.5112 O   0  0  0  0  0  0  0  0  0  0  0  0
   -1.9041   -1.0186    0.3602 N   0  0  0  0  0  0  0  0  0  0  0  0
   -2.6671   -0.5416   -0.0988 H   0  0  0  0  0  0  0  0  0  0  0  0
   -0.6131   -0.3236    0.3832 C   0  0  1  0  0  0  0  0  0  0  0  0
    0.1346   -0.9625   -0.0894 H   0  0  0  0  0  0  0  0  0  0  0  0
   -0.7253    0.9751   -0.4365 C   0  0  0  0  0  0  0  0  0  0  0  0
   -1.4711    0.8315   -1.2212 H   0  0  0  0  0  0  0  0  0  0  0  0
   -1.0654    1.7825    0.2135 H   0  0  0  0  0  0  0  0  0  0  0  0
    0.5922    1.3989   -1.0958 C   0  0  0  0  0  0  0  0  0  0  0  0
    1.3460    1.5496   -0.3236 H   0  0  0  0  0  0  0  0  0  0  0  0
    0.9248    0.5997   -1.7592 H   0  0  0  0  0  0  0  0  0  0  0  0
    0.4629    2.9260   -2.0605 S   0  0  0  0  0  0  0  0  0  0  0  0
   -0.5711    2.3416   -3.4284 C   0  0  0  0  0  0  0  0  0  0  0  0
   -1.5261    1.9853   -3.0412 H   0  0  0  0  0  0  0  0  0  0  0  0
   -0.7493    3.1628   -4.1232 H   0  0  0  0  0  0  0  0  0  0  0  0
   -0.0636    1.5316   -3.9530 H   0  0  0  0  0  0  0  0  0  0  0  0
   -0.1711   -0.0594    1.8296 C   0  0  0  0  0  0  0  0  0  0  0  0
    0.9865   -0.2908    2.1726 O   0  0  0  0  0  0  0  0  0  0  0  0
   -1.0921    0.4156    2.6780 N   0  0  0  0  0  0  0  0  0  0  0  0
   -2.0168    0.5953    2.3206 H   0  0  0  0  0  0  0  0  0  0  0  0
   -0.8319    0.7034    4.0877 C   0  0  0  0  0  0  0  0  0  0  0  0
   -0.0192    1.4288    4.1710 H   0  0  0  0  0  0  0  0  0  0  0  0
   -1.7255    1.1088    4.5641 H   0  0  0  0  0  0  0  0  0  0  0  0
   -0.5319   -0.2118    4.6011 H   0  0  0  0  0  0  0  0  0  0  0  0
  5  6  2  0  0  0  0
  5  7  1  0  0  0  0
  2  3  1  0  0  0  0
  2  4  1  0  0  0  0
  2  5  1  0  0  0  0
  1  2  1  0  0  0  0
 22 23  2  0  0  0  0
 22 24  1  0  0  0  0
 18 19  1  0  0  0  0
 18 20  1  0  0  0  0
 18 21  1  0  0  0  0
 17 18  1  0  0  0  0
 14 15  1  0  0  0  0
 14 16  1  0  0  0  0
 14 17  1  0  0  0  0
 11 12  1  0  0  0  0
 11 13  1  0  0  0  0
 11 14  1  0  0  0  0
  9 10  1  0  0  0  0
  9 11  1  0  0  0  0
  9 22  1  0  0  0  0
  7  8  1  0  0  0  0
  7  9  1  0  0  0  0
 26 27  1  0  0  0  0
 26 28  1  0  0  0  0
 26 29  1  0  0  0  0
 24 25  1  0  0  0  0
 24 26  1  0  0  0  0
M  END
$$$$
default_name
  -OEChem-02102213163D

 29 28  0     1  0  0  0  0  0999 V2000
   -3.5781   -3.7296    1.2702 H   0  0  0  0  0  0  0  0  0  0  0  0
   -3.5311   -2.7616    0.7732 C   0  0  0  0  0  0  0  0  0  0  0  0
   -4.2371   -2.0766    1.2382 H   0  0  0  0  0  0  0  0  0  0  0  0
   -3.7681   -2.8816   -0.2818 H   0  0  0  0  0  0  0  0  0  0  0  0
   -2.1321   -2.2086    0.9112 C   0  0  0  0  0  0  0  0  0  0  0  0
   -1.2751   -2.8426    1.5112 O   0  0  0  0  0  0  0  0  0  0  0  0
   -1.9041   -1.0186    0.3602 N   0  0  0  0  0  0  0  0  0  0  0  0
   -2.6671   -0.5416   -0.0988 H   0  0  0  0  0  0  0  0  0  0  0  0
   -0.6131   -0.3236    0.3832 C   0  0  1  0  0  0  0  0  0  0  0  0
    0.1346   -0.9625   -0.0894 H   0  0  0  0  0  0  0  0  0  0  0  0
   -0.7253    0.9751   -0.4365 C   0  0  0  0  0  0  0  0  0  0  0  0
   -1.4711    0.8315   -1.2212 H   0  0  0  0  0  0  0  0  0  0  0  0
   -1.0654    1.7825    0.2135 H   0  0  0  0  0  0  0  0  0  0  0  0
    0.5922    1.3989   -1.0958 C   0  0  0  0  0  0  0  0  0  0  0  0
    1.4028    1.2922   -0.3755 H   0  0  0  0  0  0  0  0  0  0  0  0
    0.7874    0.7408   -1.9433 H   0  0  0  0  0  0  0  0  0  0  0  0
    0.5895    3.1098   -1.6893 S   0  0  0  0  0  0  0  0  0  0  0  0
   -0.5857    2.9603   -3.0598 C   0  0  0  0  0  0  0  0  0  0  0  0
   -1.5519    2.6261   -2.6809 H   0  0  0  0  0  0  0  0  0  0  0  0
   -0.7052    3.9314   -3.5410 H   0  0  0  0  0  0  0  0  0  0  0  0
   -0.2104    2.2422   -3.7895 H   0  0  0  0  0  0  0  0  0  0  0  0
   -0.1711   -0.0594    1.8296 C   0  0  0  0  0  0  0  0  0  0  0  0
    0.9865   -0.2908    2.1726 O   0  0  0  0  0  0  0  0  0  0  0  0
   -1.0921    0.4156    2.6780 N   0  0  0  0  0  0  0  0  0  0  0  0
   -2.0168    0.5953    2.3206 H   0  0  0  0  0  0  0  0  0  0  0  0
   -0.8319    0.7034    4.0877 C   0  0  0  0  0  0  0  0  0  0  0  0
   -0.0192    1.4288    4.1710 H   0  0  0  0  0  0  0  0  0  0  0  0
   -1.7255    1.1088    4.5641 H   0  0  0  0  0  0  0  0  0  0  0  0
   -0.5319   -0.2118    4.6011 H   0  0  0  0  0  0  0  0  0  0  0  0
  5  6  2  0  0  0  0
  5  7  1  0  0  0  0
  2  3  1  0  0  0  0
  2  4  1  0  0  0  0
  2  5  1  0  0  0  0
  1  2  1  0  0  0  0
 22 23  2  0  0  0  0
 22 24  1  0  0  0  0
 18 19  1  0  0  0  0
 18 20  1  0  0  0  0
 18 21  1  0  0  0  0
 17 18  1  0  0  0  0
 14 15  1  0  0  0  0
 14 16  1  0  0  0  0
 14 17  1  0  0  0  0
 11 12  1  0  0  0  0
 11 13  1  0  0  0  0
 11 14  1  0  0  0  0
  9 10  1  0  0  0  0
  9 11  1  0  0  0  0
  9 22  1  0  0  0  0
  7  8  1  0  0  0  0
  7  9  1  0  0  0  0
 26 27  1  0  0  0  0
 26 28  1  0  0  0  0
 26 29  1  0  0  0  0
 24 25  1  0  0  0  0
 24 26  1  0  0  0  0
M  END
$$$$
default_name
  -OEChem-02102213163D

 29 28  0     1  0  0  0  0  0999 V2000
   -3.5781   -3.7296    1.2702 H   0  0  0  0  0  0  0  0  0  0  0  0
   -3.5311   -2.7616    0.7732 C   0  0  0  0  0  0  0  0  0  0  0  0
   -4.2371   -2.0766    1.2382 H   0  0  0  0  0  0  0  0  0  0  0  0
   -3.7681   -2.8816   -0.2818 H   0  0  0  0  0  0  0  0  0  0  0  0
   -2.1321   -2.2086    0.9112 C   0  0  0  0  0  0  0  0  0  0  0  0
   -1.2751   -2.8426    1.5112 O   0  0  0  0  0  0  0  0  0  0  0  0
   -1.9041   -1.0186    0.3602 N   0  0  0  0  0  0  0  0  0  0  0  0
   -2.6671   -0.5416   -0.0988 H   0  0  0  0  0  0  0  0  0  0  0  0
   -0.6131   -0.3236    0.3832 C   0  0  1  0  0  0  0  0  0  0  0  0
    0.1346   -0.9625   -0.0894 H   0  0  0  0  0  0  0  0  0  0  0  0
   -0.7253    0.9751   -0.4365 C   0  0  0  0  0  0  0  0  0  0  0  0
   -1.4711    0.8315   -1.2212 H   0  0  0  0  0  0  0  0  0  0  0  0
   -1.0654    1.7825    0.2135 H   0  0  0  0  0  0  0  0  0  0  0  0
    0.5922    1.3989   -1.0958 C   0  0  0  0  0  0  0  0  0  0  0  0
    1.4253    1.0487   -0.4870 H   0  0  0  0  0  0  0  0  0  0  0  0
    0.6571    0.9333   -2.0799 H   0  0  0  0  0  0  0  0  0  0  0  0
    0.7588    3.1907   -1.2989 S   0  0  0  0  0  0  0  0  0  0  0  0
   -0.5045    3.4776   -2.5652 C   0  0  0  0  0  0  0  0  0  0  0  0
   -1.4797    3.1678   -2.1884 H   0  0  0  0  0  0  0  0  0  0  0  0
   -0.5354    4.5394   -2.8109 H   0  0  0  0  0  0  0  0  0  0  0  0
   -0.2613    2.9086   -3.4630 H   0  0  0  0  0  0  0  0  0  0  0  0
   -0.1711   -0.0594    1.8296 C   0  0  0  0  0  0  0  0  0  0  0  0
    0.9865   -0.2908    2.1726 O   0  0  0  0  0  0  0  0  0  0  0  0
   -1.0921    0.4156    2.6780 N   0  0  0  0  0  0  0  0  0  0  0  0
   -2.0168    0.5953    2.3206 H   0  0  0  0  0  0  0  0  0  0  0  0
   -0.8319    0.7034    4.0877 C   0  0  0  0  0  0  0  0  0  0  0  0
   -0.0192    1.4288    4.1710 H   0  0  0  0  0  0  0  0  0  0  0  0
   -1.7255    1.1088    4.5641 H   0  0  0  0  0  0  0  0  0  0  0  0
   -0.5319   -0.2118    4.6011 H   0  0  0  0  0  0  0  0  0  0  0  0
  5  6  2  0  0  0  0
  5  7  1  0  0  0  0
  2  3  1  0  0  0  0
  2  4  1  0  0  0  0
  2  5  1  0  0  0  0
  1  2  1  0  0  0  0
 22 23  2  0  0  0  0
 22 24  1  0  0  0  0
 18 19  1  0  0  0  0
 18 20  1  0  0  0  0
 18 21  1  0  0  0  0
 17 18  1  0  0  0  0
 14 15  1  0  0  0  0
 14 16  1  0  0  0  0
 14 17  1  0  0  0  0
 11 12  1  0  0  0  0
 11 13  1  0  0  0  0
 11 14  1  0  0  0  0
  9 10  1  0  0  0  0
  9 11  1  0  0  0  0
  9 22  1  0  0  0  0
  7  8  1  0  0  0  0
  7  9  1  0  0  0  0
 26 27  1  0  0  0  0
 26 28  1  0  0  0  0
 26 29  1  0  0  0  0
 24 25  1  0  0  0  0
 24 26  1  0  0  0  0
M  END
$$$$
default_name
  -OEChem-02102213163D

 29 28  0     1  0  0  0  0  0999 V2000
   -3.5781   -3.7296    1.2702 H   0  0  0  0  0  0  0  0  0  0  0  0
   -3.5311   -2.7616    0.7732 C   0  0  0  0  0  0  0  0  0  0  0  0
   -4.2371   -2.0766    1.2382 H   0  0  0  0  0  0  0  0  0  0  0  0
   -3.7681   -2.8816   -0.2818 H   0  0  0  0  0  0  0  0  0  0  0  0
   -2.1321   -2.2086    0.9112 C   0  0  0  0  0  0  0  0  0  0  0  0
   -1.2751   -2.8426    1.5112 O   0  0  0  0  0  0  0  0  0  0  0  0
   -1.9041   -1.0186    0.3602 N   0  0  0  0  0  0  0  0  0  0  0  0
   -2.6671   -0.5416   -0.0988 H   0  0  0  0  0  0  0  0  0  0  0  0
   -0.6131   -0.3236    0.3832 C   0  0  1  0  0  0  0  0  0  0  0  0
    0.1346   -0.9625   -0.0894 H   0  0  0  0  0  0  0  0  0  0  0  0
   -0.7253    0.9751   -0.4365 C   0  0  0  0  0  0  0  0  0  0  0  0
   -1.4711    0.8315   -1.2212 H   0  0  0  0  0  0  0  0  0  0  0  0
   -1.0654    1.7825    0.2135 H   0  0  0  0  0  0  0  0  0  0  0  0
    0.5922    1.3989   -1.0958 C   0  0  0  0  0  0  0  0  0  0  0  0
    1.4120    0.8359   -0.6505 H   0  0  0  0  0  0  0  0  0  0  0  0
    0.5429    1.1642   -2.1597 H   0  0  0  0  0  0  0  0  0  0  0  0
    0.9593    3.1631   -0.9160 S   0  0  0  0  0  0  0  0  0  0  0  0
   -0.3332    3.8582   -1.9781 C   0  0  0  0  0  0  0  0  0  0  0  0
   -1.3145    3.5734   -1.5974 H   0  0  0  0  0  0  0  0  0  0  0  0
   -0.2515    4.9454   -1.9825 H   0  0  0  0  0  0  0  0  0  0  0  0
   -0.2130    3.4854   -2.9957 H   0  0  0  0  0  0  0  0  0  0  0  0
   -0.1711   -0.0594    1.8296 C   0  0  0  0  0  0  0  0  0  0  0  0
    0.9865   -0.2908    2.1726 O   0  0  0  0  0  0  0  0  0  0  0  0
   -1.0921    0.4156    2.6780 N   0  0  0  0  0  0  0  0  0  0  0  0
   -2.0168    0.5953    2.3206 H   0  0  0  0  0  0  0  0  0  0  0  0
   -0.8319    0.7034    4.0877 C   0  0  0  0  0  0  0  0  0  0  0  0
   -0.0192    1.4288    4.1710 H   0  0  0  0  0  0  0  0  0  0  0  0
   -1.7255    1.1088    4.5641 H   0  0  0  0  0  0  0  0  0  0  0  0
   -0.5319   -0.2118    4.6011 H   0  0  0  0  0  0  0  0  0  0  0  0
  5  6  2  0  0  0  0
  5  7  1  0  0  0  0
  2  3  1  0  0  0  0
  2  4  1  0  0  0  0
  2  5  1  0  0  0  0
  1  2  1  0  0  0  0
 22 23  2  0  0  0  0
 22 24  1  0  0  0  0
 18 19  1  0  0  0  0
 18 20  1  0  0  0  0
 18 21  1  0  0  0  0
 17 18  1  0  0  0  0
 14 15  1  0  0  0  0
 14 16  1  0  0  0  0
 14 17  1  0  0  0  0
 11 12  1  0  0  0  0
 11 13  1  0  0  0  0
 11 14  1  0  0  0  0
  9 10  1  0  0  0  0
  9 11  1  0  0  0  0
  9 22  1  0  0  0  0
  7  8  1  0  0  0  0
  7  9  1  0  0  0  0
 26 27  1  0  0  0  0
 26 28  1  0  0  0  0
 26 29  1  0  0  0  0
 24 25  1  0  0  0  0
 24 26  1  0  0  0  0
M  END
$$$$
default_name
  -OEChem-02102213163D

 29 28  0     1  0  0  0  0  0999 V2000
   -3.5781   -3.7296    1.2702 H   0  0  0  0  0  0  0  0  0  0  0  0
   -3.5311   -2.7616    0.7732 C   0  0  0  0  0  0  0  0  0  0  0  0
   -4.2371   -2.0766    1.2382 H   0  0  0  0  0  0  0  0  0  0  0  0
   -3.7681   -2.8816   -0.2818 H   0  0  0  0  0  0  0  0  0  0  0  0
   -2.1321   -2.2086    0.9112 C   0  0  0  0  0  0  0  0  0  0  0  0
   -1.2751   -2.8426    1.5112 O   0  0  0  0  0  0  0  0  0  0  0  0
   -1.9041   -1.0186    0.3602 N   0  0  0  0  0  0  0  0  0  0  0  0
   -2.6671   -0.5416   -0.0988 H   0  0  0  0  0  0  0  0  0  0  0  0
   -0.6131   -0.3236    0.3832 C   0  0  1  0  0  0  0  0  0  0  0  0
    0.1346   -0.9625   -0.0894 H   0  0  0  0  0  0  0  0  0  0  0  0
   -0.7253    0.9751   -0.4365 C   0  0  0  0  0  0  0  0  0  0  0  0
   -1.4711    0.8315   -1.2212 H   0  0  0  0  0  0  0  0  0  0  0  0
   -1.0654    1.7825    0.2135 H   0  0  0  0  0  0  0  0  0  0  0  0
    0.5922    1.3989   -1.0958 C   0  0  0  0  0  0  0  0  0  0  0  0
    1.3637    0.6682   -0.8548 H   0  0  0  0  0  0  0  0  0  0  0  0
    0.4526    1.4176   -2.1772 H   0  0  0  0  0  0  0  0  0  0  0  0
    1.1773    3.0290   -0.5666 S   0  0  0  0  0  0  0  0  0  0  0  0
   -0.0833    4.0761   -1.3386 C   0  0  0  0  0  0  0  0  0  0  0  0
   -1.0674    3.8154   -0.9481 H   0  0  0  0  0  0  0  0  0  0  0  0
    0.1272    5.1217   -1.1123 H   0  0  0  0  0  0  0  0  0  0  0  0
   -0.0687    3.9331   -2.4195 H   0  0  0  0  0  0  0  0  0  0  0  0
   -0.1711   -0.0594    1.8296 C   0  0  0  0  0  0  0  0  0  0  0  0
    0.9865   -0.2908    2.1726 O   0  0  0  0  0  0  0  0  0  0  0  0
   -1.0921    0.4156    2.6780 N   0  0  0  0  0  0  0  0  0  0  0  0
   -2.0168    0.5953    2.3206 H   0  0  0  0  0  0  0  0  0  0  0  0
   -0.8319    0.7034    4.0877 C   0  0  0  0  0  0  0  0  0  0  0  0
   -0.0192    1.4288    4.1710 H   0  0  0  0  0  0  0  0  0  0  0  0
   -1.7255    1.1088    4.5641 H   0  0  0  0  0  0  0  0  0  0  0  0
   -0.5319   -0.2118    4.6011 H   0  0  0  0  0  0  0  0  0  0  0  0
  5  6  2  0  0  0  0
  5  7  1  0  0  0  0
  2  3  1  0  0  0  0
  2  4  1  0  0  0  0
  2  5  1  0  0  0  0
  1  2  1  0  0  0  0
 22 23  2  0  0  0  0
 22 24  1  0  0  0  0
 18 19  1  0  0  0  0
 18 20  1  0  0  0  0
 18 21  1  0  0  0  0
 17 18  1  0  0  0  0
 14 15  1  0  0  0  0
 14 16  1  0  0  0  0
 14 17  1  0  0  0  0
 11 12  1  0  0  0  0
 11 13  1  0  0  0  0
 11 14  1  0  0  0  0
  9 10  1  0  0  0  0
  9 11  1  0  0  0  0
  9 22  1  0  0  0  0
  7  8  1  0  0  0  0
  7  9  1  0  0  0  0
 26 27  1  0  0  0  0
 26 28  1  0  0  0  0
 26 29  1  0  0  0  0
 24 25  1  0  0  0  0
 24 26  1  0  0  0  0
M  END
$$$$
default_name
  -OEChem-02102213163D

 29 28  0     1  0  0  0  0  0999 V2000
   -3.5781   -3.7296    1.2702 H   0  0  0  0  0  0  0  0  0  0  0  0
   -3.5311   -2.7616    0.7732 C   0  0  0  0  0  0  0  0  0  0  0  0
   -4.2371   -2.0766    1.2382 H   0  0  0  0  0  0  0  0  0  0  0  0
   -3.7681   -2.8816   -0.2818 H   0  0  0  0  0  0  0  0  0  0  0  0
   -2.1321   -2.2086    0.9112 C   0  0  0  0  0  0  0  0  0  0  0  0
   -1.2751   -2.8426    1.5112 O   0  0  0  0  0  0  0  0  0  0  0  0
   -1.9041   -1.0186    0.3602 N   0  0  0  0  0  0  0  0  0  0  0  0
   -2.6671   -0.5416   -0.0988 H   0  0  0  0  0  0  0  0  0  0  0  0
   -0.6131   -0.3236    0.3832 C   0  0  1  0  0  0  0  0  0  0  0  0
    0.1346   -0.9625   -0.0894 H   0  0  0  0  0  0  0  0  0  0  0  0
   -0.7253    0.9751   -0.4365 C   0  0  0  0  0  0  0  0  0  0  0  0
   -1.4711    0.8315   -1.2212 H   0  0  0  0  0  0  0  0  0  0  0  0
   -1.0654    1.7825    0.2135 H   0  0  0  0  0  0  0  0  0  0  0  0
    0.5922    1.3989   -1.0958 C   0  0  0  0  0  0  0  0  0  0  0  0
    1.2838    0.5570   -1.0860 H   0  0  0  0  0  0  0  0  0  0  0  0
    0.3923    1.6764   -2.1313 H   0  0  0  0  0  0  0  0  0  0  0  0
    1.3979    2.7974   -0.2745 S   0  0  0  0  0  0  0  0  0  0  0  0
    0.2281    4.1166   -0.6904 C   0  0  0  0  0  0  0  0  0  0  0  0
   -0.7554    3.8772   -0.2848 H   0  0  0  0  0  0  0  0  0  0  0  0
    0.5749    5.0563   -0.2597 H   0  0  0  0  0  0  0  0  0  0  0  0
    0.1617    4.2214   -1.7736 H   0  0  0  0  0  0  0  0  0  0  0  0
   -0.1711   -0.0594    1.8296 C   0  0  0  0  0  0  0  0  0  0  0  0
    0.9865   -0.2908    2.1726 O   0  0  0  0  0  0  0  0  0  0  0  0
   -1.0921    0.4156    2.6780 N   0  0  0  0  0  0  0  0  0  0  0  0
   -2.0168    0.5953    2.3206 H   0  0  0  0  0  0  0  0  0  0  0  0
   -0.8319    0.7034    4.0877 C   0  0  0  0  0  0  0  0  0  0  0  0
   -0.0192    1.4288    4.1710 H   0  0  0  0  0  0  0  0  0  0  0  0
   -1.7255    1.1088    4.5641 H   0  0  0  0  0  0  0  0  0  0  0  0
   -0.5319   -0.2118    4.6011 H   0  0  0  0  0  0  0  0  0  0  0  0
  5  6  2  0  0  0  0
  5  7  1  0  0  0  0
  2  3  1  0  0  0  0
  2  4  1  0  0  0  0
  2  5  1  0  0  0  0
  1  2  1  0  0  0  0
 22 23  2  0  0  0  0
 22 24  1  0  0  0  0
 18 19  1  0  0  0  0
 18 20  1  0  0  0  0
 18 21  1  0  0  0  0
 17 18  1  0  0  0  0
 14 15  1  0  0  0  0
 14 16  1  0  0  0  0
 14 17  1  0  0  0  0
 11 12  1  0  0  0  0
 11 13  1  0  0  0  0
 11 14  1  0  0  0  0
  9 10  1  0  0  0  0
  9 11  1  0  0  0  0
  9 22  1  0  0  0  0
  7  8  1  0  0  0  0
  7  9  1  0  0  0  0
 26 27  1  0  0  0  0
 26 28  1  0  0  0  0
 26 29  1  0  0  0  0
 24 25  1  0  0  0  0
 24 26  1  0  0  0  0
M  END
$$$$
default_name
  -OEChem-02102213163D

 29 28  0     1  0  0  0  0  0999 V2000
   -3.5781   -3.7296    1.2702 H   0  0  0  0  0  0  0  0  0  0  0  0
   -3.5311   -2.7616    0.7732 C   0  0  0  0  0  0  0  0  0  0  0  0
   -4.2371   -2.0766    1.2382 H   0  0  0  0  0  0  0  0  0  0  0  0
   -3.7681   -2.8816   -0.2818 H   0  0  0  0  0  0  0  0  0  0  0  0
   -2.1321   -2.2086    0.9112 C   0  0  0  0  0  0  0  0  0  0  0  0
   -1.2751   -2.8426    1.5112 O   0  0  0  0  0  0  0  0  0  0  0  0
   -1.9041   -1.0186    0.3602 N   0  0  0  0  0  0  0  0  0  0  0  0
   -2.6671   -0.5416   -0.0988 H   0  0  0  0  0  0  0  0  0  0  0  0
   -0.6131   -0.3236    0.3832 C   0  0  1  0  0  0  0  0  0  0  0  0
    0.1346   -0.9625   -0.0894 H   0  0  0  0  0  0  0  0  0  0  0  0
   -0.7253    0.9751   -0.4365 C   0  0  0  0  0  0  0  0  0  0  0  0
   -1.4711    0.8315   -1.2212 H   0  0  0  0  0  0  0  0  0  0  0  0
   -1.0654    1.7825    0.2135 H   0  0  0  0  0  0  0  0  0  0  0  0
    0.5922    1.3989   -1.0958 C   0  0  0  0  0  0  0  0  0  0  0  0
    1.1777    0.5099   -1.3283 H   0  0  0  0  0  0  0  0  0  0  0  0
    0.3662    1.9228   -2.0251 H   0  0  0  0  0  0  0  0  0  0  0  0
    1.6062    2.4843   -0.0596 S   0  0  0  0  0  0  0  0  0  0  0  0
    0.5797    3.9769   -0.0775 C   0  0  0  0  0  0  0  0  0  0  0  0
   -0.3997    3.7546    0.3473 H   0  0  0  0  0  0  0  0  0  0  0  0
    1.0611    4.7536    0.5173 H   0  0  0  0  0  0  0  0  0  0  0  0
    0.4626    4.3305   -1.1022 H   0  0  0  0  0  0  0  0  0  0  0  0
   -0.1711   -0.0594    1.8296 C   0  0  0  0  0  0  0  0  0  0  0  0
    0.9865   -0.2908    2.1726 O   0  0  0  0  0  0  0  0  0  0  0  0
   -1.0921    0.4156    2.6780 N   0  0  0  0  0  0  0  0  0  0  0  0
   -2.0168    0.5953    2.3206 H   0  0  0  0  0  0  0  0  0  0  0  0
   -0.8319    0.7034    4.0877 C   0  0  0  0  0  0  0  0  0  0  0  0
   -0.0192    1.4288    4.1710 H   0  0  0  0  0  0  0  0  0  0  0  0
   -1.7255    1.1088    4.5641 H   0  0  0  0  0  0  0  0  0  0  0  0
   -0.5319   -0.2118    4.6011 H   0  0  0  0  0  0  0  0  0  0  0  0
  5  6  2  0  0  0  0
  5  7  1  0  0  0  0
  2  3  1  0  0  0  0
  2  4  1  0  0  0  0
  2  5  1  0  0  0  0
  1  2  1  0  0  0  0
 22 23  2  0  0  0  0
 22 24  1  0  0  0  0
 18 19  1  0  0  0  0
 18 20  1  0  0  0  0
 18 21  1  0  0  0  0
 17 18  1  0  0  0  0
 14 15  1  0  0  0  0
 14 16  1  0  0  0  0
 14 17  1  0  0  0  0
 11 12  1  0  0  0  0
 11 13  1  0  0  0  0
 11 14  1  0  0  0  0
  9 10  1  0  0  0  0
  9 11  1  0  0  0  0
  9 22  1  0  0  0  0
  7  8  1  0  0  0  0
  7  9  1  0  0  0  0
 26 27  1  0  0  0  0
 26 28  1  0  0  0  0
 26 29  1  0  0  0  0
 24 25  1  0  0  0  0
 24 26  1  0  0  0  0
M  END
$$$$
default_name
  -OEChem-02102213163D

 29 28  0     1  0  0  0  0  0999 V2000
   -3.5781   -3.7296    1.2702 H   0  0  0  0  0  0  0  0  0  0  0  0
   -3.5311   -2.7616    0.7732 C   0  0  0  0  0  0  0  0  0  0  0  0
   -4.2371   -2.0766    1.2382 H   0  0  0  0  0  0  0  0  0  0  0  0
   -3.7681   -2.8816   -0.2818 H   0  0  0  0  0  0  0  0  0  0  0  0
   -2.1321   -2.2086    0.9112 C   0  0  0  0  0  0  0  0  0  0  0  0
   -1.2751   -2.8426    1.5112 O   0  0  0  0  0  0  0  0  0  0  0  0
   -1.9041   -1.0186    0.3602 N   0  0  0  0  0  0  0  0  0  0  0  0
   -2.6671   -0.5416   -0.0988 H   0  0  0  0  0  0  0  0  0  0  0  0
   -0.6131   -0.3236    0.3832 C   0  0  1  0  0  0  0  0  0  0  0  0
    0.1346   -0.9625   -0.0894 H   0  0  0  0  0  0  0  0  0  0  0  0
   -0.7253    0.9751   -0.4365 C   0  0  0  0  0  0  0  0  0  0  0  0
   -1.4711    0.8315   -1.2212 H   0  0  0  0  0  0  0  0  0  0  0  0
   -1.0654    1.7825    0.2135 H   0  0  0  0  0  0  0  0  0  0  0  0
    0.5922    1.3989   -1.0958 C   0  0  0  0  0  0  0  0  0  0  0  0
    1.0526    0.5301   -1.5652 H   0  0  0  0  0  0  0  0  0  0  0  0
    0.3760    2.1402   -1.8659 H   0  0  0  0  0  0  0  0  0  0  0  0
    1.7878    2.1108    0.0633 S   0  0  0  0  0  0  0  0  0  0  0  0
    0.9477    3.6664    0.4583 C   0  0  0  0  0  0  0  0  0  0  0  0
   -0.0245    3.4561    0.9052 H   0  0  0  0  0  0  0  0  0  0  0  0
    1.5526    4.2343    1.1657 H   0  0  0  0  0  0  0  0  0  0  0  0
    0.8134    4.2531   -0.4509 H   0  0  0  0  0  0  0  0  0  0  0  0
   -0.1711   -0.0594    1.8296 C   0  0  0  0  0  0  0  0  0  0  0  0
    0.9865   -0.2908    2.1726 O   0  0  0  0  0  0  0  0  0  0  0  0
   -1.0921    0.4156    2.6780 N   0  0  0  0  0  0  0  0  0  0  0  0
   -2.0168    0.5953    2.3206 H   0  0  0  0  0  0  0  0  0  0  0  0
   -0.8319    0.7034    4.0877 C   0  0  0  0  0  0  0  0  0  0  0  0
   -0.0192    1.4288    4.1710 H   0  0  0  0  0  0  0  0  0  0  0  0
   -1.7255    1.1088    4.5641 H   0  0  0  0  0  0  0  0  0  0  0  0
   -0.5319   -0.2118    4.6011 H   0  0  0  0  0  0  0  0  0  0  0  0
  5  6  2  0  0  0  0
  5  7  1  0  0  0  0
  2  3  1  0  0  0  0
  2  4  1  0  0  0  0
  2  5  1  0  0  0  0
  1  2  1  0  0  0  0
 22 23  2  0  0  0  0
 22 24  1  0  0  0  0
 18 19  1  0  0  0  0
 18 20  1  0  0  0  0
 18 21  1  0  0  0  0
 17 18  1  0  0  0  0
 14 15  1  0  0  0  0
 14 16  1  0  0  0  0
 14 17  1  0  0  0  0
 11 12  1  0  0  0  0
 11 13  1  0  0  0  0
 11 14  1  0  0  0  0
  9 10  1  0  0  0  0
  9 11  1  0  0  0  0
  9 22  1  0  0  0  0
  7  8  1  0  0  0  0
  7  9  1  0  0  0  0
 26 27  1  0  0  0  0
 26 28  1  0  0  0  0
 26 29  1  0  0  0  0
 24 25  1  0  0  0  0
 24 26  1  0  0  0  0
M  END
$$$$
default_name
  -OEChem-02102213163D

 29 28  0     1  0  0  0  0  0999 V2000
   -3.5781   -3.7296    1.2702 H   0  0  0  0  0  0  0  0  0  0  0  0
   -3.5311   -2.7616    0.7732 C   0  0  0  0  0  0  0  0  0  0  0  0
   -4.2371   -2.0766    1.2382 H   0  0  0  0  0  0  0  0  0  0  0  0
   -3.7681   -2.8816   -0.2818 H   0  0  0  0  0  0  0  0  0  0  0  0
   -2.1321   -2.2086    0.9112 C   0  0  0  0  0  0  0  0  0  0  0  0
   -1.2751   -2.8426    1.5112 O   0  0  0  0  0  0  0  0  0  0  0  0
   -1.9041   -1.0186    0.3602 N   0  0  0  0  0  0  0  0  0  0  0  0
   -2.6671   -0.5416   -0.0988 H   0  0  0  0  0  0  0  0  0  0  0  0
   -0.6131   -0.3236    0.3832 C   0  0  1  0  0  0  0  0  0  0  0  0
    0.1346   -0.9625   -0.0894 H   0  0  0  0  0  0  0  0  0  0  0  0
   -0.7253    0.9751   -0.4365 C   0  0  0  0  0  0  0  0  0  0  0  0
   -1.4711    0.8315   -1.2212 H   0  0  0  0  0  0  0  0  0  0  0  0
   -1.0654    1.7825    0.2135 H   0  0  0  0  0  0  0  0  0  0  0  0
    0.5922    1.3989   -1.0958 C   0  0  0  0  0  0  0  0  0  0  0  0
    0.9171    0.6162   -1.7807 H   0  0  0  0  0  0  0  0  0  0  0  0
    0.4210    2.3136   -1.6644 H   0  0  0  0  0  0  0  0  0  0  0  0
    1.9305    1.7025    0.0860 S   0  0  0  0  0  0  0  0  0  0  0  0
    1.3069    3.2064    0.8805 C   0  0  0  0  0  0  0  0  0  0  0  0
    0.3446    3.0018    1.3507 H   0  0  0  0  0  0  0  0  0  0  0  0
    2.0159    3.5338    1.6413 H   0  0  0  0  0  0  0  0  0  0  0  0
    1.1903    3.9944    0.1360 H   0  0  0  0  0  0  0  0  0  0  0  0
   -0.1711   -0.0594    1.8296 C   0  0  0  0  0  0  0  0  0  0  0  0
    0.9865   -0.2908    2.1726 O   0  0  0  0  0  0  0  0  0  0  0  0
   -1.0921    0.4156    2.6780 N   0  0  0  0  0  0  0  0  0  0  0  0
   -2.0168    0.5953    2.3206 H   0  0  0  0  0  0  0  0  0  0  0  0
   -0.8319    0.7034    4.0877 C   0  0  0  0  0  0  0  0  0  0  0  0
   -0.0192    1.4288    4.1710 H   0  0  0  0  0  0  0  0  0  0  0  0
   -1.7255    1.1088    4.5641 H   0  0  0  0  0  0  0  0  0  0  0  0
   -0.5319   -0.2118    4.6011 H   0  0  0  0  0  0  0  0  0  0  0  0
  5  6  2  0  0  0  0
  5  7  1  0  0  0  0
  2  3  1  0  0  0  0
  2  4  1  0  0  0  0
  2  5  1  0  0  0  0
  1  2  1  0  0  0  0
 22 23  2  0  0  0  0
 22 24  1  0  0  0  0
 18 19  1  0  0  0  0
 18 20  1  0  0  0  0
 18 21  1  0  0  0  0
 17 18  1  0  0  0  0
 14 15  1  0  0  0  0
 14 16  1  0  0  0  0
 14 17  1  0  0  0  0
 11 12  1  0  0  0  0
 11 13  1  0  0  0  0
 11 14  1  0  0  0  0
  9 10  1  0  0  0  0
  9 11  1  0  0  0  0
  9 22  1  0  0  0  0
  7  8  1  0  0  0  0
  7  9  1  0  0  0  0
 26 27  1  0  0  0  0
 26 28  1  0  0  0  0
 26 29  1  0  0  0  0
 24 25  1  0  0  0  0
 24 26  1  0  0  0  0
M  END
$$$$
default_name
  -OEChem-02102213163D

 29 28  0     1  0  0  0  0  0999 V2000
   -3.5781   -3.7296    1.2702 H   0  0  0  0  0  0  0  0  0  0  0  0
   -3.5311   -2.7616    0.7732 C   0  0  0  0  0  0  0  0  0  0  0  0
   -4.2371   -2.0766    1.2382 H   0  0  0  0  0  0  0  0  0  0  0  0
   -3.7681   -2.8816   -0.2818 H   0  0  0  0  0  0  0  0  0  0  0  0
   -2.1321   -2.2086    0.9112 C   0  0  0  0  0  0  0  0  0  0  0  0
   -1.2751   -2.8426    1.5112 O   0  0  0  0  0  0  0  0  0  0  0  0
   -1.9041   -1.0186    0.3602 N   0  0  0  0  0  0  0  0  0  0  0  0
   -2.6671   -0.5416   -0.0988 H   0  0  0  0  0  0  0  0  0  0  0  0
   -0.6131   -0.3236    0.3832 C   0  0  1  0  0  0  0  0  0  0  0  0
    0.1346   -0.9625   -0.0894 H   0  0  0  0  0  0  0  0  0  0  0  0
   -0.7253    0.9751   -0.4365 C   0  0  0  0  0  0  0  0  0  0  0  0
   -1.4711    0.8315   -1.2212 H   0  0  0  0  0  0  0  0  0  0  0  0
   -1.0654    1.7825    0.2135 H   0  0  0  0  0  0  0  0  0  0  0  0
    0.5922    1.3989   -1.0958 C   0  0  0  0  0  0  0  0  0  0  0  0
    0.7804    0.7624   -1.9599 H   0  0  0  0  0  0  0  0  0  0  0  0
    0.4982    2.4313   -1.4344 H   0  0  0  0  0  0  0  0  0  0  0  0
    2.0245    1.2871    0.0069 S   0  0  0  0  0  0  0  0  0  0  0  0
    1.6328    2.6281    1.1602 C   0  0  0  0  0  0  0  0  0  0  0  0
    0.6824    2.4228    1.6537 H   0  0  0  0  0  0  0  0  0  0  0  0
    2.4195    2.6998    1.9117 H   0  0  0  0  0  0  0  0  0  0  0  0
    1.5675    3.5720    0.6183 H   0  0  0  0  0  0  0  0  0  0  0  0
   -0.1711   -0.0594    1.8296 C   0  0  0  0  0  0  0  0  0  0  0  0
    0.9865   -0.2908    2.1726 O   0  0  0  0  0  0  0  0  0  0  0  0
   -1.0921    0.4156    2.6780 N   0  0  0  0  0  0  0  0  0  0  0  0
   -2.0168    0.5953    2.3206 H   0  0  0  0  0  0  0  0  0  0  0  0
   -0.8319    0.7034    4.0877 C   0  0  0  0  0  0  0  0  0  0  0  0
   -0.0192    1.4288    4.1710 H   0  0  0  0  0  0  0  0  0  0  0  0
   -1.7255    1.1088    4.5641 H   0  0  0  0  0  0  0  0  0  0  0  0
   -0.5319   -0.2118    4.6011 H   0  0  0  0  0  0  0  0  0  0  0  0
  5  6  2  0  0  0  0
  5  7  1  0  0  0  0
  2  3  1  0  0  0  0
  2  4  1  0  0  0  0
  2  5  1  0  0  0  0
  1  2  1  0  0  0  0
 22 23  2  0  0  0  0
 22 24  1  0  0  0  0
 18 19  1  0  0  0  0
 18 20  1  0  0  0  0
 18 21  1  0  0  0  0
 17 18  1  0  0  0  0
 14 15  1  0  0  0  0
 14 16  1  0  0  0  0
 14 17  1  0  0  0  0
 11 12  1  0  0  0  0
 11 13  1  0  0  0  0
 11 14  1  0  0  0  0
  9 10  1  0  0  0  0
  9 11  1  0  0  0  0
  9 22  1  0  0  0  0
  7  8  1  0  0  0  0
  7  9  1  0  0  0  0
 26 27  1  0  0  0  0
 26 28  1  0  0  0  0
 26 29  1  0  0  0  0
 24 25  1  0  0  0  0
 24 26  1  0  0  0  0
M  END
$$$$
default_name
  -OEChem-02102213163D

 29 28  0     1  0  0  0  0  0999 V2000
   -3.5781   -3.7296    1.2702 H   0  0  0  0  0  0  0  0  0  0  0  0
   -3.5311   -2.7616    0.7732 C   0  0  0  0  0  0  0  0  0  0  0  0
   -4.2371   -2.0766    1.2382 H   0  0  0  0  0  0  0  0  0  0  0  0
   -3.7681   -2.8816   -0.2818 H   0  0  0  0  0  0  0  0  0  0  0  0
   -2.1321   -2.2086    0.9112 C   0  0  0  0  0  0  0  0  0  0  0  0
   -1.2751   -2.8426    1.5112 O   0  0  0  0  0  0  0  0  0  0  0  0
   -1.9041   -1.0186    0.3602 N   0  0  0  0  0  0  0  0  0  0  0  0
   -2.6671   -0.5416   -0.0988 H   0  0  0  0  0  0  0  0  0  0  0  0
   -0.6131   -0.3236    0.3832 C   0  0  1  0  0  0  0  0  0  0  0  0
    0.1346   -0.9625   -0.0894 H   0  0  0  0  0  0  0  0  0  0  0  0
   -0.7253    0.9751   -0.4365 C   0  0  0  0  0  0  0  0  0  0  0  0
   -1.4711    0.8315   -1.2212 H   0  0  0  0  0  0  0  0  0  0  0  0
   -1.0654    1.7825    0.2135 H   0  0  0  0  0  0  0  0  0  0  0  0
    0.5922    1.3989   -1.0958 C   0  0  0  0  0  0  0  0  0  0  0  0
    0.6518    0.9588   -2.0907 H   0  0  0  0  0  0  0  0  0  0  0  0
    0.6024    2.4852   -1.1917 H   0  0  0  0  0  0  0  0  0  0  0  0
    2.0634    0.8931   -0.1687 S   0  0  0  0  0  0  0  0  0  0  0  0
    1.9033    1.9711    1.2784 C   0  0  0  0  0  0  0  0  0  0  0  0
    0.9660    1.7585    1.7934 H   0  0  0  0  0  0  0  0  0  0  0  0
    2.7359    1.7891    1.9586 H   0  0  0  0  0  0  0  0  0  0  0  0
    1.9193    3.0148    0.9632 H   0  0  0  0  0  0  0  0  0  0  0  0
   -0.1711   -0.0594    1.8296 C   0  0  0  0  0  0  0  0  0  0  0  0
    0.9865   -0.2908    2.1726 O   0  0  0  0  0  0  0  0  0  0  0  0
   -1.0921    0.4156    2.6780 N   0  0  0  0  0  0  0  0  0  0  0  0
   -2.0168    0.5953    2.3206 H   0  0  0  0  0  0  0  0  0  0  0  0
   -0.8319    0.7034    4.0877 C   0  0  0  0  0  0  0  0  0  0  0  0
   -0.0192    1.4288    4.1710 H   0  0  0  0  0  0  0  0  0  0  0  0
   -1.7255    1.1088    4.5641 H   0  0  0  0  0  0  0  0  0  0  0  0
   -0.5319   -0.2118    4.6011 H   0  0  0  0  0  0  0  0  0  0  0  0
  5  6  2  0  0  0  0
  5  7  1  0  0  0  0
  2  3  1  0  0  0  0
  2  4  1  0  0  0  0
  2  5  1  0  0  0  0
  1  2  1  0  0  0  0
 22 23  2  0  0  0  0
 22 24  1  0  0  0  0
 18 19  1  0  0  0  0
 18 20  1  0  0  0  0
 18 21  1  0  0  0  0
 17 18  1  0  0  0  0
 14 15  1  0  0  0  0
 14 16  1  0  0  0  0
 14 17  1  0  0  0  0
 11 12  1  0  0  0  0
 11 13  1  0  0  0  0
 11 14  1  0  0  0  0
  9 10  1  0  0  0  0
  9 11  1  0  0  0  0
  9 22  1  0  0  0  0
  7  8  1  0  0  0  0
  7  9  1  0  0  0  0
 26 27  1  0  0  0  0
 26 28  1  0  0  0  0
 26 29  1  0  0  0  0
 24 25  1  0  0  0  0
 24 26  1  0  0  0  0
M  END
$$$$
default_name
  -OEChem-02102213163D

 29 28  0     1  0  0  0  0  0999 V2000
   -3.5781   -3.7296    1.2702 H   0  0  0  0  0  0  0  0  0  0  0  0
   -3.5311   -2.7616    0.7732 C   0  0  0  0  0  0  0  0  0  0  0  0
   -4.2371   -2.0766    1.2382 H   0  0  0  0  0  0  0  0  0  0  0  0
   -3.7681   -2.8816   -0.2818 H   0  0  0  0  0  0  0  0  0  0  0  0
   -2.1321   -2.2086    0.9112 C   0  0  0  0  0  0  0  0  0  0  0  0
   -1.2751   -2.8426    1.5112 O   0  0  0  0  0  0  0  0  0  0  0  0
   -1.9041   -1.0186    0.3602 N   0  0  0  0  0  0  0  0  0  0  0  0
   -2.6671   -0.5416   -0.0988 H   0  0  0  0  0  0  0  0  0  0  0  0
   -0.6131   -0.3236    0.3832 C   0  0  1  0  0  0  0  0  0  0  0  0
    0.1346   -0.9625   -0.0894 H   0  0  0  0  0  0  0  0  0  0  0  0
   -0.7253    0.9751   -0.4365 C   0  0  0  0  0  0  0  0  0  0  0  0
   -1.4711    0.8315   -1.2212 H   0  0  0  0  0  0  0  0  0  0  0  0
   -1.0654    1.7825    0.2135 H   0  0  0  0  0  0  0  0  0  0  0  0
    0.5922    1.3989   -1.0958 C   0  0  0  0  0  0  0  0  0  0  0  0
    0.5401    1.1918   -2.1642 H   0  0  0  0  0  0  0  0  0  0  0  0
    0.7263    2.4717   -0.9526 H   0  0  0  0  0  0  0  0  0  0  0  0
    2.0446    0.5472   -0.4287 S   0  0  0  0  0  0  0  0  0  0  0  0
    2.1000    1.2800    1.2271 C   0  0  0  0  0  0  0  0  0  0  0  0
    1.1759    1.0543    1.7602 H   0  0  0  0  0  0  0  0  0  0  0  0
    2.9434    0.8638    1.7786 H   0  0  0  0  0  0  0  0  0  0  0  0
    2.2218    2.3606    1.1472 H   0  0  0  0  0  0  0  0  0  0  0  0
   -0.1711   -0.0594    1.8296 C   0  0  0  0  0  0  0  0  0  0  0  0
    0.9865   -0.2908    2.1726 O   0  0  0  0  0  0  0  0  0  0  0  0
   -1.0921    0.4156    2.6780 N   0  0  0  0  0  0  0  0  0  0  0  0
   -2.0168    0.5953    2.3206 H   0  0  0  0  0  0  0  0  0  0  0  0
   -0.8319    0.7034    4.0877 C   0  0  0  0  0  0  0  0  0  0  0  0
   -0.0192    1.4288    4.1710 H   0  0  0  0  0  0  0  0  0  0  0  0
   -1.7255    1.1088    4.5641 H   0  0  0  0  0  0  0  0  0  0  0  0
   -0.5319   -0.2118    4.6011 H   0  0  0  0  0  0  0  0  0  0  0  0
  5  6  2  0  0  0  0
  5  7  1  0  0  0  0
  2  3  1  0  0  0  0
  2  4  1  0  0  0  0
  2  5  1  0  0  0  0
  1  2  1  0  0  0  0
 22 23  2  0  0  0  0
 22 24  1  0  0  0  0
 18 19  1  0  0  0  0
 18 20  1  0  0  0  0
 18 21  1  0  0  0  0
 17 18  1  0  0  0  0
 14 15  1  0  0  0  0
 14 16  1  0  0  0  0
 14 17  1  0  0  0  0
 11 12  1  0  0  0  0
 11 13  1  0  0  0  0
 11 14  1  0  0  0  0
  9 10  1  0  0  0  0
  9 11  1  0  0  0  0
  9 22  1  0  0  0  0
  7  8  1  0  0  0  0
  7  9  1  0  0  0  0
 26 27  1  0  0  0  0
 26 28  1  0  0  0  0
 26 29  1  0  0  0  0
 24 25  1  0  0  0  0
 24 26  1  0  0  0  0
M  END
$$$$
default_name
  -OEChem-02102213163D

 29 28  0     1  0  0  0  0  0999 V2000
   -3.5781   -3.7296    1.2702 H   0  0  0  0  0  0  0  0  0  0  0  0
   -3.5311   -2.7616    0.7732 C   0  0  0  0  0  0  0  0  0  0  0  0
   -4.2371   -2.0766    1.2382 H   0  0  0  0  0  0  0  0  0  0  0  0
   -3.7681   -2.8816   -0.2818 H   0  0  0  0  0  0  0  0  0  0  0  0
   -2.1321   -2.2086    0.9112 C   0  0  0  0  0  0  0  0  0  0  0  0
   -1.2751   -2.8426    1.5112 O   0  0  0  0  0  0  0  0  0  0  0  0
   -1.9041   -1.0186    0.3602 N   0  0  0  0  0  0  0  0  0  0  0  0
   -2.6671   -0.5416   -0.0988 H   0  0  0  0  0  0  0  0  0  0  0  0
   -0.6131   -0.3236    0.3832 C   0  0  1  0  0  0  0  0  0  0  0  0
    0.1346   -0.9625   -0.0894 H   0  0  0  0  0  0  0  0  0  0  0  0
   -0.7253    0.9751   -0.4365 C   0  0  0  0  0  0  0  0  0  0  0  0
   -1.4711    0.8315   -1.2212 H   0  0  0  0  0  0  0  0  0  0  0  0
   -1.0654    1.7825    0.2135 H   0  0  0  0  0  0  0  0  0  0  0  0
    0.5922    1.3989   -1.0958 C   0  0  0  0  0  0  0  0  0  0  0  0
    0.4528    1.4457   -2.1754 H   0  0  0  0  0  0  0  0  0  0  0  0
    0.8617    2.3916   -0.7336 H   0  0  0  0  0  0  0  0  0  0  0  0
    1.9693    0.2730   -0.7554 S   0  0  0  0  0  0  0  0  0  0  0  0
    2.2093    0.6020    1.0098 C   0  0  0  0  0  0  0  0  0  0  0  0
    1.2980    0.3580    1.5565 H   0  0  0  0  0  0  0  0  0  0  0  0
    3.0281   -0.0131    1.3841 H   0  0  0  0  0  0  0  0  0  0  0  0
    2.4544    1.6541    1.1579 H   0  0  0  0  0  0  0  0  0  0  0  0
   -0.1711   -0.0594    1.8296 C   0  0  0  0  0  0  0  0  0  0  0  0
    0.9865   -0.2908    2.1726 O   0  0  0  0  0  0  0  0  0  0  0  0
   -1.0921    0.4156    2.6780 N   0  0  0  0  0  0  0  0  0  0  0  0
   -2.0168    0.5953    2.3206 H   0  0  0  0  0  0  0  0  0  0  0  0
   -0.8319    0.7034    4.0877 C   0  0  0  0  0  0  0  0  0  0  0  0
   -0.0192    1.4288    4.1710 H   0  0  0  0  0  0  0  0  0  0  0  0
   -1.7255    1.1088    4.5641 H   0  0  0  0  0  0  0  0  0  0  0  0
   -0.5319   -0.2118    4.6011 H   0  0  0  0  0  0  0  0  0  0  0  0
  5  6  2  0  0  0  0
  5  7  1  0  0  0  0
  2  3  1  0  0  0  0
  2  4  1  0  0  0  0
  2  5  1  0  0  0  0
  1  2  1  0  0  0  0
 22 23  2  0  0  0  0
 22 24  1  0  0  0  0
 18 19  1  0  0  0  0
 18 20  1  0  0  0  0
 18 21  1  0  0  0  0
 17 18  1  0  0  0  0
 14 15  1  0  0  0  0
 14 16  1  0  0  0  0
 14 17  1  0  0  0  0
 11 12  1  0  0  0  0
 11 13  1  0  0  0  0
 11 14  1  0  0  0  0
  9 10  1  0  0  0  0
  9 11  1  0  0  0  0
  9 22  1  0  0  0  0
  7  8  1  0  0  0  0
  7  9  1  0  0  0  0
 26 27  1  0  0  0  0
 26 28  1  0  0  0  0
 26 29  1  0  0  0  0
 24 25  1  0  0  0  0
 24 26  1  0  0  0  0
M  END
$$$$
default_name
  -OEChem-02102213163D

 29 28  0     1  0  0  0  0  0999 V2000
   -3.5781   -3.7296    1.2702 H   0  0  0  0  0  0  0  0  0  0  0  0
   -3.5311   -2.7616    0.7732 C   0  0  0  0  0  0  0  0  0  0  0  0
   -4.2371   -2.0766    1.2382 H   0  0  0  0  0  0  0  0  0  0  0  0
   -3.7681   -2.8816   -0.2818 H   0  0  0  0  0  0  0  0  0  0  0  0
   -2.1321   -2.2086    0.9112 C   0  0  0  0  0  0  0  0  0  0  0  0
   -1.2751   -2.8426    1.5112 O   0  0  0  0  0  0  0  0  0  0  0  0
   -1.9041   -1.0186    0.3602 N   0  0  0  0  0  0  0  0  0  0  0  0
   -2.6671   -0.5416   -0.0988 H   0  0  0  0  0  0  0  0  0  0  0  0
   -0.6131   -0.3236    0.3832 C   0  0  1  0  0  0  0  0  0  0  0  0
    0.1346   -0.9625   -0.0894 H   0  0  0  0  0  0  0  0  0  0  0  0
   -0.7253    0.9751   -0.4365 C   0  0  0  0  0  0  0  0  0  0  0  0
   -1.4711    0.8315   -1.2212 H   0  0  0  0  0  0  0  0  0  0  0  0
   -1.0654    1.7825    0.2135 H   0  0  0  0  0  0  0  0  0  0  0  0
    0.5922    1.3989   -1.0958 C   0  0  0  0  0  0  0  0  0  0  0  0
    0.3960    1.7031   -2.1234 H   0  0  0  0  0  0  0  0  0  0  0  0
    0.9992    2.2506   -0.5495 H   0  0  0  0  0  0  0  0  0  0  0  0
    1.8427    0.0892   -1.1266 S   0  0  0  0  0  0  0  0  0  0  0  0
    2.2239   -0.0167    0.6413 C   0  0  0  0  0  0  0  0  0  0  0  0
    1.3238   -0.2828    1.1962 H   0  0  0  0  0  0  0  0  0  0  0  0
    2.9840   -0.7817    0.8019 H   0  0  0  0  0  0  0  0  0  0  0  0
    2.6011    0.9435    0.9943 H   0  0  0  0  0  0  0  0  0  0  0  0
   -0.1711   -0.0594    1.8296 C   0  0  0  0  0  0  0  0  0  0  0  0
    0.9865   -0.2908    2.1726 O   0  0  0  0  0  0  0  0  0  0  0  0
   -1.0921    0.4156    2.6780 N   0  0  0  0  0  0  0  0  0  0  0  0
   -2.0168    0.5953    2.3206 H   0  0  0  0  0  0  0  0  0  0  0  0
   -0.8319    0.7034    4.0877 C   0  0  0  0  0  0  0  0  0  0  0  0
   -0.0192    1.4288    4.1710 H   0  0  0  0  0  0  0  0  0  0  0  0
   -1.7255    1.1088    4.5641 H   0  0  0  0  0  0  0  0  0  0  0  0
   -0.5319   -0.2118    4.6011 H   0  0  0  0  0  0  0  0  0  0  0  0
  5  6  2  0  0  0  0
  5  7  1  0  0  0  0
  2  3  1  0  0  0  0
  2  4  1  0  0  0  0
  2  5  1  0  0  0  0
  1  2  1  0  0  0  0
 22 23  2  0  0  0  0
 22 24  1  0  0  0  0
 18 19  1  0  0  0  0
 18 20  1  0  0  0  0
 18 21  1  0  0  0  0
 17 18  1  0  0  0  0
 14 15  1  0  0  0  0
 14 16  1  0  0  0  0
 14 17  1  0  0  0  0
 11 12  1  0  0  0  0
 11 13  1  0  0  0  0
 11 14  1  0  0  0  0
  9 10  1  0  0  0  0
  9 11  1  0  0  0  0
  9 22  1  0  0  0  0
  7  8  1  0  0  0  0
  7  9  1  0  0  0  0
 26 27  1  0  0  0  0
 26 28  1  0  0  0  0
 26 29  1  0  0  0  0
 24 25  1  0  0  0  0
 24 26  1  0  0  0  0
M  END
$$$$
default_name
  -OEChem-02102213163D

 29 28  0     1  0  0  0  0  0999 V2000
   -3.5781   -3.7296    1.2702 H   0  0  0  0  0  0  0  0  0  0  0  0
   -3.5311   -2.7616    0.7732 C   0  0  0  0  0  0  0  0  0  0  0  0
   -4.2371   -2.0766    1.2382 H   0  0  0  0  0  0  0  0  0  0  0  0
   -3.7681   -2.8816   -0.2818 H   0  0  0  0  0  0  0  0  0  0  0  0
   -2.1321   -2.2086    0.9112 C   0  0  0  0  0  0  0  0  0  0  0  0
   -1.2751   -2.8426    1.5112 O   0  0  0  0  0  0  0  0  0  0  0  0
   -1.9041   -1.0186    0.3602 N   0  0  0  0  0  0  0  0  0  0  0  0
   -2.6671   -0.5416   -0.0988 H   0  0  0  0  0  0  0  0  0  0  0  0
   -0.6131   -0.3236    0.3832 C   0  0  1  0  0  0  0  0  0  0  0  0
    0.1346   -0.9625   -0.0894 H   0  0  0  0  0  0  0  0  0  0  0  0
   -0.7253    0.9751   -0.4365 C   0  0  0  0  0  0  0  0  0  0  0  0
   -1.4711    0.8315   -1.2212 H   0  0  0  0  0  0  0  0  0  0  0  0
   -1.0654    1.7825    0.2135 H   0  0  0  0  0  0  0  0  0  0  0  0
    0.5922    1.3989   -1.0958 C   0  0  0  0  0  0  0  0  0  0  0  0
    0.3735    1.9466   -2.0119 H   0  0  0  0  0  0  0  0  0  0  0  0
    1.1295    2.0580   -0.4129 H   0  0  0  0  0  0  0  0  0  0  0  0
    1.6733    0.0083   -1.5170 S   0  0  0  0  0  0  0  0  0  0  0  0
    2.1427   -0.5339    0.1466 C   0  0  0  0  0  0  0  0  0  0  0  0
    1.2516   -0.8245    0.7037 H   0  0  0  0  0  0  0  0  0  0  0  0
    2.8142   -1.3897    0.0717 H   0  0  0  0  0  0  0  0  0  0  0  0
    2.6521    0.2771    0.6678 H   0  0  0  0  0  0  0  0  0  0  0  0
   -0.1711   -0.0594    1.8296 C   0  0  0  0  0  0  0  0  0  0  0  0
    0.9865   -0.2908    2.1726 O   0  0  0  0  0  0  0  0  0  0  0  0
   -1.0921    0.4156    2.6780 N   0  0  0  0  0  0  0  0  0  0  0  0
   -2.0168    0.5953    2.3206 H   0  0  0  0  0  0  0  0  0  0  0  0
   -0.8319    0.7034    4.0877 C   0  0  0  0  0  0  0  0  0  0  0  0
   -0.0192    1.4288    4.1710 H   0  0  0  0  0  0  0  0  0  0  0  0
   -1.7255    1.1088    4.5641 H   0  0  0  0  0  0  0  0  0  0  0  0
   -0.5319   -0.2118    4.6011 H   0  0  0  0  0  0  0  0  0  0  0  0
  5  6  2  0  0  0  0
  5  7  1  0  0  0  0
  2  3  1  0  0  0  0
  2  4  1  0  0  0  0
  2  5  1  0  0  0  0
  1  2  1  0  0  0  0
 22 23  2  0  0  0  0
 22 24  1  0  0  0  0
 18 19  1  0  0  0  0
 18 20  1  0  0  0  0
 18 21  1  0  0  0  0
 17 18  1  0  0  0  0
 14 15  1  0  0  0  0
 14 16  1  0  0  0  0
 14 17  1  0  0  0  0
 11 12  1  0  0  0  0
 11 13  1  0  0  0  0
 11 14  1  0  0  0  0
  9 10  1  0  0  0  0
  9 11  1  0  0  0  0
  9 22  1  0  0  0  0
  7  8  1  0  0  0  0
  7  9  1  0  0  0  0
 26 27  1  0  0  0  0
 26 28  1  0  0  0  0
 26 29  1  0  0  0  0
 24 25  1  0  0  0  0
 24 26  1  0  0  0  0
M  END
$$$$
default_name
  -OEChem-02102213163D

 29 28  0     1  0  0  0  0  0999 V2000
   -3.5781   -3.7296    1.2702 H   0  0  0  0  0  0  0  0  0  0  0  0
   -3.5311   -2.7616    0.7732 C   0  0  0  0  0  0  0  0  0  0  0  0
   -4.2371   -2.0766    1.2382 H   0  0  0  0  0  0  0  0  0  0  0  0
   -3.7681   -2.8816   -0.2818 H   0  0  0  0  0  0  0  0  0  0  0  0
   -2.1321   -2.2086    0.9112 C   0  0  0  0  0  0  0  0  0  0  0  0
   -1.2751   -2.8426    1.5112 O   0  0  0  0  0  0  0  0  0  0  0  0
   -1.9041   -1.0186    0.3602 N   0  0  0  0  0  0  0  0  0  0  0  0
   -2.6671   -0.5416   -0.0988 H   0  0  0  0  0  0  0  0  0  0  0  0
   -0.6131   -0.3236    0.3832 C   0  0  1  0  0  0  0  0  0  0  0  0
    0.1346   -0.9625   -0.0894 H   0  0  0  0  0  0  0  0  0  0  0  0
   -0.7253    0.9751   -0.4365 C   0  0  0  0  0  0  0  0  0  0  0  0
   -1.4711    0.8315   -1.2212 H   0  0  0  0  0  0  0  0  0  0  0  0
   -1.0654    1.7825    0.2135 H   0  0  0  0  0  0  0  0  0  0  0  0
    0.5922    1.3989   -1.0958 C   0  0  0  0  0  0  0  0  0  0  0  0
    0.3868    2.1594   -1.8484 H   0  0  0  0  0  0  0  0  0  0  0  0
    1.2436    1.8272   -0.3331 H   0  0  0  0  0  0  0  0  0  0  0  0
    1.4728    0.0359   -1.8999 S   0  0  0  0  0  0  0  0  0  0  0  0
    1.9714   -0.9145   -0.4405 C   0  0  0  0  0  0  0  0  0  0  0  0
    1.0863   -1.2301    0.1127 H   0  0  0  0  0  0  0  0  0  0  0  0
    2.5303   -1.7957   -0.7567 H   0  0  0  0  0  0  0  0  0  0  0  0
    2.6038   -0.2996    0.2005 H   0  0  0  0  0  0  0  0  0  0  0  0
   -0.1711   -0.0594    1.8296 C   0  0  0  0  0  0  0  0  0  0  0  0
    0.9865   -0.2908    2.1726 O   0  0  0  0  0  0  0  0  0  0  0  0
   -1.0921    0.4156    2.6780 N   0  0  0  0  0  0  0  0  0  0  0  0
   -2.0168    0.5953    2.3206 H   0  0  0  0  0  0  0  0  0  0  0  0
   -0.8319    0.7034    4.0877 C   0  0  0  0  0  0  0  0  0  0  0  0
   -0.0192    1.4288    4.1710 H   0  0  0  0  0  0  0  0  0  0  0  0
   -1.7255    1.1088    4.5641 H   0  0  0  0  0  0  0  0  0  0  0  0
   -0.5319   -0.2118    4.6011 H   0  0  0  0  0  0  0  0  0  0  0  0
  5  6  2  0  0  0  0
  5  7  1  0  0  0  0
  2  3  1  0  0  0  0
  2  4  1  0  0  0  0
  2  5  1  0  0  0  0
  1  2  1  0  0  0  0
 22 23  2  0  0  0  0
 22 24  1  0  0  0  0
 18 19  1  0  0  0  0
 18 20  1  0  0  0  0
 18 21  1  0  0  0  0
 17 18  1  0  0  0  0
 14 15  1  0  0  0  0
 14 16  1  0  0  0  0
 14 17  1  0  0  0  0
 11 12  1  0  0  0  0
 11 13  1  0  0  0  0
 11 14  1  0  0  0  0
  9 10  1  0  0  0  0
  9 11  1  0  0  0  0
  9 22  1  0  0  0  0
  7  8  1  0  0  0  0
  7  9  1  0  0  0  0
 26 27  1  0  0  0  0
 26 28  1  0  0  0  0
 26 29  1  0  0  0  0
 24 25  1  0  0  0  0
 24 26  1  0  0  0  0
M  END
$$$$
default_name
  -OEChem-02102213163D

 29 28  0     1  0  0  0  0  0999 V2000
   -3.5781   -3.7296    1.2702 H   0  0  0  0  0  0  0  0  0  0  0  0
   -3.5311   -2.7616    0.7732 C   0  0  0  0  0  0  0  0  0  0  0  0
   -4.2371   -2.0766    1.2382 H   0  0  0  0  0  0  0  0  0  0  0  0
   -3.7681   -2.8816   -0.2818 H   0  0  0  0  0  0  0  0  0  0  0  0
   -2.1321   -2.2086    0.9112 C   0  0  0  0  0  0  0  0  0  0  0  0
   -1.2751   -2.8426    1.5112 O   0  0  0  0  0  0  0  0  0  0  0  0
   -1.9041   -1.0186    0.3602 N   0  0  0  0  0  0  0  0  0  0  0  0
   -2.6671   -0.5416   -0.0988 H   0  0  0  0  0  0  0  0  0  0  0  0
   -0.6131   -0.3236    0.3832 C   0  0  1  0  0  0  0  0  0  0  0  0
    0.1346   -0.9625   -0.0894 H   0  0  0  0  0  0  0  0  0  0  0  0
   -0.7253    0.9751   -0.4365 C   0  0  0  0  0  0  0  0  0  0  0  0
   -1.4711    0.8315   -1.2212 H   0  0  0  0  0  0  0  0  0  0  0  0
   -1.0654    1.7825    0.2135 H   0  0  0  0  0  0  0  0  0  0  0  0
    0.5922    1.3989   -1.0958 C   0  0  0  0  0  0  0  0  0  0  0  0
    0.4351    2.3271   -1.6442 H   0  0  0  0  0  0  0  0  0  0  0  0
    1.3339    1.5737   -0.3156 H   0  0  0  0  0  0  0  0  0  0  0  0
    1.2549    0.1700   -2.2493 S   0  0  0  0  0  0  0  0  0  0  0  0
    1.7215   -1.1325   -1.0799 C   0  0  0  0  0  0  0  0  0  0  0  0
    0.8393   -1.4721   -0.5365 H   0  0  0  0  0  0  0  0  0  0  0  0
    2.1516   -1.9720   -1.6268 H   0  0  0  0  0  0  0  0  0  0  0  0
    2.4595   -0.7474   -0.3757 H   0  0  0  0  0  0  0  0  0  0  0  0
   -0.1711   -0.0594    1.8296 C   0  0  0  0  0  0  0  0  0  0  0  0
    0.9865   -0.2908    2.1726 O   0  0  0  0  0  0  0  0  0  0  0  0
   -1.0921    0.4156    2.6780 N   0  0  0  0  0  0  0  0  0  0  0  0
   -2.0168    0.5953    2.3206 H   0  0  0  0  0  0  0  0  0  0  0  0
   -0.8319    0.7034    4.0877 C   0  0  0  0  0  0  0  0  0  0  0  0
   -0.0192    1.4288    4.1710 H   0  0  0  0  0  0  0  0  0  0  0  0
   -1.7255    1.1088    4.5641 H   0  0  0  0  0  0  0  0  0  0  0  0
   -0.5319   -0.2118    4.6011 H   0  0  0  0  0  0  0  0  0  0  0  0
  5  6  2  0  0  0  0
  5  7  1  0  0  0  0
  2  3  1  0  0  0  0
  2  4  1  0  0  0  0
  2  5  1  0  0  0  0
  1  2  1  0  0  0  0
 22 23  2  0  0  0  0
 22 24  1  0  0  0  0
 18 19  1  0  0  0  0
 18 20  1  0  0  0  0
 18 21  1  0  0  0  0
 17 18  1  0  0  0  0
 14 15  1  0  0  0  0
 14 16  1  0  0  0  0
 14 17  1  0  0  0  0
 11 12  1  0  0  0  0
 11 13  1  0  0  0  0
 11 14  1  0  0  0  0
  9 10  1  0  0  0  0
  9 11  1  0  0  0  0
  9 22  1  0  0  0  0
  7  8  1  0  0  0  0
  7  9  1  0  0  0  0
 26 27  1  0  0  0  0
 26 28  1  0  0  0  0
 26 29  1  0  0  0  0
 24 25  1  0  0  0  0
 24 26  1  0  0  0  0
M  END
$$$$
default_name
  -OEChem-02102213163D

 29 28  0     1  0  0  0  0  0999 V2000
   -3.5781   -3.7296    1.2702 H   0  0  0  0  0  0  0  0  0  0  0  0
   -3.5311   -2.7616    0.7732 C   0  0  0  0  0  0  0  0  0  0  0  0
   -4.2371   -2.0766    1.2382 H   0  0  0  0  0  0  0  0  0  0  0  0
   -3.7681   -2.8816   -0.2818 H   0  0  0  0  0  0  0  0  0  0  0  0
   -2.1321   -2.2086    0.9112 C   0  0  0  0  0  0  0  0  0  0  0  0
   -1.2751   -2.8426    1.5112 O   0  0  0  0  0  0  0  0  0  0  0  0
   -1.9041   -1.0186    0.3602 N   0  0  0  0  0  0  0  0  0  0  0  0
   -2.6671   -0.5416   -0.0988 H   0  0  0  0  0  0  0  0  0  0  0  0
   -0.6131   -0.3236    0.3832 C   0  0  1  0  0  0  0  0  0  0  0  0
    0.1346   -0.9625   -0.0894 H   0  0  0  0  0  0  0  0  0  0  0  0
   -0.7253    0.9751   -0.4365 C   0  0  0  0  0  0  0  0  0  0  0  0
   -1.4711    0.8315   -1.2212 H   0  0  0  0  0  0  0  0  0  0  0  0
   -1.0654    1.7825    0.2135 H   0  0  0  0  0  0  0  0  0  0  0  0
    0.5922    1.3989   -1.0958 C   0  0  0  0  0  0  0  0  0  0  0  0
    0.5150    2.4384   -1.4130 H   0  0  0  0  0  0  0  0  0  0  0  0
    1.3942    1.3150   -0.3615 H   0  0  0  0  0  0  0  0  0  0  0  0
    1.0342    0.4016   -2.5414 S   0  0  0  0  0  0  0  0  0  0  0  0
    1.4102   -1.1730   -1.7282 C   0  0  0  0  0  0  0  0  0  0  0  0
    0.5273   -1.5339   -1.1998 H   0  0  0  0  0  0  0  0  0  0  0  0
    1.7039   -1.9066   -2.4794 H   0  0  0  0  0  0  0  0  0  0  0  0
    2.2291   -1.0357   -1.0215 H   0  0  0  0  0  0  0  0  0  0  0  0
   -0.1711   -0.0594    1.8296 C   0  0  0  0  0  0  0  0  0  0  0  0
    0.9865   -0.2908    2.1726 O   0  0  0  0  0  0  0  0  0  0  0  0
   -1.0921    0.4156    2.6780 N   0  0  0  0  0  0  0  0  0  0  0  0
   -2.0168    0.5953    2.3206 H   0  0  0  0  0  0  0  0  0  0  0  0
   -0.8319    0.7034    4.0877 C   0  0  0  0  0  0  0  0  0  0  0  0
   -0.0192    1.4288    4.1710 H   0  0  0  0  0  0  0  0  0  0  0  0
   -1.7255    1.1088    4.5641 H   0  0  0  0  0  0  0  0  0  0  0  0
   -0.5319   -0.2118    4.6011 H   0  0  0  0  0  0  0  0  0  0  0  0
  5  6  2  0  0  0  0
  5  7  1  0  0  0  0
  2  3  1  0  0  0  0
  2  4  1  0  0  0  0
  2  5  1  0  0  0  0
  1  2  1  0  0  0  0
 22 23  2  0  0  0  0
 22 24  1  0  0  0  0
 18 19  1  0  0  0  0
 18 20  1  0  0  0  0
 18 21  1  0  0  0  0
 17 18  1  0  0  0  0
 14 15  1  0  0  0  0
 14 16  1  0  0  0  0
 14 17  1  0  0  0  0
 11 12  1  0  0  0  0
 11 13  1  0  0  0  0
 11 14  1  0  0  0  0
  9 10  1  0  0  0  0
  9 11  1  0  0  0  0
  9 22  1  0  0  0  0
  7  8  1  0  0  0  0
  7  9  1  0  0  0  0
 26 27  1  0  0  0  0
 26 28  1  0  0  0  0
 26 29  1  0  0  0  0
 24 25  1  0  0  0  0
 24 26  1  0  0  0  0
M  END
$$$$
default_name
  -OEChem-02102213163D

 29 28  0     1  0  0  0  0  0999 V2000
   -3.5781   -3.7296    1.2702 H   0  0  0  0  0  0  0  0  0  0  0  0
   -3.5311   -2.7616    0.7732 C   0  0  0  0  0  0  0  0  0  0  0  0
   -4.2371   -2.0766    1.2382 H   0  0  0  0  0  0  0  0  0  0  0  0
   -3.7681   -2.8816   -0.2818 H   0  0  0  0  0  0  0  0  0  0  0  0
   -2.1321   -2.2086    0.9112 C   0  0  0  0  0  0  0  0  0  0  0  0
   -1.2751   -2.8426    1.5112 O   0  0  0  0  0  0  0  0  0  0  0  0
   -1.9041   -1.0186    0.3602 N   0  0  0  0  0  0  0  0  0  0  0  0
   -2.6671   -0.5416   -0.0988 H   0  0  0  0  0  0  0  0  0  0  0  0
   -0.6131   -0.3236    0.3832 C   0  0  1  0  0  0  0  0  0  0  0  0
    0.1346   -0.9625   -0.0894 H   0  0  0  0  0  0  0  0  0  0  0  0
   -0.7253    0.9751   -0.4365 C   0  0  0  0  0  0  0  0  0  0  0  0
   -1.4711    0.8315   -1.2212 H   0  0  0  0  0  0  0  0  0  0  0  0
   -1.0654    1.7825    0.2135 H   0  0  0  0  0  0  0  0  0  0  0  0
    0.5922    1.3989   -1.0958 C   0  0  0  0  0  0  0  0  0  0  0  0
    0.6211    2.4855   -1.1707 H   0  0  0  0  0  0  0  0  0  0  0  0
    1.4203    1.0685   -0.4677 H   0  0  0  0  0  0  0  0  0  0  0  0
    0.8260    0.7148   -2.7562 S   0  0  0  0  0  0  0  0  0  0  0  0
    1.0585   -1.0332   -2.3411 C   0  0  0  0  0  0  0  0  0  0  0  0
    0.1715   -1.4113   -1.8320 H   0  0  0  0  0  0  0  0  0  0  0  0
    1.2177   -1.6039   -3.2564 H   0  0  0  0  0  0  0  0  0  0  0  0
    1.9282   -1.1448   -1.6930 H   0  0  0  0  0  0  0  0  0  0  0  0
   -0.1711   -0.0594    1.8296 C   0  0  0  0  0  0  0  0  0  0  0  0
    0.9865   -0.2908    2.1726 O   0  0  0  0  0  0  0  0  0  0  0  0
   -1.0921    0.4156    2.6780 N   0  0  0  0  0  0  0  0  0  0  0  0
   -2.0168    0.5953    2.3206 H   0  0  0  0  0  0  0  0  0  0  0  0
   -0.8319    0.7034    4.0877 C   0  0  0  0  0  0  0  0  0  0  0  0
   -0.0192    1.4288    4.1710 H   0  0  0  0  0  0  0  0  0  0  0  0
   -1.7255    1.1088    4.5641 H   0  0  0  0  0  0  0  0  0  0  0  0
   -0.5319   -0.2118    4.6011 H   0  0  0  0  0  0  0  0  0  0  0  0
  5  6  2  0  0  0  0
  5  7  1  0  0  0  0
  2  3  1  0  0  0  0
  2  4  1  0  0  0  0
  2  5  1  0  0  0  0
  1  2  1  0  0  0  0
 22 23  2  0  0  0  0
 22 24  1  0  0  0  0
 18 19  1  0  0  0  0
 18 20  1  0  0  0  0
 18 21  1  0  0  0  0
 17 18  1  0  0  0  0
 14 15  1  0  0  0  0
 14 16  1  0  0  0  0
 14 17  1  0  0  0  0
 11 12  1  0  0  0  0
 11 13  1  0  0  0  0
 11 14  1  0  0  0  0
  9 10  1  0  0  0  0
  9 11  1  0  0  0  0
  9 22  1  0  0  0  0
  7  8  1  0  0  0  0
  7  9  1  0  0  0  0
 26 27  1  0  0  0  0
 26 28  1  0  0  0  0
 26 29  1  0  0  0  0
 24 25  1  0  0  0  0
 24 26  1  0  0  0  0
M  END
$$$$
default_name
  -OEChem-02102213163D

 29 28  0     1  0  0  0  0  0999 V2000
   -3.5781   -3.7296    1.2702 H   0  0  0  0  0  0  0  0  0  0  0  0
   -3.5311   -2.7616    0.7732 C   0  0  0  0  0  0  0  0  0  0  0  0
   -4.2371   -2.0766    1.2382 H   0  0  0  0  0  0  0  0  0  0  0  0
   -3.7681   -2.8816   -0.2818 H   0  0  0  0  0  0  0  0  0  0  0  0
   -2.1321   -2.2086    0.9112 C   0  0  0  0  0  0  0  0  0  0  0  0
   -1.2751   -2.8426    1.5112 O   0  0  0  0  0  0  0  0  0  0  0  0
   -1.9041   -1.0186    0.3602 N   0  0  0  0  0  0  0  0  0  0  0  0
   -2.6671   -0.5416   -0.0988 H   0  0  0  0  0  0  0  0  0  0  0  0
   -0.6131   -0.3236    0.3832 C   0  0  1  0  0  0  0  0  0  0  0  0
    0.1346   -0.9625   -0.0894 H   0  0  0  0  0  0  0  0  0  0  0  0
   -0.7253    0.9751   -0.4365 C   0  0  0  0  0  0  0  0  0  0  0  0
   -1.4711    0.8315   -1.2212 H   0  0  0  0  0  0  0  0  0  0  0  0
   -1.0654    1.7825    0.2135 H   0  0  0  0  0  0  0  0  0  0  0  0
    0.5922    1.3989   -1.0958 C   0  0  0  0  0  0  0  0  0  0  0  0
    0.7462    2.4652   -0.9337 H   0  0  0  0  0  0  0  0  0  0  0  0
    1.4106    0.8512   -0.6269 H   0  0  0  0  0  0  0  0  0  0  0  0
    0.6443    1.0883   -2.8792 S   0  0  0  0  0  0  0  0  0  0  0  0
    0.6905   -0.7227   -2.8769 C   0  0  0  0  0  0  0  0  0  0  0  0
   -0.2037   -1.1127   -2.3898 H   0  0  0  0  0  0  0  0  0  0  0  0
    0.7262   -1.0846   -3.9048 H   0  0  0  0  0  0  0  0  0  0  0  0
    1.5773   -1.0674   -2.3443 H   0  0  0  0  0  0  0  0  0  0  0  0
   -0.1711   -0.0594    1.8296 C   0  0  0  0  0  0  0  0  0  0  0  0
    0.9865   -0.2908    2.1726 O   0  0  0  0  0  0  0  0  0  0  0  0
   -1.0921    0.4156    2.6780 N   0  0  0  0  0  0  0  0  0  0  0  0
   -2.0168    0.5953    2.3206 H   0  0  0  0  0  0  0  0  0  0  0  0
   -0.8319    0.7034    4.0877 C   0  0  0  0  0  0  0  0  0  0  0  0
   -0.0192    1.4288    4.1710 H   0  0  0  0  0  0  0  0  0  0  0  0
   -1.7255    1.1088    4.5641 H   0  0  0  0  0  0  0  0  0  0  0  0
   -0.5319   -0.2118    4.6011 H   0  0  0  0  0  0  0  0  0  0  0  0
  5  6  2  0  0  0  0
  5  7  1  0  0  0  0
  2  3  1  0  0  0  0
  2  4  1  0  0  0  0
  2  5  1  0  0  0  0
  1  2  1  0  0  0  0
 22 23  2  0  0  0  0
 22 24  1  0  0  0  0
 18 19  1  0  0  0  0
 18 20  1  0  0  0  0
 18 21  1  0  0  0  0
 17 18  1  0  0  0  0
 14 15  1  0  0  0  0
 14 16  1  0  0  0  0
 14 17  1  0  0  0  0
 11 12  1  0  0  0  0
 11 13  1  0  0  0  0
 11 14  1  0  0  0  0
  9 10  1  0  0  0  0
  9 11  1  0  0  0  0
  9 22  1  0  0  0  0
  7  8  1  0  0  0  0
  7  9  1  0  0  0  0
 26 27  1  0  0  0  0
 26 28  1  0  0  0  0
 26 29  1  0  0  0  0
 24 25  1  0  0  0  0
 24 26  1  0  0  0  0
M  END
$$$$
default_name
  -OEChem-02102213163D

 29 28  0     1  0  0  0  0  0999 V2000
   -3.5781   -3.7296    1.2702 H   0  0  0  0  0  0  0  0  0  0  0  0
   -3.5311   -2.7616    0.7732 C   0  0  0  0  0  0  0  0  0  0  0  0
   -4.2371   -2.0766    1.2382 H   0  0  0  0  0  0  0  0  0  0  0  0
   -3.7681   -2.8816   -0.2818 H   0  0  0  0  0  0  0  0  0  0  0  0
   -2.1321   -2.2086    0.9112 C   0  0  0  0  0  0  0  0  0  0  0  0
   -1.2751   -2.8426    1.5112 O   0  0  0  0  0  0  0  0  0  0  0  0
   -1.9041   -1.0186    0.3602 N   0  0  0  0  0  0  0  0  0  0  0  0
   -2.6671   -0.5416   -0.0988 H   0  0  0  0  0  0  0  0  0  0  0  0
   -0.6131   -0.3236    0.3832 C   0  0  1  0  0  0  0  0  0  0  0  0
    0.1346   -0.9625   -0.0894 H   0  0  0  0  0  0  0  0  0  0  0  0
   -0.7253    0.9751   -0.4365 C   0  0  0  0  0  0  0  0  0  0  0  0
   -1.4711    0.8315   -1.2212 H   0  0  0  0  0  0  0  0  0  0  0  0
   -1.0654    1.7825    0.2135 H   0  0  0  0  0  0  0  0  0  0  0  0
    0.5922    1.3989   -1.0958 C   0  0  0  0  0  0  0  0  0  0  0  0
    0.8817    2.3791   -0.7183 H   0  0  0  0  0  0  0  0  0  0  0  0
    1.3655    0.6778   -0.8284 H   0  0  0  0  0  0  0  0  0  0  0  0
    0.5016    1.4966   -2.9018 S   0  0  0  0  0  0  0  0  0  0  0  0
    0.3313   -0.2627   -3.2990 C   0  0  0  0  0  0  0  0  0  0  0  0
   -0.5728   -0.6585   -2.8354 H   0  0  0  0  0  0  0  0  0  0  0  0
    0.2629   -0.3841   -4.3804 H   0  0  0  0  0  0  0  0  0  0  0  0
    1.2005   -0.8087   -2.9311 H   0  0  0  0  0  0  0  0  0  0  0  0
   -0.1711   -0.0594    1.8296 C   0  0  0  0  0  0  0  0  0  0  0  0
    0.9865   -0.2908    2.1726 O   0  0  0  0  0  0  0  0  0  0  0  0
   -1.0921    0.4156    2.6780 N   0  0  0  0  0  0  0  0  0  0  0  0
   -2.0168    0.5953    2.3206 H   0  0  0  0  0  0  0  0  0  0  0  0
   -0.8319    0.7034    4.0877 C   0  0  0  0  0  0  0  0  0  0  0  0
   -0.0192    1.4288    4.1710 H   0  0  0  0  0  0  0  0  0  0  0  0
   -1.7255    1.1088    4.5641 H   0  0  0  0  0  0  0  0  0  0  0  0
   -0.5319   -0.2118    4.6011 H   0  0  0  0  0  0  0  0  0  0  0  0
  5  6  2  0  0  0  0
  5  7  1  0  0  0  0
  2  3  1  0  0  0  0
  2  4  1  0  0  0  0
  2  5  1  0  0  0  0
  1  2  1  0  0  0  0
 22 23  2  0  0  0  0
 22 24  1  0  0  0  0
 18 19  1  0  0  0  0
 18 20  1  0  0  0  0
 18 21  1  0  0  0  0
 17 18  1  0  0  0  0
 14 15  1  0  0  0  0
 14 16  1  0  0  0  0
 14 17  1  0  0  0  0
 11 12  1  0  0  0  0
 11 13  1  0  0  0  0
 11 14  1  0  0  0  0
  9 10  1  0  0  0  0
  9 11  1  0  0  0  0
  9 22  1  0  0  0  0
  7  8  1  0  0  0  0
  7  9  1  0  0  0  0
 26 27  1  0  0  0  0
 26 28  1  0  0  0  0
 26 29  1  0  0  0  0
 24 25  1  0  0  0  0
 24 26  1  0  0  0  0
M  END
$$$$
default_name
  -OEChem-02102213163D

 29 28  0     1  0  0  0  0  0999 V2000
   -3.5781   -3.7296    1.2702 H   0  0  0  0  0  0  0  0  0  0  0  0
   -3.5311   -2.7616    0.7732 C   0  0  0  0  0  0  0  0  0  0  0  0
   -4.2371   -2.0766    1.2382 H   0  0  0  0  0  0  0  0  0  0  0  0
   -3.7681   -2.8816   -0.2818 H   0  0  0  0  0  0  0  0  0  0  0  0
   -2.1321   -2.2086    0.9112 C   0  0  0  0  0  0  0  0  0  0  0  0
   -1.2751   -2.8426    1.5112 O   0  0  0  0  0  0  0  0  0  0  0  0
   -1.9041   -1.0186    0.3602 N   0  0  0  0  0  0  0  0  0  0  0  0
   -2.6671   -0.5416   -0.0988 H   0  0  0  0  0  0  0  0  0  0  0  0
   -0.6131   -0.3236    0.3832 C   0  0  1  0  0  0  0  0  0  0  0  0
    0.1346   -0.9625   -0.0894 H   0  0  0  0  0  0  0  0  0  0  0  0
   -0.7253    0.9751   -0.4365 C   0  0  0  0  0  0  0  0  0  0  0  0
   -1.4711    0.8315   -1.2212 H   0  0  0  0  0  0  0  0  0  0  0  0
   -1.0654    1.7825    0.2135 H   0  0  0  0  0  0  0  0  0  0  0  0
    0.5922    1.3989   -1.0958 C   0  0  0  0  0  0  0  0  0  0  0  0
    1.0184    2.2329   -0.5390 H   0  0  0  0  0  0  0  0  0  0  0  0
    1.2883    0.5601   -1.0584 H   0  0  0  0  0  0  0  0  0  0  0  0
    0.4076    1.9119   -2.8227 S   0  0  0  0  0  0  0  0  0  0  0  0
    0.0054    0.3155   -3.5788 C   0  0  0  0  0  0  0  0  0  0  0  0
   -0.9106   -0.0795   -3.1384 H   0  0  0  0  0  0  0  0  0  0  0  0
   -0.1407    0.4499   -4.6509 H   0  0  0  0  0  0  0  0  0  0  0  0
    0.8233   -0.3863   -3.4134 H   0  0  0  0  0  0  0  0  0  0  0  0
   -0.1711   -0.0594    1.8296 C   0  0  0  0  0  0  0  0  0  0  0  0
    0.9865   -0.2908    2.1726 O   0  0  0  0  0  0  0  0  0  0  0  0
   -1.0921    0.4156    2.6780 N   0  0  0  0  0  0  0  0  0  0  0  0
   -2.0168    0.5953    2.3206 H   0  0  0  0  0  0  0  0  0  0  0  0
   -0.8319    0.7034    4.0877 C   0  0  0  0  0  0  0  0  0  0  0  0
   -0.0192    1.4288    4.1710 H   0  0  0  0  0  0  0  0  0  0  0  0
   -1.7255    1.1088    4.5641 H   0  0  0  0  0  0  0  0  0  0  0  0
   -0.5319   -0.2118    4.6011 H   0  0  0  0  0  0  0  0  0  0  0  0
  5  6  2  0  0  0  0
  5  7  1  0  0  0  0
  2  3  1  0  0  0  0
  2  4  1  0  0  0  0
  2  5  1  0  0  0  0
  1  2  1  0  0  0  0
 22 23  2  0  0  0  0
 22 24  1  0  0  0  0
 18 19  1  0  0  0  0
 18 20  1  0  0  0  0
 18 21  1  0  0  0  0
 17 18  1  0  0  0  0
 14 15  1  0  0  0  0
 14 16  1  0  0  0  0
 14 17  1  0  0  0  0
 11 12  1  0  0  0  0
 11 13  1  0  0  0  0
 11 14  1  0  0  0  0
  9 10  1  0  0  0  0
  9 11  1  0  0  0  0
  9 22  1  0  0  0  0
  7  8  1  0  0  0  0
  7  9  1  0  0  0  0
 26 27  1  0  0  0  0
 26 28  1  0  0  0  0
 26 29  1  0  0  0  0
 24 25  1  0  0  0  0
 24 26  1  0  0  0  0
M  END
$$$$
default_name
  -OEChem-02102213163D

 29 28  0     1  0  0  0  0  0999 V2000
   -3.5781   -3.7296    1.2702 H   0  0  0  0  0  0  0  0  0  0  0  0
   -3.5311   -2.7616    0.7732 C   0  0  0  0  0  0  0  0  0  0  0  0
   -4.2371   -2.0766    1.2382 H   0  0  0  0  0  0  0  0  0  0  0  0
   -3.7681   -2.8816   -0.2818 H   0  0  0  0  0  0  0  0  0  0  0  0
   -2.1321   -2.2086    0.9112 C   0  0  0  0  0  0  0  0  0  0  0  0
   -1.2751   -2.8426    1.5112 O   0  0  0  0  0  0  0  0  0  0  0  0
   -1.9041   -1.0186    0.3602 N   0  0  0  0  0  0  0  0  0  0  0  0
   -2.6671   -0.5416   -0.0988 H   0  0  0  0  0  0  0  0  0  0  0  0
   -0.6131   -0.3236    0.3832 C   0  0  1  0  0  0  0  0  0  0  0  0
    0.1346   -0.9625   -0.0894 H   0  0  0  0  0  0  0  0  0  0  0  0
   -0.7253    0.9751   -0.4365 C   0  0  0  0  0  0  0  0  0  0  0  0
   -1.4711    0.8315   -1.2212 H   0  0  0  0  0  0  0  0  0  0  0  0
   -1.0654    1.7825    0.2135 H   0  0  0  0  0  0  0  0  0  0  0  0
    0.5922    1.3989   -1.0958 C   0  0  0  0  0  0  0  0  0  0  0  0
    1.1470    2.0365   -0.4082 H   0  0  0  0  0  0  0  0  0  0  0  0
    1.1842    0.5062   -1.3011 H   0  0  0  0  0  0  0  0  0  0  0  0
    0.3687    2.3059   -2.6472 S   0  0  0  0  0  0  0  0  0  0  0  0
   -0.2651    0.9726   -3.6970 C   0  0  0  0  0  0  0  0  0  0  0  0
   -1.1941    0.5848   -3.2780 H   0  0  0  0  0  0  0  0  0  0  0  0
   -0.4571    1.3606   -4.6977 H   0  0  0  0  0  0  0  0  0  0  0  0
    0.4714    0.1710   -3.7583 H   0  0  0  0  0  0  0  0  0  0  0  0
   -0.1711   -0.0594    1.8296 C   0  0  0  0  0  0  0  0  0  0  0  0
    0.9865   -0.2908    2.1726 O   0  0  0  0  0  0  0  0  0  0  0  0
   -1.0921    0.4156    2.6780 N   0  0  0  0  0  0  0  0  0  0  0  0
   -2.0168    0.5953    2.3206 H   0  0  0  0  0  0  0  0  0  0  0  0
   -0.8319    0.7034    4.0877 C   0  0  0  0  0  0  0  0  0  0  0  0
   -0.0192    1.4288    4.1710 H   0  0  0  0  0  0  0  0  0  0  0  0
   -1.7255    1.1088    4.5641 H   0  0  0  0  0  0  0  0  0  0  0  0
   -0.5319   -0.2118    4.6011 H   0  0  0  0  0  0  0  0  0  0  0  0
  5  6  2  0  0  0  0
  5  7  1  0  0  0  0
  2  3  1  0  0  0  0
  2  4  1  0  0  0  0
  2  5  1  0  0  0  0
  1  2  1  0  0  0  0
 22 23  2  0  0  0  0
 22 24  1  0  0  0  0
 18 19  1  0  0  0  0
 18 20  1  0  0  0  0
 18 21  1  0  0  0  0
 17 18  1  0  0  0  0
 14 15  1  0  0  0  0
 14 16  1  0  0  0  0
 14 17  1  0  0  0  0
 11 12  1  0  0  0  0
 11 13  1  0  0  0  0
 11 14  1  0  0  0  0
  9 10  1  0  0  0  0
  9 11  1  0  0  0  0
  9 22  1  0  0  0  0
  7  8  1  0  0  0  0
  7  9  1  0  0  0  0
 26 27  1  0  0  0  0
 26 28  1  0  0  0  0
 26 29  1  0  0  0  0
 24 25  1  0  0  0  0
 24 26  1  0  0  0  0
M  END
$$$$
default_name
  -OEChem-02102213163D

 29 28  0     1  0  0  0  0  0999 V2000
   -3.5781   -3.7296    1.2702 H   0  0  0  0  0  0  0  0  0  0  0  0
   -3.5311   -2.7616    0.7732 C   0  0  0  0  0  0  0  0  0  0  0  0
   -4.2371   -2.0766    1.2382 H   0  0  0  0  0  0  0  0  0  0  0  0
   -3.7681   -2.8816   -0.2818 H   0  0  0  0  0  0  0  0  0  0  0  0
   -2.1321   -2.2086    0.9112 C   0  0  0  0  0  0  0  0  0  0  0  0
   -1.2751   -2.8426    1.5112 O   0  0  0  0  0  0  0  0  0  0  0  0
   -1.9041   -1.0186    0.3602 N   0  0  0  0  0  0  0  0  0  0  0  0
   -2.6671   -0.5416   -0.0988 H   0  0  0  0  0  0  0  0  0  0  0  0
   -0.6131   -0.3236    0.3832 C   0  0  1  0  0  0  0  0  0  0  0  0
    0.1346   -0.9625   -0.0894 H   0  0  0  0  0  0  0  0  0  0  0  0
   -0.7253    0.9751   -0.4365 C   0  0  0  0  0  0  0  0  0  0  0  0
   -1.4711    0.8315   -1.2212 H   0  0  0  0  0  0  0  0  0  0  0  0
   -1.0654    1.7825    0.2135 H   0  0  0  0  0  0  0  0  0  0  0  0
    0.5922    1.3989   -1.0958 C   0  0  0  0  0  0  0  0  0  0  0  0
    1.2588    1.8035   -0.3347 H   0  0  0  0  0  0  0  0  0  0  0  0
    1.0602    0.5197   -1.5402 H   0  0  0  0  0  0  0  0  0  0  0  0
    0.3876    2.6518   -2.3872 S   0  0  0  0  0  0  0  0  0  0  0  0
   -0.4618    1.6636   -3.6457 C   0  0  0  0  0  0  0  0  0  0  0  0
   -1.4041    1.2890   -3.2449 H   0  0  0  0  0  0  0  0  0  0  0  0
   -0.6646    2.2859   -4.5177 H   0  0  0  0  0  0  0  0  0  0  0  0
    0.1689    0.8251   -3.9424 H   0  0  0  0  0  0  0  0  0  0  0  0
   -0.1711   -0.0594    1.8296 C   0  0  0  0  0  0  0  0  0  0  0  0
    0.9865   -0.2908    2.1726 O   0  0  0  0  0  0  0  0  0  0  0  0
   -1.0921    0.4156    2.6780 N   0  0  0  0  0  0  0  0  0  0  0  0
   -2.0168    0.5953    2.3206 H   0  0  0  0  0  0  0  0  0  0  0  0
   -0.8319    0.7034    4.0877 C   0  0  0  0  0  0  0  0  0  0  0  0
   -0.0192    1.4288    4.1710 H   0  0  0  0  0  0  0  0  0  0  0  0
   -1.7255    1.1088    4.5641 H   0  0  0  0  0  0  0  0  0  0  0  0
   -0.5319   -0.2118    4.6011 H   0  0  0  0  0  0  0  0  0  0  0  0
  5  6  2  0  0  0  0
  5  7  1  0  0  0  0
  2  3  1  0  0  0  0
  2  4  1  0  0  0  0
  2  5  1  0  0  0  0
  1  2  1  0  0  0  0
 22 23  2  0  0  0  0
 22 24  1  0  0  0  0
 18 19  1  0  0  0  0
 18 20  1  0  0  0  0
 18 21  1  0  0  0  0
 17 18  1  0  0  0  0
 14 15  1  0  0  0  0
 14 16  1  0  0  0  0
 14 17  1  0  0  0  0
 11 12  1  0  0  0  0
 11 13  1  0  0  0  0
 11 14  1  0  0  0  0
  9 10  1  0  0  0  0
  9 11  1  0  0  0  0
  9 22  1  0  0  0  0
  7  8  1  0  0  0  0
  7  9  1  0  0  0  0
 26 27  1  0  0  0  0
 26 28  1  0  0  0  0
 26 29  1  0  0  0  0
 24 25  1  0  0  0  0
 24 26  1  0  0  0  0
M  END
$$$$
default_name
  -OEChem-02102213163D

 29 28  0     1  0  0  0  0  0999 V2000
   -3.5781   -3.7296    1.2702 H   0  0  0  0  0  0  0  0  0  0  0  0
   -3.5311   -2.7616    0.7732 C   0  0  0  0  0  0  0  0  0  0  0  0
   -4.2371   -2.0766    1.2382 H   0  0  0  0  0  0  0  0  0  0  0  0
   -3.7681   -2.8816   -0.2818 H   0  0  0  0  0  0  0  0  0  0  0  0
   -2.1321   -2.2086    0.9112 C   0  0  0  0  0  0  0  0  0  0  0  0
   -1.2751   -2.8426    1.5112 O   0  0  0  0  0  0  0  0  0  0  0  0
   -1.9041   -1.0186    0.3602 N   0  0  0  0  0  0  0  0  0  0  0  0
   -2.6671   -0.5416   -0.0988 H   0  0  0  0  0  0  0  0  0  0  0  0
   -0.6131   -0.3236    0.3832 C   0  0  1  0  0  0  0  0  0  0  0  0
    0.1346   -0.9625   -0.0894 H   0  0  0  0  0  0  0  0  0  0  0  0
   -0.7253    0.9751   -0.4365 C   0  0  0  0  0  0  0  0  0  0  0  0
   -1.6377    0.9345   -1.0353 H   0  0  0  0  0  0  0  0  0  0  0  0
   -0.8016    1.8245    0.2438 H   0  0  0  0  0  0  0  0  0  0  0  0
    0.4603    1.2080   -1.3800 C   0  0  0  0  0  0  0  0  0  0  0  0
    1.3786    1.2546   -0.7954 H   0  0  0  0  0  0  0  0  0  0  0  0
    0.5275    0.3679   -2.0721 H   0  0  0  0  0  0  0  0  0  0  0  0
    0.3307    2.7349   -2.3453 S   0  0  0  0  0  0  0  0  0  0  0  0
   -1.0479    2.2959   -3.4355 C   0  0  0  0  0  0  0  0  0  0  0  0
   -1.9339    2.0781   -2.8384 H   0  0  0  0  0  0  0  0  0  0  0  0
   -1.2612    3.1315   -4.1027 H   0  0  0  0  0  0  0  0  0  0  0  0
   -0.7828    1.4210   -4.0297 H   0  0  0  0  0  0  0  0  0  0  0  0
   -0.1711   -0.0594    1.8296 C   0  0  0  0  0  0  0  0  0  0  0  0
    0.9865   -0.2908    2.1726 O   0  0  0  0  0  0  0  0  0  0  0  0
   -1.0921    0.4156    2.6780 N   0  0  0  0  0  0  0  0  0  0  0  0
   -2.0168    0.5953    2.3206 H   0  0  0  0  0  0  0  0  0  0  0  0
   -0.8319    0.7034    4.0877 C   0  0  0  0  0  0  0  0  0  0  0  0
   -0.0192    1.4288    4.1710 H   0  0  0  0  0  0  0  0  0  0  0  0
   -1.7255    1.1088    4.5641 H   0  0  0  0  0  0  0  0  0  0  0  0
   -0.5319   -0.2118    4.6011 H   0  0  0  0  0  0  0  0  0  0  0  0
  5  6  2  0  0  0  0
  5  7  1  0  0  0  0
  2  3  1  0  0  0  0
  2  4  1  0  0  0  0
  2  5  1  0  0  0  0
  1  2  1  0  0  0  0
 22 23  2  0  0  0  0
 22 24  1  0  0  0  0
 18 19  1  0  0  0  0
 18 20  1  0  0  0  0
 18 21  1  0  0  0  0
 17 18  1  0  0  0  0
 14 15  1  0  0  0  0
 14 16  1  0  0  0  0
 14 17  1  0  0  0  0
 11 12  1  0  0  0  0
 11 13  1  0  0  0  0
 11 14  1  0  0  0  0
  9 10  1  0  0  0  0
  9 11  1  0  0  0  0
  9 22  1  0  0  0  0
  7  8  1  0  0  0  0
  7  9  1  0  0  0  0
 26 27  1  0  0  0  0
 26 28  1  0  0  0  0
 26 29  1  0  0  0  0
 24 25  1  0  0  0  0
 24 26  1  0  0  0  0
M  END
$$$$
default_name
  -OEChem-02102213163D

 29 28  0     1  0  0  0  0  0999 V2000
   -3.5781   -3.7296    1.2702 H   0  0  0  0  0  0  0  0  0  0  0  0
   -3.5311   -2.7616    0.7732 C   0  0  0  0  0  0  0  0  0  0  0  0
   -4.2371   -2.0766    1.2382 H   0  0  0  0  0  0  0  0  0  0  0  0
   -3.7681   -2.8816   -0.2818 H   0  0  0  0  0  0  0  0  0  0  0  0
   -2.1321   -2.2086    0.9112 C   0  0  0  0  0  0  0  0  0  0  0  0
   -1.2751   -2.8426    1.5112 O   0  0  0  0  0  0  0  0  0  0  0  0
   -1.9041   -1.0186    0.3602 N   0  0  0  0  0  0  0  0  0  0  0  0
   -2.6671   -0.5416   -0.0988 H   0  0  0  0  0  0  0  0  0  0  0  0
   -0.6131   -0.3236    0.3832 C   0  0  1  0  0  0  0  0  0  0  0  0
    0.1346   -0.9625   -0.0894 H   0  0  0  0  0  0  0  0  0  0  0  0
   -0.7253    0.9751   -0.4365 C   0  0  0  0  0  0  0  0  0  0  0  0
   -1.6377    0.9345   -1.0353 H   0  0  0  0  0  0  0  0  0  0  0  0
   -0.8016    1.8245    0.2438 H   0  0  0  0  0  0  0  0  0  0  0  0
    0.4603    1.2080   -1.3800 C   0  0  0  0  0  0  0  0  0  0  0  0
    1.3871    0.9916   -0.8496 H   0  0  0  0  0  0  0  0  0  0  0  0
    0.3734    0.5262   -2.2267 H   0  0  0  0  0  0  0  0  0  0  0  0
    0.5595    2.9004   -2.0169 S   0  0  0  0  0  0  0  0  0  0  0  0
   -0.8971    2.9119   -3.0939 C   0  0  0  0  0  0  0  0  0  0  0  0
   -1.7928    2.7175   -2.5031 H   0  0  0  0  0  0  0  0  0  0  0  0
   -0.9865    3.8884   -3.5706 H   0  0  0  0  0  0  0  0  0  0  0  0
   -0.7922    2.1458   -3.8626 H   0  0  0  0  0  0  0  0  0  0  0  0
   -0.1711   -0.0594    1.8296 C   0  0  0  0  0  0  0  0  0  0  0  0
    0.9865   -0.2908    2.1726 O   0  0  0  0  0  0  0  0  0  0  0  0
   -1.0921    0.4156    2.6780 N   0  0  0  0  0  0  0  0  0  0  0  0
   -2.0168    0.5953    2.3206 H   0  0  0  0  0  0  0  0  0  0  0  0
   -0.8319    0.7034    4.0877 C   0  0  0  0  0  0  0  0  0  0  0  0
   -0.0192    1.4288    4.1710 H   0  0  0  0  0  0  0  0  0  0  0  0
   -1.7255    1.1088    4.5641 H   0  0  0  0  0  0  0  0  0  0  0  0
   -0.5319   -0.2118    4.6011 H   0  0  0  0  0  0  0  0  0  0  0  0
  5  6  2  0  0  0  0
  5  7  1  0  0  0  0
  2  3  1  0  0  0  0
  2  4  1  0  0  0  0
  2  5  1  0  0  0  0
  1  2  1  0  0  0  0
 22 23  2  0  0  0  0
 22 24  1  0  0  0  0
 18 19  1  0  0  0  0
 18 20  1  0  0  0  0
 18 21  1  0  0  0  0
 17 18  1  0  0  0  0
 14 15  1  0  0  0  0
 14 16  1  0  0  0  0
 14 17  1  0  0  0  0
 11 12  1  0  0  0  0
 11 13  1  0  0  0  0
 11 14  1  0  0  0  0
  9 10  1  0  0  0  0
  9 11  1  0  0  0  0
  9 22  1  0  0  0  0
  7  8  1  0  0  0  0
  7  9  1  0  0  0  0
 26 27  1  0  0  0  0
 26 28  1  0  0  0  0
 26 29  1  0  0  0  0
 24 25  1  0  0  0  0
 24 26  1  0  0  0  0
M  END
$$$$
default_name
  -OEChem-02102213163D

 29 28  0     1  0  0  0  0  0999 V2000
   -3.5781   -3.7296    1.2702 H   0  0  0  0  0  0  0  0  0  0  0  0
   -3.5311   -2.7616    0.7732 C   0  0  0  0  0  0  0  0  0  0  0  0
   -4.2371   -2.0766    1.2382 H   0  0  0  0  0  0  0  0  0  0  0  0
   -3.7681   -2.8816   -0.2818 H   0  0  0  0  0  0  0  0  0  0  0  0
   -2.1321   -2.2086    0.9112 C   0  0  0  0  0  0  0  0  0  0  0  0
   -1.2751   -2.8426    1.5112 O   0  0  0  0  0  0  0  0  0  0  0  0
   -1.9041   -1.0186    0.3602 N   0  0  0  0  0  0  0  0  0  0  0  0
   -2.6671   -0.5416   -0.0988 H   0  0  0  0  0  0  0  0  0  0  0  0
   -0.6131   -0.3236    0.3832 C   0  0  1  0  0  0  0  0  0  0  0  0
    0.1346   -0.9625   -0.0894 H   0  0  0  0  0  0  0  0  0  0  0  0
   -0.7253    0.9751   -0.4365 C   0  0  0  0  0  0  0  0  0  0  0  0
   -1.6377    0.9345   -1.0353 H   0  0  0  0  0  0  0  0  0  0  0  0
   -0.8016    1.8245    0.2438 H   0  0  0  0  0  0  0  0  0  0  0  0
    0.4603    1.2080   -1.3800 C   0  0  0  0  0  0  0  0  0  0  0  0
    1.3513    0.7470   -0.9549 H   0  0  0  0  0  0  0  0  0  0  0  0
    0.2437    0.7345   -2.3383 H   0  0  0  0  0  0  0  0  0  0  0  0
    0.8197    2.9582   -1.6755 S   0  0  0  0  0  0  0  0  0  0  0  0
   -0.6399    3.4145   -2.6466 C   0  0  0  0  0  0  0  0  0  0  0  0
   -1.5414    3.2455   -2.0568 H   0  0  0  0  0  0  0  0  0  0  0  0
   -0.5796    4.4693   -2.9158 H   0  0  0  0  0  0  0  0  0  0  0  0
   -0.6793    2.8139   -3.5558 H   0  0  0  0  0  0  0  0  0  0  0  0
   -0.1711   -0.0594    1.8296 C   0  0  0  0  0  0  0  0  0  0  0  0
    0.9865   -0.2908    2.1726 O   0  0  0  0  0  0  0  0  0  0  0  0
   -1.0921    0.4156    2.6780 N   0  0  0  0  0  0  0  0  0  0  0  0
   -2.0168    0.5953    2.3206 H   0  0  0  0  0  0  0  0  0  0  0  0
   -0.8319    0.7034    4.0877 C   0  0  0  0  0  0  0  0  0  0  0  0
   -0.0192    1.4288    4.1710 H   0  0  0  0  0  0  0  0  0  0  0  0
   -1.7255    1.1088    4.5641 H   0  0  0  0  0  0  0  0  0  0  0  0
   -0.5319   -0.2118    4.6011 H   0  0  0  0  0  0  0  0  0  0  0  0
  5  6  2  0  0  0  0
  5  7  1  0  0  0  0
  2  3  1  0  0  0  0
  2  4  1  0  0  0  0
  2  5  1  0  0  0  0
  1  2  1  0  0  0  0
 22 23  2  0  0  0  0
 22 24  1  0  0  0  0
 18 19  1  0  0  0  0
 18 20  1  0  0  0  0
 18 21  1  0  0  0  0
 17 18  1  0  0  0  0
 14 15  1  0  0  0  0
 14 16  1  0  0  0  0
 14 17  1  0  0  0  0
 11 12  1  0  0  0  0
 11 13  1  0  0  0  0
 11 14  1  0  0  0  0
  9 10  1  0  0  0  0
  9 11  1  0  0  0  0
  9 22  1  0  0  0  0
  7  8  1  0  0  0  0
  7  9  1  0  0  0  0
 26 27  1  0  0  0  0
 26 28  1  0  0  0  0
 26 29  1  0  0  0  0
 24 25  1  0  0  0  0
 24 26  1  0  0  0  0
M  END
$$$$
default_name
  -OEChem-02102213163D

 29 28  0     1  0  0  0  0  0999 V2000
   -3.5781   -3.7296    1.2702 H   0  0  0  0  0  0  0  0  0  0  0  0
   -3.5311   -2.7616    0.7732 C   0  0  0  0  0  0  0  0  0  0  0  0
   -4.2371   -2.0766    1.2382 H   0  0  0  0  0  0  0  0  0  0  0  0
   -3.7681   -2.8816   -0.2818 H   0  0  0  0  0  0  0  0  0  0  0  0
   -2.1321   -2.2086    0.9112 C   0  0  0  0  0  0  0  0  0  0  0  0
   -1.2751   -2.8426    1.5112 O   0  0  0  0  0  0  0  0  0  0  0  0
   -1.9041   -1.0186    0.3602 N   0  0  0  0  0  0  0  0  0  0  0  0
   -2.6671   -0.5416   -0.0988 H   0  0  0  0  0  0  0  0  0  0  0  0
   -0.6131   -0.3236    0.3832 C   0  0  1  0  0  0  0  0  0  0  0  0
    0.1346   -0.9625   -0.0894 H   0  0  0  0  0  0  0  0  0  0  0  0
   -0.7253    0.9751   -0.4365 C   0  0  0  0  0  0  0  0  0  0  0  0
   -1.6377    0.9345   -1.0353 H   0  0  0  0  0  0  0  0  0  0  0  0
   -0.8016    1.8245    0.2438 H   0  0  0  0  0  0  0  0  0  0  0  0
    0.4603    1.2080   -1.3800 C   0  0  0  0  0  0  0  0  0  0  0  0
    1.2737    0.5376   -1.1042 H   0  0  0  0  0  0  0  0  0  0  0  0
    0.1472    0.9788   -2.3992 H   0  0  0  0  0  0  0  0  0  0  0  0
    1.0938    2.9042   -1.3445 S   0  0  0  0  0  0  0  0  0  0  0  0
   -0.2938    3.7695   -2.1240 C   0  0  0  0  0  0  0  0  0  0  0  0
   -1.1969    3.6261   -1.5300 H   0  0  0  0  0  0  0  0  0  0  0  0
   -0.0683    4.8346   -2.1832 H   0  0  0  0  0  0  0  0  0  0  0  0
   -0.4518    3.3799   -3.1301 H   0  0  0  0  0  0  0  0  0  0  0  0
   -0.1711   -0.0594    1.8296 C   0  0  0  0  0  0  0  0  0  0  0  0
    0.9865   -0.2908    2.1726 O   0  0  0  0  0  0  0  0  0  0  0  0
   -1.0921    0.4156    2.6780 N   0  0  0  0  0  0  0  0  0  0  0  0
   -2.0168    0.5953    2.3206 H   0  0  0  0  0  0  0  0  0  0  0  0
   -0.8319    0.7034    4.0877 C   0  0  0  0  0  0  0  0  0  0  0  0
   -0.0192    1.4288    4.1710 H   0  0  0  0  0  0  0  0  0  0  0  0
   -1.7255    1.1088    4.5641 H   0  0  0  0  0  0  0  0  0  0  0  0
   -0.5319   -0.2118    4.6011 H   0  0  0  0  0  0  0  0  0  0  0  0
  5  6  2  0  0  0  0
  5  7  1  0  0  0  0
  2  3  1  0  0  0  0
  2  4  1  0  0  0  0
  2  5  1  0  0  0  0
  1  2  1  0  0  0  0
 22 23  2  0  0  0  0
 22 24  1  0  0  0  0
 18 19  1  0  0  0  0
 18 20  1  0  0  0  0
 18 21  1  0  0  0  0
 17 18  1  0  0  0  0
 14 15  1  0  0  0  0
 14 16  1  0  0  0  0
 14 17  1  0  0  0  0
 11 12  1  0  0  0  0
 11 13  1  0  0  0  0
 11 14  1  0  0  0  0
  9 10  1  0  0  0  0
  9 11  1  0  0  0  0
  9 22  1  0  0  0  0
  7  8  1  0  0  0  0
  7  9  1  0  0  0  0
 26 27  1  0  0  0  0
 26 28  1  0  0  0  0
 26 29  1  0  0  0  0
 24 25  1  0  0  0  0
 24 26  1  0  0  0  0
M  END
$$$$
default_name
  -OEChem-02102213163D

 29 28  0     1  0  0  0  0  0999 V2000
   -3.5781   -3.7296    1.2702 H   0  0  0  0  0  0  0  0  0  0  0  0
   -3.5311   -2.7616    0.7732 C   0  0  0  0  0  0  0  0  0  0  0  0
   -4.2371   -2.0766    1.2382 H   0  0  0  0  0  0  0  0  0  0  0  0
   -3.7681   -2.8816   -0.2818 H   0  0  0  0  0  0  0  0  0  0  0  0
   -2.1321   -2.2086    0.9112 C   0  0  0  0  0  0  0  0  0  0  0  0
   -1.2751   -2.8426    1.5112 O   0  0  0  0  0  0  0  0  0  0  0  0
   -1.9041   -1.0186    0.3602 N   0  0  0  0  0  0  0  0  0  0  0  0
   -2.6671   -0.5416   -0.0988 H   0  0  0  0  0  0  0  0  0  0  0  0
   -0.6131   -0.3236    0.3832 C   0  0  1  0  0  0  0  0  0  0  0  0
    0.1346   -0.9625   -0.0894 H   0  0  0  0  0  0  0  0  0  0  0  0
   -0.7253    0.9751   -0.4365 C   0  0  0  0  0  0  0  0  0  0  0  0
   -1.6377    0.9345   -1.0353 H   0  0  0  0  0  0  0  0  0  0  0  0
   -0.8016    1.8245    0.2438 H   0  0  0  0  0  0  0  0  0  0  0  0
    0.4603    1.2080   -1.3800 C   0  0  0  0  0  0  0  0  0  0  0  0
    1.1594    0.3775   -1.2873 H   0  0  0  0  0  0  0  0  0  0  0  0
    0.0904    1.2423   -2.4054 H   0  0  0  0  0  0  0  0  0  0  0  0
    1.3629    2.7422   -1.0463 S   0  0  0  0  0  0  0  0  0  0  0  0
    0.1176    3.9526   -1.5618 C   0  0  0  0  0  0  0  0  0  0  0  0
   -0.7828    3.8335   -0.9584 H   0  0  0  0  0  0  0  0  0  0  0  0
    0.5126    4.9593   -1.4225 H   0  0  0  0  0  0  0  0  0  0  0  0
   -0.1251    3.8051   -2.6146 H   0  0  0  0  0  0  0  0  0  0  0  0
   -0.1711   -0.0594    1.8296 C   0  0  0  0  0  0  0  0  0  0  0  0
    0.9865   -0.2908    2.1726 O   0  0  0  0  0  0  0  0  0  0  0  0
   -1.0921    0.4156    2.6780 N   0  0  0  0  0  0  0  0  0  0  0  0
   -2.0168    0.5953    2.3206 H   0  0  0  0  0  0  0  0  0  0  0  0
   -0.8319    0.7034    4.0877 C   0  0  0  0  0  0  0  0  0  0  0  0
   -0.0192    1.4288    4.1710 H   0  0  0  0  0  0  0  0  0  0  0  0
   -1.7255    1.1088    4.5641 H   0  0  0  0  0  0  0  0  0  0  0  0
   -0.5319   -0.2118    4.6011 H   0  0  0  0  0  0  0  0  0  0  0  0
  5  6  2  0  0  0  0
  5  7  1  0  0  0  0
  2  3  1  0  0  0  0
  2  4  1  0  0  0  0
  2  5  1  0  0  0  0
  1  2  1  0  0  0  0
 22 23  2  0  0  0  0
 22 24  1  0  0  0  0
 18 19  1  0  0  0  0
 18 20  1  0  0  0  0
 18 21  1  0  0  0  0
 17 18  1  0  0  0  0
 14 15  1  0  0  0  0
 14 16  1  0  0  0  0
 14 17  1  0  0  0  0
 11 12  1  0  0  0  0
 11 13  1  0  0  0  0
 11 14  1  0  0  0  0
  9 10  1  0  0  0  0
  9 11  1  0  0  0  0
  9 22  1  0  0  0  0
  7  8  1  0  0  0  0
  7  9  1  0  0  0  0
 26 27  1  0  0  0  0
 26 28  1  0  0  0  0
 26 29  1  0  0  0  0
 24 25  1  0  0  0  0
 24 26  1  0  0  0  0
M  END
$$$$
default_name
  -OEChem-02102213163D

 29 28  0     1  0  0  0  0  0999 V2000
   -3.5781   -3.7296    1.2702 H   0  0  0  0  0  0  0  0  0  0  0  0
   -3.5311   -2.7616    0.7732 C   0  0  0  0  0  0  0  0  0  0  0  0
   -4.2371   -2.0766    1.2382 H   0  0  0  0  0  0  0  0  0  0  0  0
   -3.7681   -2.8816   -0.2818 H   0  0  0  0  0  0  0  0  0  0  0  0
   -2.1321   -2.2086    0.9112 C   0  0  0  0  0  0  0  0  0  0  0  0
   -1.2751   -2.8426    1.5112 O   0  0  0  0  0  0  0  0  0  0  0  0
   -1.9041   -1.0186    0.3602 N   0  0  0  0  0  0  0  0  0  0  0  0
   -2.6671   -0.5416   -0.0988 H   0  0  0  0  0  0  0  0  0  0  0  0
   -0.6131   -0.3236    0.3832 C   0  0  1  0  0  0  0  0  0  0  0  0
    0.1346   -0.9625   -0.0894 H   0  0  0  0  0  0  0  0  0  0  0  0
   -0.7253    0.9751   -0.4365 C   0  0  0  0  0  0  0  0  0  0  0  0
   -1.6377    0.9345   -1.0353 H   0  0  0  0  0  0  0  0  0  0  0  0
   -0.8016    1.8245    0.2438 H   0  0  0  0  0  0  0  0  0  0  0  0
    0.4603    1.2080   -1.3800 C   0  0  0  0  0  0  0  0  0  0  0  0
    1.0164    0.2777   -1.4917 H   0  0  0  0  0  0  0  0  0  0  0  0
    0.0774    1.5071   -2.3564 H   0  0  0  0  0  0  0  0  0  0  0  0
    1.6088    2.4831   -0.8014 S   0  0  0  0  0  0  0  0  0  0  0  0
    0.5662    3.9515   -0.9983 C   0  0  0  0  0  0  0  0  0  0  0  0
   -0.3273    3.8534   -0.3811 H   0  0  0  0  0  0  0  0  0  0  0  0
    1.1234    4.8349   -0.6855 H   0  0  0  0  0  0  0  0  0  0  0  0
    0.2785    4.0606   -2.0444 H   0  0  0  0  0  0  0  0  0  0  0  0
   -0.1711   -0.0594    1.8296 C   0  0  0  0  0  0  0  0  0  0  0  0
    0.9865   -0.2908    2.1726 O   0  0  0  0  0  0  0  0  0  0  0  0
   -1.0921    0.4156    2.6780 N   0  0  0  0  0  0  0  0  0  0  0  0
   -2.0168    0.5953    2.3206 H   0  0  0  0  0  0  0  0  0  0  0  0
   -0.8319    0.7034    4.0877 C   0  0  0  0  0  0  0  0  0  0  0  0
   -0.0192    1.4288    4.1710 H   0  0  0  0  0  0  0  0  0  0  0  0
   -1.7255    1.1088    4.5641 H   0  0  0  0  0  0  0  0  0  0  0  0
   -0.5319   -0.2118    4.6011 H   0  0  0  0  0  0  0  0  0  0  0  0
  5  6  2  0  0  0  0
  5  7  1  0  0  0  0
  2  3  1  0  0  0  0
  2  4  1  0  0  0  0
  2  5  1  0  0  0  0
  1  2  1  0  0  0  0
 22 23  2  0  0  0  0
 22 24  1  0  0  0  0
 18 19  1  0  0  0  0
 18 20  1  0  0  0  0
 18 21  1  0  0  0  0
 17 18  1  0  0  0  0
 14 15  1  0  0  0  0
 14 16  1  0  0  0  0
 14 17  1  0  0  0  0
 11 12  1  0  0  0  0
 11 13  1  0  0  0  0
 11 14  1  0  0  0  0
  9 10  1  0  0  0  0
  9 11  1  0  0  0  0
  9 22  1  0  0  0  0
  7  8  1  0  0  0  0
  7  9  1  0  0  0  0
 26 27  1  0  0  0  0
 26 28  1  0  0  0  0
 26 29  1  0  0  0  0
 24 25  1  0  0  0  0
 24 26  1  0  0  0  0
M  END
$$$$
default_name
  -OEChem-02102213163D

 29 28  0     1  0  0  0  0  0999 V2000
   -3.5781   -3.7296    1.2702 H   0  0  0  0  0  0  0  0  0  0  0  0
   -3.5311   -2.7616    0.7732 C   0  0  0  0  0  0  0  0  0  0  0  0
   -4.2371   -2.0766    1.2382 H   0  0  0  0  0  0  0  0  0  0  0  0
   -3.7681   -2.8816   -0.2818 H   0  0  0  0  0  0  0  0  0  0  0  0
   -2.1321   -2.2086    0.9112 C   0  0  0  0  0  0  0  0  0  0  0  0
   -1.2751   -2.8426    1.5112 O   0  0  0  0  0  0  0  0  0  0  0  0
   -1.9041   -1.0186    0.3602 N   0  0  0  0  0  0  0  0  0  0  0  0
   -2.6671   -0.5416   -0.0988 H   0  0  0  0  0  0  0  0  0  0  0  0
   -0.6131   -0.3236    0.3832 C   0  0  1  0  0  0  0  0  0  0  0  0
    0.1346   -0.9625   -0.0894 H   0  0  0  0  0  0  0  0  0  0  0  0
   -0.7253    0.9751   -0.4365 C   0  0  0  0  0  0  0  0  0  0  0  0
   -1.6377    0.9345   -1.0353 H   0  0  0  0  0  0  0  0  0  0  0  0
   -0.8016    1.8245    0.2438 H   0  0  0  0  0  0  0  0  0  0  0  0
    0.4603    1.2080   -1.3800 C   0  0  0  0  0  0  0  0  0  0  0  0
    0.8542    0.2451   -1.7035 H   0  0  0  0  0  0  0  0  0  0  0  0
    0.1089    1.7552   -2.2556 H   0  0  0  0  0  0  0  0  0  0  0  0
    1.8147    2.1446   -0.6262 S   0  0  0  0  0  0  0  0  0  0  0  0
    1.0216    3.7661   -0.4719 C   0  0  0  0  0  0  0  0  0  0  0  0
    0.1386    3.6846    0.1625 H   0  0  0  0  0  0  0  0  0  0  0  0
    1.7227    4.4700   -0.0227 H   0  0  0  0  0  0  0  0  0  0  0  0
    0.7314    4.1290   -1.4583 H   0  0  0  0  0  0  0  0  0  0  0  0
   -0.1711   -0.0594    1.8296 C   0  0  0  0  0  0  0  0  0  0  0  0
    0.9865   -0.2908    2.1726 O   0  0  0  0  0  0  0  0  0  0  0  0
   -1.0921    0.4156    2.6780 N   0  0  0  0  0  0  0  0  0  0  0  0
   -2.0168    0.5953    2.3206 H   0  0  0  0  0  0  0  0  0  0  0  0
   -0.8319    0.7034    4.0877 C   0  0  0  0  0  0  0  0  0  0  0  0
   -0.0192    1.4288    4.1710 H   0  0  0  0  0  0  0  0  0  0  0  0
   -1.7255    1.1088    4.5641 H   0  0  0  0  0  0  0  0  0  0  0  0
   -0.5319   -0.2118    4.6011 H   0  0  0  0  0  0  0  0  0  0  0  0
  5  6  2  0  0  0  0
  5  7  1  0  0  0  0
  2  3  1  0  0  0  0
  2  4  1  0  0  0  0
  2  5  1  0  0  0  0
  1  2  1  0  0  0  0
 22 23  2  0  0  0  0
 22 24  1  0  0  0  0
 18 19  1  0  0  0  0
 18 20  1  0  0  0  0
 18 21  1  0  0  0  0
 17 18  1  0  0  0  0
 14 15  1  0  0  0  0
 14 16  1  0  0  0  0
 14 17  1  0  0  0  0
 11 12  1  0  0  0  0
 11 13  1  0  0  0  0
 11 14  1  0  0  0  0
  9 10  1  0  0  0  0
  9 11  1  0  0  0  0
  9 22  1  0  0  0  0
  7  8  1  0  0  0  0
  7  9  1  0  0  0  0
 26 27  1  0  0  0  0
 26 28  1  0  0  0  0
 26 29  1  0  0  0  0
 24 25  1  0  0  0  0
 24 26  1  0  0  0  0
M  END
$$$$
default_name
  -OEChem-02102213163D

 29 28  0     1  0  0  0  0  0999 V2000
   -3.5781   -3.7296    1.2702 H   0  0  0  0  0  0  0  0  0  0  0  0
   -3.5311   -2.7616    0.7732 C   0  0  0  0  0  0  0  0  0  0  0  0
   -4.2371   -2.0766    1.2382 H   0  0  0  0  0  0  0  0  0  0  0  0
   -3.7681   -2.8816   -0.2818 H   0  0  0  0  0  0  0  0  0  0  0  0
   -2.1321   -2.2086    0.9112 C   0  0  0  0  0  0  0  0  0  0  0  0
   -1.2751   -2.8426    1.5112 O   0  0  0  0  0  0  0  0  0  0  0  0
   -1.9041   -1.0186    0.3602 N   0  0  0  0  0  0  0  0  0  0  0  0
   -2.6671   -0.5416   -0.0988 H   0  0  0  0  0  0  0  0  0  0  0  0
   -0.6131   -0.3236    0.3832 C   0  0  1  0  0  0  0  0  0  0  0  0
    0.1346   -0.9625   -0.0894 H   0  0  0  0  0  0  0  0  0  0  0  0
   -0.7253    0.9751   -0.4365 C   0  0  0  0  0  0  0  0  0  0  0  0
   -1.6377    0.9345   -1.0353 H   0  0  0  0  0  0  0  0  0  0  0  0
   -0.8016    1.8245    0.2438 H   0  0  0  0  0  0  0  0  0  0  0  0
    0.4603    1.2080   -1.3800 C   0  0  0  0  0  0  0  0  0  0  0  0
    0.6841    0.2817   -1.9082 H   0  0  0  0  0  0  0  0  0  0  0  0
    0.1828    1.9696   -2.1097 H   0  0  0  0  0  0  0  0  0  0  0  0
    1.9665    1.7499   -0.5330 S   0  0  0  0  0  0  0  0  0  0  0  0
    1.4526    3.4091   -0.0184 C   0  0  0  0  0  0  0  0  0  0  0  0
    0.5830    3.3384    0.6356 H   0  0  0  0  0  0  0  0  0  0  0  0
    2.2694    3.8894    0.5210 H   0  0  0  0  0  0  0  0  0  0  0  0
    1.2029    4.0056   -0.8963 H   0  0  0  0  0  0  0  0  0  0  0  0
   -0.1711   -0.0594    1.8296 C   0  0  0  0  0  0  0  0  0  0  0  0
    0.9865   -0.2908    2.1726 O   0  0  0  0  0  0  0  0  0  0  0  0
   -1.0921    0.4156    2.6780 N   0  0  0  0  0  0  0  0  0  0  0  0
   -2.0168    0.5953    2.3206 H   0  0  0  0  0  0  0  0  0  0  0  0
   -0.8319    0.7034    4.0877 C   0  0  0  0  0  0  0  0  0  0  0  0
   -0.0192    1.4288    4.1710 H   0  0  0  0  0  0  0  0  0  0  0  0
   -1.7255    1.1088    4.5641 H   0  0  0  0  0  0  0  0  0  0  0  0
   -0.5319   -0.2118    4.6011 H   0  0  0  0  0  0  0  0  0  0  0  0
  5  6  2  0  0  0  0
  5  7  1  0  0  0  0
  2  3  1  0  0  0  0
  2  4  1  0  0  0  0
  2  5  1  0  0  0  0
  1  2  1  0  0  0  0
 22 23  2  0  0  0  0
 22 24  1  0  0  0  0
 18 19  1  0  0  0  0
 18 20  1  0  0  0  0
 18 21  1  0  0  0  0
 17 18  1  0  0  0  0
 14 15  1  0  0  0  0
 14 16  1  0  0  0  0
 14 17  1  0  0  0  0
 11 12  1  0  0  0  0
 11 13  1  0  0  0  0
 11 14  1  0  0  0  0
  9 10  1  0  0  0  0
  9 11  1  0  0  0  0
  9 22  1  0  0  0  0
  7  8  1  0  0  0  0
  7  9  1  0  0  0  0
 26 27  1  0  0  0  0
 26 28  1  0  0  0  0
 26 29  1  0  0  0  0
 24 25  1  0  0  0  0
 24 26  1  0  0  0  0
M  END
$$$$
default_name
  -OEChem-02102213163D

 29 28  0     1  0  0  0  0  0999 V2000
   -3.5781   -3.7296    1.2702 H   0  0  0  0  0  0  0  0  0  0  0  0
   -3.5311   -2.7616    0.7732 C   0  0  0  0  0  0  0  0  0  0  0  0
   -4.2371   -2.0766    1.2382 H   0  0  0  0  0  0  0  0  0  0  0  0
   -3.7681   -2.8816   -0.2818 H   0  0  0  0  0  0  0  0  0  0  0  0
   -2.1321   -2.2086    0.9112 C   0  0  0  0  0  0  0  0  0  0  0  0
   -1.2751   -2.8426    1.5112 O   0  0  0  0  0  0  0  0  0  0  0  0
   -1.9041   -1.0186    0.3602 N   0  0  0  0  0  0  0  0  0  0  0  0
   -2.6671   -0.5416   -0.0988 H   0  0  0  0  0  0  0  0  0  0  0  0
   -0.6131   -0.3236    0.3832 C   0  0  1  0  0  0  0  0  0  0  0  0
    0.1346   -0.9625   -0.0894 H   0  0  0  0  0  0  0  0  0  0  0  0
   -0.7253    0.9751   -0.4365 C   0  0  0  0  0  0  0  0  0  0  0  0
   -1.6377    0.9345   -1.0353 H   0  0  0  0  0  0  0  0  0  0  0  0
   -0.8016    1.8245    0.2438 H   0  0  0  0  0  0  0  0  0  0  0  0
    0.4603    1.2080   -1.3800 C   0  0  0  0  0  0  0  0  0  0  0  0
    0.5176    0.3852   -2.0919 H   0  0  0  0  0  0  0  0  0  0  0  0
    0.2941    2.1357   -1.9289 H   0  0  0  0  0  0  0  0  0  0  0  0
    2.0539    1.3257   -0.5278 S   0  0  0  0  0  0  0  0  0  0  0  0
    1.8300    2.9049    0.3312 C   0  0  0  0  0  0  0  0  0  0  0  0
    0.9758    2.8386    1.0057 H   0  0  0  0  0  0  0  0  0  0  0  0
    2.7265    3.1326    0.9084 H   0  0  0  0  0  0  0  0  0  0  0  0
    1.6607    3.6988   -0.3968 H   0  0  0  0  0  0  0  0  0  0  0  0
   -0.1711   -0.0594    1.8296 C   0  0  0  0  0  0  0  0  0  0  0  0
    0.9865   -0.2908    2.1726 O   0  0  0  0  0  0  0  0  0  0  0  0
   -1.0921    0.4156    2.6780 N   0  0  0  0  0  0  0  0  0  0  0  0
   -2.0168    0.5953    2.3206 H   0  0  0  0  0  0  0  0  0  0  0  0
   -0.8319    0.7034    4.0877 C   0  0  0  0  0  0  0  0  0  0  0  0
   -0.0192    1.4288    4.1710 H   0  0  0  0  0  0  0  0  0  0  0  0
   -1.7255    1.1088    4.5641 H   0  0  0  0  0  0  0  0  0  0  0  0
   -0.5319   -0.2118    4.6011 H   0  0  0  0  0  0  0  0  0  0  0  0
  5  6  2  0  0  0  0
  5  7  1  0  0  0  0
  2  3  1  0  0  0  0
  2  4  1  0  0  0  0
  2  5  1  0  0  0  0
  1  2  1  0  0  0  0
 22 23  2  0  0  0  0
 22 24  1  0  0  0  0
 18 19  1  0  0  0  0
 18 20  1  0  0  0  0
 18 21  1  0  0  0  0
 17 18  1  0  0  0  0
 14 15  1  0  0  0  0
 14 16  1  0  0  0  0
 14 17  1  0  0  0  0
 11 12  1  0  0  0  0
 11 13  1  0  0  0  0
 11 14  1  0  0  0  0
  9 10  1  0  0  0  0
  9 11  1  0  0  0  0
  9 22  1  0  0  0  0
  7  8  1  0  0  0  0
  7  9  1  0  0  0  0
 26 27  1  0  0  0  0
 26 28  1  0  0  0  0
 26 29  1  0  0  0  0
 24 25  1  0  0  0  0
 24 26  1  0  0  0  0
M  END
$$$$
default_name
  -OEChem-02102213163D

 29 28  0     1  0  0  0  0  0999 V2000
   -3.5781   -3.7296    1.2702 H   0  0  0  0  0  0  0  0  0  0  0  0
   -3.5311   -2.7616    0.7732 C   0  0  0  0  0  0  0  0  0  0  0  0
   -4.2371   -2.0766    1.2382 H   0  0  0  0  0  0  0  0  0  0  0  0
   -3.7681   -2.8816   -0.2818 H   0  0  0  0  0  0  0  0  0  0  0  0
   -2.1321   -2.2086    0.9112 C   0  0  0  0  0  0  0  0  0  0  0  0
   -1.2751   -2.8426    1.5112 O   0  0  0  0  0  0  0  0  0  0  0  0
   -1.9041   -1.0186    0.3602 N   0  0  0  0  0  0  0  0  0  0  0  0
   -2.6671   -0.5416   -0.0988 H   0  0  0  0  0  0  0  0  0  0  0  0
   -0.6131   -0.3236    0.3832 C   0  0  1  0  0  0  0  0  0  0  0  0
    0.1346   -0.9625   -0.0894 H   0  0  0  0  0  0  0  0  0  0  0  0
   -0.7253    0.9751   -0.4365 C   0  0  0  0  0  0  0  0  0  0  0  0
   -1.6377    0.9345   -1.0353 H   0  0  0  0  0  0  0  0  0  0  0  0
   -0.8016    1.8245    0.2438 H   0  0  0  0  0  0  0  0  0  0  0  0
    0.4603    1.2080   -1.3800 C   0  0  0  0  0  0  0  0  0  0  0  0
    0.3660    0.5485   -2.2421 H   0  0  0  0  0  0  0  0  0  0  0  0
    0.4352    2.2422   -1.7253 H   0  0  0  0  0  0  0  0  0  0  0  0
    2.0710    0.9010   -0.6112 S   0  0  0  0  0  0  0  0  0  0  0  0
    2.1278    2.2877    0.5531 C   0  0  0  0  0  0  0  0  0  0  0  0
    1.2902    2.2191    1.2478 H   0  0  0  0  0  0  0  0  0  0  0  0
    3.0626    2.2513    1.1132 H   0  0  0  0  0  0  0  0  0  0  0  0
    2.0738    3.2295    0.0063 H   0  0  0  0  0  0  0  0  0  0  0  0
   -0.1711   -0.0594    1.8296 C   0  0  0  0  0  0  0  0  0  0  0  0
    0.9865   -0.2908    2.1726 O   0  0  0  0  0  0  0  0  0  0  0  0
   -1.0921    0.4156    2.6780 N   0  0  0  0  0  0  0  0  0  0  0  0
   -2.0168    0.5953    2.3206 H   0  0  0  0  0  0  0  0  0  0  0  0
   -0.8319    0.7034    4.0877 C   0  0  0  0  0  0  0  0  0  0  0  0
   -0.0192    1.4288    4.1710 H   0  0  0  0  0  0  0  0  0  0  0  0
   -1.7255    1.1088    4.5641 H   0  0  0  0  0  0  0  0  0  0  0  0
   -0.5319   -0.2118    4.6011 H   0  0  0  0  0  0  0  0  0  0  0  0
  5  6  2  0  0  0  0
  5  7  1  0  0  0  0
  2  3  1  0  0  0  0
  2  4  1  0  0  0  0
  2  5  1  0  0  0  0
  1  2  1  0  0  0  0
 22 23  2  0  0  0  0
 22 24  1  0  0  0  0
 18 19  1  0  0  0  0
 18 20  1  0  0  0  0
 18 21  1  0  0  0  0
 17 18  1  0  0  0  0
 14 15  1  0  0  0  0
 14 16  1  0  0  0  0
 14 17  1  0  0  0  0
 11 12  1  0  0  0  0
 11 13  1  0  0  0  0
 11 14  1  0  0  0  0
  9 10  1  0  0  0  0
  9 11  1  0  0  0  0
  9 22  1  0  0  0  0
  7  8  1  0  0  0  0
  7  9  1  0  0  0  0
 26 27  1  0  0  0  0
 26 28  1  0  0  0  0
 26 29  1  0  0  0  0
 24 25  1  0  0  0  0
 24 26  1  0  0  0  0
M  END
$$$$
default_name
  -OEChem-02102213163D

 29 28  0     1  0  0  0  0  0999 V2000
   -3.5781   -3.7296    1.2702 H   0  0  0  0  0  0  0  0  0  0  0  0
   -3.5311   -2.7616    0.7732 C   0  0  0  0  0  0  0  0  0  0  0  0
   -4.2371   -2.0766    1.2382 H   0  0  0  0  0  0  0  0  0  0  0  0
   -3.7681   -2.8816   -0.2818 H   0  0  0  0  0  0  0  0  0  0  0  0
   -2.1321   -2.2086    0.9112 C   0  0  0  0  0  0  0  0  0  0  0  0
   -1.2751   -2.8426    1.5112 O   0  0  0  0  0  0  0  0  0  0  0  0
   -1.9041   -1.0186    0.3602 N   0  0  0  0  0  0  0  0  0  0  0  0
   -2.6671   -0.5416   -0.0988 H   0  0  0  0  0  0  0  0  0  0  0  0
   -0.6131   -0.3236    0.3832 C   0  0  1  0  0  0  0  0  0  0  0  0
    0.1346   -0.9625   -0.0894 H   0  0  0  0  0  0  0  0  0  0  0  0
   -0.7253    0.9751   -0.4365 C   0  0  0  0  0  0  0  0  0  0  0  0
   -1.6377    0.9345   -1.0353 H   0  0  0  0  0  0  0  0  0  0  0  0
   -0.8016    1.8245    0.2438 H   0  0  0  0  0  0  0  0  0  0  0  0
    0.4603    1.2080   -1.3800 C   0  0  0  0  0  0  0  0  0  0  0  0
    0.2396    0.7604   -2.3486 H   0  0  0  0  0  0  0  0  0  0  0  0
    0.5964    2.2819   -1.5129 H   0  0  0  0  0  0  0  0  0  0  0  0
    2.0166    0.5048   -0.7775 S   0  0  0  0  0  0  0  0  0  0  0  0
    2.3260    1.5997    0.6322 C   0  0  0  0  0  0  0  0  0  0  0  0
    1.5047    1.5222    1.3452 H   0  0  0  0  0  0  0  0  0  0  0  0
    3.2550    1.3055    1.1213 H   0  0  0  0  0  0  0  0  0  0  0  0
    2.4138    2.6298    0.2855 H   0  0  0  0  0  0  0  0  0  0  0  0
   -0.1711   -0.0594    1.8296 C   0  0  0  0  0  0  0  0  0  0  0  0
    0.9865   -0.2908    2.1726 O   0  0  0  0  0  0  0  0  0  0  0  0
   -1.0921    0.4156    2.6780 N   0  0  0  0  0  0  0  0  0  0  0  0
   -2.0168    0.5953    2.3206 H   0  0  0  0  0  0  0  0  0  0  0  0
   -0.8319    0.7034    4.0877 C   0  0  0  0  0  0  0  0  0  0  0  0
   -0.0192    1.4288    4.1710 H   0  0  0  0  0  0  0  0  0  0  0  0
   -1.7255    1.1088    4.5641 H   0  0  0  0  0  0  0  0  0  0  0  0
   -0.5319   -0.2118    4.6011 H   0  0  0  0  0  0  0  0  0  0  0  0
  5  6  2  0  0  0  0
  5  7  1  0  0  0  0
  2  3  1  0  0  0  0
  2  4  1  0  0  0  0
  2  5  1  0  0  0  0
  1  2  1  0  0  0  0
 22 23  2  0  0  0  0
 22 24  1  0  0  0  0
 18 19  1  0  0  0  0
 18 20  1  0  0  0  0
 18 21  1  0  0  0  0
 17 18  1  0  0  0  0
 14 15  1  0  0  0  0
 14 16  1  0  0  0  0
 14 17  1  0  0  0  0
 11 12  1  0  0  0  0
 11 13  1  0  0  0  0
 11 14  1  0  0  0  0
  9 10  1  0  0  0  0
  9 11  1  0  0  0  0
  9 22  1  0  0  0  0
  7  8  1  0  0  0  0
  7  9  1  0  0  0  0
 26 27  1  0  0  0  0
 26 28  1  0  0  0  0
 26 29  1  0  0  0  0
 24 25  1  0  0  0  0
 24 26  1  0  0  0  0
M  END
$$$$
default_name
  -OEChem-02102213163D

 29 28  0     1  0  0  0  0  0999 V2000
   -3.5781   -3.7296    1.2702 H   0  0  0  0  0  0  0  0  0  0  0  0
   -3.5311   -2.7616    0.7732 C   0  0  0  0  0  0  0  0  0  0  0  0
   -4.2371   -2.0766    1.2382 H   0  0  0  0  0  0  0  0  0  0  0  0
   -3.7681   -2.8816   -0.2818 H   0  0  0  0  0  0  0  0  0  0  0  0
   -2.1321   -2.2086    0.9112 C   0  0  0  0  0  0  0  0  0  0  0  0
   -1.2751   -2.8426    1.5112 O   0  0  0  0  0  0  0  0  0  0  0  0
   -1.9041   -1.0186    0.3602 N   0  0  0  0  0  0  0  0  0  0  0  0
   -2.6671   -0.5416   -0.0988 H   0  0  0  0  0  0  0  0  0  0  0  0
   -0.6131   -0.3236    0.3832 C   0  0  1  0  0  0  0  0  0  0  0  0
    0.1346   -0.9625   -0.0894 H   0  0  0  0  0  0  0  0  0  0  0  0
   -0.7253    0.9751   -0.4365 C   0  0  0  0  0  0  0  0  0  0  0  0
   -1.6377    0.9345   -1.0353 H   0  0  0  0  0  0  0  0  0  0  0  0
   -0.8016    1.8245    0.2438 H   0  0  0  0  0  0  0  0  0  0  0  0
    0.4603    1.2080   -1.3800 C   0  0  0  0  0  0  0  0  0  0  0  0
    0.1472    1.0065   -2.4040 H   0  0  0  0  0  0  0  0  0  0  0  0
    0.7669    2.2521   -1.3061 H   0  0  0  0  0  0  0  0  0  0  0  0
    1.8944    0.1640   -1.0152 S   0  0  0  0  0  0  0  0  0  0  0  0
    2.4109    0.8878    0.5631 C   0  0  0  0  0  0  0  0  0  0  0  0
    1.6047    0.7954    1.2914 H   0  0  0  0  0  0  0  0  0  0  0  0
    3.2904    0.3596    0.9323 H   0  0  0  0  0  0  0  0  0  0  0  0
    2.6577    1.9404    0.4218 H   0  0  0  0  0  0  0  0  0  0  0  0
   -0.1711   -0.0594    1.8296 C   0  0  0  0  0  0  0  0  0  0  0  0
    0.9865   -0.2908    2.1726 O   0  0  0  0  0  0  0  0  0  0  0  0
   -1.0921    0.4156    2.6780 N   0  0  0  0  0  0  0  0  0  0  0  0
   -2.0168    0.5953    2.3206 H   0  0  0  0  0  0  0  0  0  0  0  0
   -0.8319    0.7034    4.0877 C   0  0  0  0  0  0  0  0  0  0  0  0
   -0.0192    1.4288    4.1710 H   0  0  0  0  0  0  0  0  0  0  0  0
   -1.7255    1.1088    4.5641 H   0  0  0  0  0  0  0  0  0  0  0  0
   -0.5319   -0.2118    4.6011 H   0  0  0  0  0  0  0  0  0  0  0  0
  5  6  2  0  0  0  0
  5  7  1  0  0  0  0
  2  3  1  0  0  0  0
  2  4  1  0  0  0  0
  2  5  1  0  0  0  0
  1  2  1  0  0  0  0
 22 23  2  0  0  0  0
 22 24  1  0  0  0  0
 18 19  1  0  0  0  0
 18 20  1  0  0  0  0
 18 21  1  0  0  0  0
 17 18  1  0  0  0  0
 14 15  1  0  0  0  0
 14 16  1  0  0  0  0
 14 17  1  0  0  0  0
 11 12  1  0  0  0  0
 11 13  1  0  0  0  0
 11 14  1  0  0  0  0
  9 10  1  0  0  0  0
  9 11  1  0  0  0  0
  9 22  1  0  0  0  0
  7  8  1  0  0  0  0
  7  9  1  0  0  0  0
 26 27  1  0  0  0  0
 26 28  1  0  0  0  0
 26 29  1  0  0  0  0
 24 25  1  0  0  0  0
 24 26  1  0  0  0  0
M  END
$$$$
default_name
  -OEChem-02102213163D

 29 28  0     1  0  0  0  0  0999 V2000
   -3.5781   -3.7296    1.2702 H   0  0  0  0  0  0  0  0  0  0  0  0
   -3.5311   -2.7616    0.7732 C   0  0  0  0  0  0  0  0  0  0  0  0
   -4.2371   -2.0766    1.2382 H   0  0  0  0  0  0  0  0  0  0  0  0
   -3.7681   -2.8816   -0.2818 H   0  0  0  0  0  0  0  0  0  0  0  0
   -2.1321   -2.2086    0.9112 C   0  0  0  0  0  0  0  0  0  0  0  0
   -1.2751   -2.8426    1.5112 O   0  0  0  0  0  0  0  0  0  0  0  0
   -1.9041   -1.0186    0.3602 N   0  0  0  0  0  0  0  0  0  0  0  0
   -2.6671   -0.5416   -0.0988 H   0  0  0  0  0  0  0  0  0  0  0  0
   -0.6131   -0.3236    0.3832 C   0  0  1  0  0  0  0  0  0  0  0  0
    0.1346   -0.9625   -0.0894 H   0  0  0  0  0  0  0  0  0  0  0  0
   -0.7253    0.9751   -0.4365 C   0  0  0  0  0  0  0  0  0  0  0  0
   -1.6377    0.9345   -1.0353 H   0  0  0  0  0  0  0  0  0  0  0  0
   -0.8016    1.8245    0.2438 H   0  0  0  0  0  0  0  0  0  0  0  0
    0.4603    1.2080   -1.3800 C   0  0  0  0  0  0  0  0  0  0  0  0
    0.0949    1.2701   -2.4046 H   0  0  0  0  0  0  0  0  0  0  0  0
    0.9349    2.1547   -1.1190 H   0  0  0  0  0  0  0  0  0  0  0  0
    1.7127   -0.0981   -1.3082 S   0  0  0  0  0  0  0  0  0  0  0  0
    2.3768    0.2004    0.3505 C   0  0  0  0  0  0  0  0  0  0  0  0
    1.5833    0.0882    1.0900 H   0  0  0  0  0  0  0  0  0  0  0  0
    3.1666   -0.5219    0.5590 H   0  0  0  0  0  0  0  0  0  0  0  0
    2.7889    1.2084    0.4059 H   0  0  0  0  0  0  0  0  0  0  0  0
   -0.1711   -0.0594    1.8296 C   0  0  0  0  0  0  0  0  0  0  0  0
    0.9865   -0.2908    2.1726 O   0  0  0  0  0  0  0  0  0  0  0  0
   -1.0921    0.4156    2.6780 N   0  0  0  0  0  0  0  0  0  0  0  0
   -2.0168    0.5953    2.3206 H   0  0  0  0  0  0  0  0  0  0  0  0
   -0.8319    0.7034    4.0877 C   0  0  0  0  0  0  0  0  0  0  0  0
   -0.0192    1.4288    4.1710 H   0  0  0  0  0  0  0  0  0  0  0  0
   -1.7255    1.1088    4.5641 H   0  0  0  0  0  0  0  0  0  0  0  0
   -0.5319   -0.2118    4.6011 H   0  0  0  0  0  0  0  0  0  0  0  0
  5  6  2  0  0  0  0
  5  7  1  0  0  0  0
  2  3  1  0  0  0  0
  2  4  1  0  0  0  0
  2  5  1  0  0  0  0
  1  2  1  0  0  0  0
 22 23  2  0  0  0  0
 22 24  1  0  0  0  0
 18 19  1  0  0  0  0
 18 20  1  0  0  0  0
 18 21  1  0  0  0  0
 17 18  1  0  0  0  0
 14 15  1  0  0  0  0
 14 16  1  0  0  0  0
 14 17  1  0  0  0  0
 11 12  1  0  0  0  0
 11 13  1  0  0  0  0
 11 14  1  0  0  0  0
  9 10  1  0  0  0  0
  9 11  1  0  0  0  0
  9 22  1  0  0  0  0
  7  8  1  0  0  0  0
  7  9  1  0  0  0  0
 26 27  1  0  0  0  0
 26 28  1  0  0  0  0
 26 29  1  0  0  0  0
 24 25  1  0  0  0  0
 24 26  1  0  0  0  0
M  END
$$$$
default_name
  -OEChem-02102213163D

 29 28  0     1  0  0  0  0  0999 V2000
   -3.5781   -3.7296    1.2702 H   0  0  0  0  0  0  0  0  0  0  0  0
   -3.5311   -2.7616    0.7732 C   0  0  0  0  0  0  0  0  0  0  0  0
   -4.2371   -2.0766    1.2382 H   0  0  0  0  0  0  0  0  0  0  0  0
   -3.7681   -2.8816   -0.2818 H   0  0  0  0  0  0  0  0  0  0  0  0
   -2.1321   -2.2086    0.9112 C   0  0  0  0  0  0  0  0  0  0  0  0
   -1.2751   -2.8426    1.5112 O   0  0  0  0  0  0  0  0  0  0  0  0
   -1.9041   -1.0186    0.3602 N   0  0  0  0  0  0  0  0  0  0  0  0
   -2.6671   -0.5416   -0.0988 H   0  0  0  0  0  0  0  0  0  0  0  0
   -0.6131   -0.3236    0.3832 C   0  0  1  0  0  0  0  0  0  0  0  0
    0.1346   -0.9625   -0.0894 H   0  0  0  0  0  0  0  0  0  0  0  0
   -0.7253    0.9751   -0.4365 C   0  0  0  0  0  0  0  0  0  0  0  0
   -1.6377    0.9345   -1.0353 H   0  0  0  0  0  0  0  0  0  0  0  0
   -0.8016    1.8245    0.2438 H   0  0  0  0  0  0  0  0  0  0  0  0
    0.4603    1.2080   -1.3800 C   0  0  0  0  0  0  0  0  0  0  0  0
    0.0863    1.5331   -2.3504 H   0  0  0  0  0  0  0  0  0  0  0  0
    1.0890    1.9964   -0.9645 H   0  0  0  0  0  0  0  0  0  0  0  0
    1.4839   -0.2637   -1.6366 S   0  0  0  0  0  0  0  0  0  0  0  0
    2.2260   -0.4156    0.0090 C   0  0  0  0  0  0  0  0  0  0  0  0
    1.4422   -0.5512    0.7547 H   0  0  0  0  0  0  0  0  0  0  0  0
    2.8918   -1.2788    0.0269 H   0  0  0  0  0  0  0  0  0  0  0  0
    2.7983    0.4836    0.2388 H   0  0  0  0  0  0  0  0  0  0  0  0
   -0.1711   -0.0594    1.8296 C   0  0  0  0  0  0  0  0  0  0  0  0
    0.9865   -0.2908    2.1726 O   0  0  0  0  0  0  0  0  0  0  0  0
   -1.0921    0.4156    2.6780 N   0  0  0  0  0  0  0  0  0  0  0  0
   -2.0168    0.5953    2.3206 H   0  0  0  0  0  0  0  0  0  0  0  0
   -0.8319    0.7034    4.0877 C   0  0  0  0  0  0  0  0  0  0  0  0
   -0.0192    1.4288    4.1710 H   0  0  0  0  0  0  0  0  0  0  0  0
   -1.7255    1.1088    4.5641 H   0  0  0  0  0  0  0  0  0  0  0  0
   -0.5319   -0.2118    4.6011 H   0  0  0  0  0  0  0  0  0  0  0  0
  5  6  2  0  0  0  0
  5  7  1  0  0  0  0
  2  3  1  0  0  0  0
  2  4  1  0  0  0  0
  2  5  1  0  0  0  0
  1  2  1  0  0  0  0
 22 23  2  0  0  0  0
 22 24  1  0  0  0  0
 18 19  1  0  0  0  0
 18 20  1  0  0  0  0
 18 21  1  0  0  0  0
 17 18  1  0  0  0  0
 14 15  1  0  0  0  0
 14 16  1  0  0  0  0
 14 17  1  0  0  0  0
 11 12  1  0  0  0  0
 11 13  1  0  0  0  0
 11 14  1  0  0  0  0
  9 10  1  0  0  0  0
  9 11  1  0  0  0  0
  9 22  1  0  0  0  0
  7  8  1  0  0  0  0
  7  9  1  0  0  0  0
 26 27  1  0  0  0  0
 26 28  1  0  0  0  0
 26 29  1  0  0  0  0
 24 25  1  0  0  0  0
 24 26  1  0  0  0  0
M  END
$$$$
default_name
  -OEChem-02102213163D

 29 28  0     1  0  0  0  0  0999 V2000
   -3.5781   -3.7296    1.2702 H   0  0  0  0  0  0  0  0  0  0  0  0
   -3.5311   -2.7616    0.7732 C   0  0  0  0  0  0  0  0  0  0  0  0
   -4.2371   -2.0766    1.2382 H   0  0  0  0  0  0  0  0  0  0  0  0
   -3.7681   -2.8816   -0.2818 H   0  0  0  0  0  0  0  0  0  0  0  0
   -2.1321   -2.2086    0.9112 C   0  0  0  0  0  0  0  0  0  0  0  0
   -1.2751   -2.8426    1.5112 O   0  0  0  0  0  0  0  0  0  0  0  0
   -1.9041   -1.0186    0.3602 N   0  0  0  0  0  0  0  0  0  0  0  0
   -2.6671   -0.5416   -0.0988 H   0  0  0  0  0  0  0  0  0  0  0  0
   -0.6131   -0.3236    0.3832 C   0  0  1  0  0  0  0  0  0  0  0  0
    0.1346   -0.9625   -0.0894 H   0  0  0  0  0  0  0  0  0  0  0  0
   -0.7253    0.9751   -0.4365 C   0  0  0  0  0  0  0  0  0  0  0  0
   -1.6377    0.9345   -1.0353 H   0  0  0  0  0  0  0  0  0  0  0  0
   -0.8016    1.8245    0.2438 H   0  0  0  0  0  0  0  0  0  0  0  0
    0.4603    1.2080   -1.3800 C   0  0  0  0  0  0  0  0  0  0  0  0
    0.1221    1.7777   -2.2450 H   0  0  0  0  0  0  0  0  0  0  0  0
    1.2187    1.7880   -0.8529 H   0  0  0  0  0  0  0  0  0  0  0  0
    1.2236   -0.3215   -1.9780 S   0  0  0  0  0  0  0  0  0  0  0  0
    1.9688   -0.9182   -0.4384 C   0  0  0  0  0  0  0  0  0  0  0  0
    1.1908   -1.0792    0.3085 H   0  0  0  0  0  0  0  0  0  0  0  0
    2.4850   -1.8598   -0.6278 H   0  0  0  0  0  0  0  0  0  0  0  0
    2.6854   -0.1845   -0.0681 H   0  0  0  0  0  0  0  0  0  0  0  0
   -0.1711   -0.0594    1.8296 C   0  0  0  0  0  0  0  0  0  0  0  0
    0.9865   -0.2908    2.1726 O   0  0  0  0  0  0  0  0  0  0  0  0
   -1.0921    0.4156    2.6780 N   0  0  0  0  0  0  0  0  0  0  0  0
   -2.0168    0.5953    2.3206 H   0  0  0  0  0  0  0  0  0  0  0  0
   -0.8319    0.7034    4.0877 C   0  0  0  0  0  0  0  0  0  0  0  0
   -0.0192    1.4288    4.1710 H   0  0  0  0  0  0  0  0  0  0  0  0
   -1.7255    1.1088    4.5641 H   0  0  0  0  0  0  0  0  0  0  0  0
   -0.5319   -0.2118    4.6011 H   0  0  0  0  0  0  0  0  0  0  0  0
  5  6  2  0  0  0  0
  5  7  1  0  0  0  0
  2  3  1  0  0  0  0
  2  4  1  0  0  0  0
  2  5  1  0  0  0  0
  1  2  1  0  0  0  0
 22 23  2  0  0  0  0
 22 24  1  0  0  0  0
 18 19  1  0  0  0  0
 18 20  1  0  0  0  0
 18 21  1  0  0  0  0
 17 18  1  0  0  0  0
 14 15  1  0  0  0  0
 14 16  1  0  0  0  0
 14 17  1  0  0  0  0
 11 12  1  0  0  0  0
 11 13  1  0  0  0  0
 11 14  1  0  0  0  0
  9 10  1  0  0  0  0
  9 11  1  0  0  0  0
  9 22  1  0  0  0  0
  7  8  1  0  0  0  0
  7  9  1  0  0  0  0
 26 27  1  0  0  0  0
 26 28  1  0  0  0  0
 26 29  1  0  0  0  0
 24 25  1  0  0  0  0
 24 26  1  0  0  0  0
M  END
$$$$
default_name
  -OEChem-02102213163D

 29 28  0     1  0  0  0  0  0999 V2000
   -3.5781   -3.7296    1.2702 H   0  0  0  0  0  0  0  0  0  0  0  0
   -3.5311   -2.7616    0.7732 C   0  0  0  0  0  0  0  0  0  0  0  0
   -4.2371   -2.0766    1.2382 H   0  0  0  0  0  0  0  0  0  0  0  0
   -3.7681   -2.8816   -0.2818 H   0  0  0  0  0  0  0  0  0  0  0  0
   -2.1321   -2.2086    0.9112 C   0  0  0  0  0  0  0  0  0  0  0  0
   -1.2751   -2.8426    1.5112 O   0  0  0  0  0  0  0  0  0  0  0  0
   -1.9041   -1.0186    0.3602 N   0  0  0  0  0  0  0  0  0  0  0  0
   -2.6671   -0.5416   -0.0988 H   0  0  0  0  0  0  0  0  0  0  0  0
   -0.6131   -0.3236    0.3832 C   0  0  1  0  0  0  0  0  0  0  0  0
    0.1346   -0.9625   -0.0894 H   0  0  0  0  0  0  0  0  0  0  0  0
   -0.7253    0.9751   -0.4365 C   0  0  0  0  0  0  0  0  0  0  0  0
   -1.6377    0.9345   -1.0353 H   0  0  0  0  0  0  0  0  0  0  0  0
   -0.8016    1.8245    0.2438 H   0  0  0  0  0  0  0  0  0  0  0  0
    0.4603    1.2080   -1.3800 C   0  0  0  0  0  0  0  0  0  0  0  0
    0.1998    1.9872   -2.0957 H   0  0  0  0  0  0  0  0  0  0  0  0
    1.3152    1.5438   -0.7919 H   0  0  0  0  0  0  0  0  0  0  0  0
    0.9495   -0.2675   -2.3090 S   0  0  0  0  0  0  0  0  0  0  0  0
    1.6227   -1.2732   -0.9609 C   0  0  0  0  0  0  0  0  0  0  0  0
    0.8463   -1.4599   -0.2184 H   0  0  0  0  0  0  0  0  0  0  0  0
    1.9737   -2.2250   -1.3605 H   0  0  0  0  0  0  0  0  0  0  0  0
    2.4579   -0.7505   -0.4938 H   0  0  0  0  0  0  0  0  0  0  0  0
   -0.1711   -0.0594    1.8296 C   0  0  0  0  0  0  0  0  0  0  0  0
    0.9865   -0.2908    2.1726 O   0  0  0  0  0  0  0  0  0  0  0  0
   -1.0921    0.4156    2.6780 N   0  0  0  0  0  0  0  0  0  0  0  0
   -2.0168    0.5953    2.3206 H   0  0  0  0  0  0  0  0  0  0  0  0
   -0.8319    0.7034    4.0877 C   0  0  0  0  0  0  0  0  0  0  0  0
   -0.0192    1.4288    4.1710 H   0  0  0  0  0  0  0  0  0  0  0  0
   -1.7255    1.1088    4.5641 H   0  0  0  0  0  0  0  0  0  0  0  0
   -0.5319   -0.2118    4.6011 H   0  0  0  0  0  0  0  0  0  0  0  0
  5  6  2  0  0  0  0
  5  7  1  0  0  0  0
  2  3  1  0  0  0  0
  2  4  1  0  0  0  0
  2  5  1  0  0  0  0
  1  2  1  0  0  0  0
 22 23  2  0  0  0  0
 22 24  1  0  0  0  0
 18 19  1  0  0  0  0
 18 20  1  0  0  0  0
 18 21  1  0  0  0  0
 17 18  1  0  0  0  0
 14 15  1  0  0  0  0
 14 16  1  0  0  0  0
 14 17  1  0  0  0  0
 11 12  1  0  0  0  0
 11 13  1  0  0  0  0
 11 14  1  0  0  0  0
  9 10  1  0  0  0  0
  9 11  1  0  0  0  0
  9 22  1  0  0  0  0
  7  8  1  0  0  0  0
  7  9  1  0  0  0  0
 26 27  1  0  0  0  0
 26 28  1  0  0  0  0
 26 29  1  0  0  0  0
 24 25  1  0  0  0  0
 24 26  1  0  0  0  0
M  END
$$$$
default_name
  -OEChem-02102213163D

 29 28  0     1  0  0  0  0  0999 V2000
   -3.5781   -3.7296    1.2702 H   0  0  0  0  0  0  0  0  0  0  0  0
   -3.5311   -2.7616    0.7732 C   0  0  0  0  0  0  0  0  0  0  0  0
   -4.2371   -2.0766    1.2382 H   0  0  0  0  0  0  0  0  0  0  0  0
   -3.7681   -2.8816   -0.2818 H   0  0  0  0  0  0  0  0  0  0  0  0
   -2.1321   -2.2086    0.9112 C   0  0  0  0  0  0  0  0  0  0  0  0
   -1.2751   -2.8426    1.5112 O   0  0  0  0  0  0  0  0  0  0  0  0
   -1.9041   -1.0186    0.3602 N   0  0  0  0  0  0  0  0  0  0  0  0
   -2.6671   -0.5416   -0.0988 H   0  0  0  0  0  0  0  0  0  0  0  0
   -0.6131   -0.3236    0.3832 C   0  0  1  0  0  0  0  0  0  0  0  0
    0.1346   -0.9625   -0.0894 H   0  0  0  0  0  0  0  0  0  0  0  0
   -0.7253    0.9751   -0.4365 C   0  0  0  0  0  0  0  0  0  0  0  0
   -1.6377    0.9345   -1.0353 H   0  0  0  0  0  0  0  0  0  0  0  0
   -0.8016    1.8245    0.2438 H   0  0  0  0  0  0  0  0  0  0  0  0
    0.4603    1.2080   -1.3800 C   0  0  0  0  0  0  0  0  0  0  0  0
    0.3140    2.1472   -1.9126 H   0  0  0  0  0  0  0  0  0  0  0  0
    1.3719    1.2802   -0.7858 H   0  0  0  0  0  0  0  0  0  0  0  0
    0.6804   -0.1055   -2.6072 S   0  0  0  0  0  0  0  0  0  0  0  0
    1.2113   -1.4563   -1.5231 C   0  0  0  0  0  0  0  0  0  0  0  0
    0.4322   -1.6672   -0.7900 H   0  0  0  0  0  0  0  0  0  0  0  0
    1.3928   -2.3497   -2.1212 H   0  0  0  0  0  0  0  0  0  0  0  0
    2.1312   -1.1757   -1.0093 H   0  0  0  0  0  0  0  0  0  0  0  0
   -0.1711   -0.0594    1.8296 C   0  0  0  0  0  0  0  0  0  0  0  0
    0.9865   -0.2908    2.1726 O   0  0  0  0  0  0  0  0  0  0  0  0
   -1.0921    0.4156    2.6780 N   0  0  0  0  0  0  0  0  0  0  0  0
   -2.0168    0.5953    2.3206 H   0  0  0  0  0  0  0  0  0  0  0  0
   -0.8319    0.7034    4.0877 C   0  0  0  0  0  0  0  0  0  0  0  0
   -0.0192    1.4288    4.1710 H   0  0  0  0  0  0  0  0  0  0  0  0
   -1.7255    1.1088    4.5641 H   0  0  0  0  0  0  0  0  0  0  0  0
   -0.5319   -0.2118    4.6011 H   0  0  0  0  0  0  0  0  0  0  0  0
  5  6  2  0  0  0  0
  5  7  1  0  0  0  0
  2  3  1  0  0  0  0
  2  4  1  0  0  0  0
  2  5  1  0  0  0  0
  1  2  1  0  0  0  0
 22 23  2  0  0  0  0
 22 24  1  0  0  0  0
 18 19  1  0  0  0  0
 18 20  1  0  0  0  0
 18 21  1  0  0  0  0
 17 18  1  0  0  0  0
 14 15  1  0  0  0  0
 14 16  1  0  0  0  0
 14 17  1  0  0  0  0
 11 12  1  0  0  0  0
 11 13  1  0  0  0  0
 11 14  1  0  0  0  0
  9 10  1  0  0  0  0
  9 11  1  0  0  0  0
  9 22  1  0  0  0  0
  7  8  1  0  0  0  0
  7  9  1  0  0  0  0
 26 27  1  0  0  0  0
 26 28  1  0  0  0  0
 26 29  1  0  0  0  0
 24 25  1  0  0  0  0
 24 26  1  0  0  0  0
M  END
$$$$
default_name
  -OEChem-02102213163D

 29 28  0     1  0  0  0  0  0999 V2000
   -3.5781   -3.7296    1.2702 H   0  0  0  0  0  0  0  0  0  0  0  0
   -3.5311   -2.7616    0.7732 C   0  0  0  0  0  0  0  0  0  0  0  0
   -4.2371   -2.0766    1.2382 H   0  0  0  0  0  0  0  0  0  0  0  0
   -3.7681   -2.8816   -0.2818 H   0  0  0  0  0  0  0  0  0  0  0  0
   -2.1321   -2.2086    0.9112 C   0  0  0  0  0  0  0  0  0  0  0  0
   -1.2751   -2.8426    1.5112 O   0  0  0  0  0  0  0  0  0  0  0  0
   -1.9041   -1.0186    0.3602 N   0  0  0  0  0  0  0  0  0  0  0  0
   -2.6671   -0.5416   -0.0988 H   0  0  0  0  0  0  0  0  0  0  0  0
   -0.6131   -0.3236    0.3832 C   0  0  1  0  0  0  0  0  0  0  0  0
    0.1346   -0.9625   -0.0894 H   0  0  0  0  0  0  0  0  0  0  0  0
   -0.7253    0.9751   -0.4365 C   0  0  0  0  0  0  0  0  0  0  0  0
   -1.6377    0.9345   -1.0353 H   0  0  0  0  0  0  0  0  0  0  0  0
   -0.8016    1.8245    0.2438 H   0  0  0  0  0  0  0  0  0  0  0  0
    0.4603    1.2080   -1.3800 C   0  0  0  0  0  0  0  0  0  0  0  0
    0.4571    2.2470   -1.7082 H   0  0  0  0  0  0  0  0  0  0  0  0
    1.3850    1.0154   -0.8348 H   0  0  0  0  0  0  0  0  0  0  0  0
    0.4345    0.1536   -2.8521 S   0  0  0  0  0  0  0  0  0  0  0  0
    0.7627   -1.4551   -2.0866 C   0  0  0  0  0  0  0  0  0  0  0  0
   -0.0233   -1.6871   -1.3672 H   0  0  0  0  0  0  0  0  0  0  0  0
    0.7819   -2.2253   -2.8581 H   0  0  0  0  0  0  0  0  0  0  0  0
    1.7276   -1.4312   -1.5795 H   0  0  0  0  0  0  0  0  0  0  0  0
   -0.1711   -0.0594    1.8296 C   0  0  0  0  0  0  0  0  0  0  0  0
    0.9865   -0.2908    2.1726 O   0  0  0  0  0  0  0  0  0  0  0  0
   -1.0921    0.4156    2.6780 N   0  0  0  0  0  0  0  0  0  0  0  0
   -2.0168    0.5953    2.3206 H   0  0  0  0  0  0  0  0  0  0  0  0
   -0.8319    0.7034    4.0877 C   0  0  0  0  0  0  0  0  0  0  0  0
   -0.0192    1.4288    4.1710 H   0  0  0  0  0  0  0  0  0  0  0  0
   -1.7255    1.1088    4.5641 H   0  0  0  0  0  0  0  0  0  0  0  0
   -0.5319   -0.2118    4.6011 H   0  0  0  0  0  0  0  0  0  0  0  0
  5  6  2  0  0  0  0
  5  7  1  0  0  0  0
  2  3  1  0  0  0  0
  2  4  1  0  0  0  0
  2  5  1  0  0  0  0
  1  2  1  0  0  0  0
 22 23  2  0  0  0  0
 22 24  1  0  0  0  0
 18 19  1  0  0  0  0
 18 20  1  0  0  0  0
 18 21  1  0  0  0  0
 17 18  1  0  0  0  0
 14 15  1  0  0  0  0
 14 16  1  0  0  0  0
 14 17  1  0  0  0  0
 11 12  1  0  0  0  0
 11 13  1  0  0  0  0
 11 14  1  0  0  0  0
  9 10  1  0  0  0  0
  9 11  1  0  0  0  0
  9 22  1  0  0  0  0
  7  8  1  0  0  0  0
  7  9  1  0  0  0  0
 26 27  1  0  0  0  0
 26 28  1  0  0  0  0
 26 29  1  0  0  0  0
 24 25  1  0  0  0  0
 24 26  1  0  0  0  0
M  END
$$$$
default_name
  -OEChem-02102213163D

 29 28  0     1  0  0  0  0  0999 V2000
   -3.5781   -3.7296    1.2702 H   0  0  0  0  0  0  0  0  0  0  0  0
   -3.5311   -2.7616    0.7732 C   0  0  0  0  0  0  0  0  0  0  0  0
   -4.2371   -2.0766    1.2382 H   0  0  0  0  0  0  0  0  0  0  0  0
   -3.7681   -2.8816   -0.2818 H   0  0  0  0  0  0  0  0  0  0  0  0
   -2.1321   -2.2086    0.9112 C   0  0  0  0  0  0  0  0  0  0  0  0
   -1.2751   -2.8426    1.5112 O   0  0  0  0  0  0  0  0  0  0  0  0
   -1.9041   -1.0186    0.3602 N   0  0  0  0  0  0  0  0  0  0  0  0
   -2.6671   -0.5416   -0.0988 H   0  0  0  0  0  0  0  0  0  0  0  0
   -0.6131   -0.3236    0.3832 C   0  0  1  0  0  0  0  0  0  0  0  0
    0.1346   -0.9625   -0.0894 H   0  0  0  0  0  0  0  0  0  0  0  0
   -0.7253    0.9751   -0.4365 C   0  0  0  0  0  0  0  0  0  0  0  0
   -1.6377    0.9345   -1.0353 H   0  0  0  0  0  0  0  0  0  0  0  0
   -0.8016    1.8245    0.2438 H   0  0  0  0  0  0  0  0  0  0  0  0
    0.4603    1.2080   -1.3800 C   0  0  0  0  0  0  0  0  0  0  0  0
    0.6192    2.2797   -1.4965 H   0  0  0  0  0  0  0  0  0  0  0  0
    1.3535    0.7674   -0.9356 H   0  0  0  0  0  0  0  0  0  0  0  0
    0.2287    0.4921   -3.0273 S   0  0  0  0  0  0  0  0  0  0  0  0
    0.3073   -1.2698   -2.6130 C   0  0  0  0  0  0  0  0  0  0  0  0
   -0.4891   -1.5183   -1.9109 H   0  0  0  0  0  0  0  0  0  0  0  0
    0.1827   -1.8604   -3.5210 H   0  0  0  0  0  0  0  0  0  0  0  0
    1.2747   -1.4996   -2.1656 H   0  0  0  0  0  0  0  0  0  0  0  0
   -0.1711   -0.0594    1.8296 C   0  0  0  0  0  0  0  0  0  0  0  0
    0.9865   -0.2908    2.1726 O   0  0  0  0  0  0  0  0  0  0  0  0
   -1.0921    0.4156    2.6780 N   0  0  0  0  0  0  0  0  0  0  0  0
   -2.0168    0.5953    2.3206 H   0  0  0  0  0  0  0  0  0  0  0  0
   -0.8319    0.7034    4.0877 C   0  0  0  0  0  0  0  0  0  0  0  0
   -0.0192    1.4288    4.1710 H   0  0  0  0  0  0  0  0  0  0  0  0
   -1.7255    1.1088    4.5641 H   0  0  0  0  0  0  0  0  0  0  0  0
   -0.5319   -0.2118    4.6011 H   0  0  0  0  0  0  0  0  0  0  0  0
  5  6  2  0  0  0  0
  5  7  1  0  0  0  0
  2  3  1  0  0  0  0
  2  4  1  0  0  0  0
  2  5  1  0  0  0  0
  1  2  1  0  0  0  0
 22 23  2  0  0  0  0
 22 24  1  0  0  0  0
 18 19  1  0  0  0  0
 18 20  1  0  0  0  0
 18 21  1  0  0  0  0
 17 18  1  0  0  0  0
 14 15  1  0  0  0  0
 14 16  1  0  0  0  0
 14 17  1  0  0  0  0
 11 12  1  0  0  0  0
 11 13  1  0  0  0  0
 11 14  1  0  0  0  0
  9 10  1  0  0  0  0
  9 11  1  0  0  0  0
  9 22  1  0  0  0  0
  7  8  1  0  0  0  0
  7  9  1  0  0  0  0
 26 27  1  0  0  0  0
 26 28  1  0  0  0  0
 26 29  1  0  0  0  0
 24 25  1  0  0  0  0
 24 26  1  0  0  0  0
M  END
$$$$
default_name
  -OEChem-02102213163D

 29 28  0     1  0  0  0  0  0999 V2000
   -3.5781   -3.7296    1.2702 H   0  0  0  0  0  0  0  0  0  0  0  0
   -3.5311   -2.7616    0.7732 C   0  0  0  0  0  0  0  0  0  0  0  0
   -4.2371   -2.0766    1.2382 H   0  0  0  0  0  0  0  0  0  0  0  0
   -3.7681   -2.8816   -0.2818 H   0  0  0  0  0  0  0  0  0  0  0  0
   -2.1321   -2.2086    0.9112 C   0  0  0  0  0  0  0  0  0  0  0  0
   -1.2751   -2.8426    1.5112 O   0  0  0  0  0  0  0  0  0  0  0  0
   -1.9041   -1.0186    0.3602 N   0  0  0  0  0  0  0  0  0  0  0  0
   -2.6671   -0.5416   -0.0988 H   0  0  0  0  0  0  0  0  0  0  0  0
   -0.6131   -0.3236    0.3832 C   0  0  1  0  0  0  0  0  0  0  0  0
    0.1346   -0.9625   -0.0894 H   0  0  0  0  0  0  0  0  0  0  0  0
   -0.7253    0.9751   -0.4365 C   0  0  0  0  0  0  0  0  0  0  0  0
   -1.6377    0.9345   -1.0353 H   0  0  0  0  0  0  0  0  0  0  0  0
   -0.8016    1.8245    0.2438 H   0  0  0  0  0  0  0  0  0  0  0  0
    0.4603    1.2080   -1.3800 C   0  0  0  0  0  0  0  0  0  0  0  0
    0.7893    2.2430   -1.2917 H   0  0  0  0  0  0  0  0  0  0  0  0
    1.2795    0.5530   -1.0814 H   0  0  0  0  0  0  0  0  0  0  0  0
    0.0768    0.8868   -3.1205 S   0  0  0  0  0  0  0  0  0  0  0  0
   -0.1237   -0.9128   -3.0665 C   0  0  0  0  0  0  0  0  0  0  0  0
   -0.9336   -1.1721   -2.3840 H   0  0  0  0  0  0  0  0  0  0  0  0
   -0.3641   -1.2798   -4.0647 H   0  0  0  0  0  0  0  0  0  0  0  0
    0.8032   -1.3762   -2.7275 H   0  0  0  0  0  0  0  0  0  0  0  0
   -0.1711   -0.0594    1.8296 C   0  0  0  0  0  0  0  0  0  0  0  0
    0.9865   -0.2908    2.1726 O   0  0  0  0  0  0  0  0  0  0  0  0
   -1.0921    0.4156    2.6780 N   0  0  0  0  0  0  0  0  0  0  0  0
   -2.0168    0.5953    2.3206 H   0  0  0  0  0  0  0  0  0  0  0  0
   -0.8319    0.7034    4.0877 C   0  0  0  0  0  0  0  0  0  0  0  0
   -0.0192    1.4288    4.1710 H   0  0  0  0  0  0  0  0  0  0  0  0
   -1.7255    1.1088    4.5641 H   0  0  0  0  0  0  0  0  0  0  0  0
   -0.5319   -0.2118    4.6011 H   0  0  0  0  0  0  0  0  0  0  0  0
  5  6  2  0  0  0  0
  5  7  1  0  0  0  0
  2  3  1  0  0  0  0
  2  4  1  0  0  0  0
  2  5  1  0  0  0  0
  1  2  1  0  0  0  0
 22 23  2  0  0  0  0
 22 24  1  0  0  0  0
 18 19  1  0  0  0  0
 18 20  1  0  0  0  0
 18 21  1  0  0  0  0
 17 18  1  0  0  0  0
 14 15  1  0  0  0  0
 14 16  1  0  0  0  0
 14 17  1  0  0  0  0
 11 12  1  0  0  0  0
 11 13  1  0  0  0  0
 11 14  1  0  0  0  0
  9 10  1  0  0  0  0
  9 11  1  0  0  0  0
  9 22  1  0  0  0  0
  7  8  1  0  0  0  0
  7  9  1  0  0  0  0
 26 27  1  0  0  0  0
 26 28  1  0  0  0  0
 26 29  1  0  0  0  0
 24 25  1  0  0  0  0
 24 26  1  0  0  0  0
M  END
$$$$
default_name
  -OEChem-02102213163D

 29 28  0     1  0  0  0  0  0999 V2000
   -3.5781   -3.7296    1.2702 H   0  0  0  0  0  0  0  0  0  0  0  0
   -3.5311   -2.7616    0.7732 C   0  0  0  0  0  0  0  0  0  0  0  0
   -4.2371   -2.0766    1.2382 H   0  0  0  0  0  0  0  0  0  0  0  0
   -3.7681   -2.8816   -0.2818 H   0  0  0  0  0  0  0  0  0  0  0  0
   -2.1321   -2.2086    0.9112 C   0  0  0  0  0  0  0  0  0  0  0  0
   -1.2751   -2.8426    1.5112 O   0  0  0  0  0  0  0  0  0  0  0  0
   -1.9041   -1.0186    0.3602 N   0  0  0  0  0  0  0  0  0  0  0  0
   -2.6671   -0.5416   -0.0988 H   0  0  0  0  0  0  0  0  0  0  0  0
   -0.6131   -0.3236    0.3832 C   0  0  1  0  0  0  0  0  0  0  0  0
    0.1346   -0.9625   -0.0894 H   0  0  0  0  0  0  0  0  0  0  0  0
   -0.7253    0.9751   -0.4365 C   0  0  0  0  0  0  0  0  0  0  0  0
   -1.6377    0.9345   -1.0353 H   0  0  0  0  0  0  0  0  0  0  0  0
   -0.8016    1.8245    0.2438 H   0  0  0  0  0  0  0  0  0  0  0  0
    0.4603    1.2080   -1.3800 C   0  0  0  0  0  0  0  0  0  0  0  0
    0.9559    2.1395   -1.1080 H   0  0  0  0  0  0  0  0  0  0  0  0
    1.1683    0.3868   -1.2623 H   0  0  0  0  0  0  0  0  0  0  0  0
   -0.0106    1.3110   -3.1257 S   0  0  0  0  0  0  0  0  0  0  0  0
   -0.5011   -0.4085   -3.4161 C   0  0  0  0  0  0  0  0  0  0  0  0
   -1.3264   -0.6723   -2.7541 H   0  0  0  0  0  0  0  0  0  0  0  0
   -0.8211   -0.5230   -4.4521 H   0  0  0  0  0  0  0  0  0  0  0  0
    0.3454   -1.0694   -3.2271 H   0  0  0  0  0  0  0  0  0  0  0  0
   -0.1711   -0.0594    1.8296 C   0  0  0  0  0  0  0  0  0  0  0  0
    0.9865   -0.2908    2.1726 O   0  0  0  0  0  0  0  0  0  0  0  0
   -1.0921    0.4156    2.6780 N   0  0  0  0  0  0  0  0  0  0  0  0
   -2.0168    0.5953    2.3206 H   0  0  0  0  0  0  0  0  0  0  0  0
   -0.8319    0.7034    4.0877 C   0  0  0  0  0  0  0  0  0  0  0  0
   -0.0192    1.4288    4.1710 H   0  0  0  0  0  0  0  0  0  0  0  0
   -1.7255    1.1088    4.5641 H   0  0  0  0  0  0  0  0  0  0  0  0
   -0.5319   -0.2118    4.6011 H   0  0  0  0  0  0  0  0  0  0  0  0
  5  6  2  0  0  0  0
  5  7  1  0  0  0  0
  2  3  1  0  0  0  0
  2  4  1  0  0  0  0
  2  5  1  0  0  0  0
  1  2  1  0  0  0  0
 22 23  2  0  0  0  0
 22 24  1  0  0  0  0
 18 19  1  0  0  0  0
 18 20  1  0  0  0  0
 18 21  1  0  0  0  0
 17 18  1  0  0  0  0
 14 15  1  0  0  0  0
 14 16  1  0  0  0  0
 14 17  1  0  0  0  0
 11 12  1  0  0  0  0
 11 13  1  0  0  0  0
 11 14  1  0  0  0  0
  9 10  1  0  0  0  0
  9 11  1  0  0  0  0
  9 22  1  0  0  0  0
  7  8  1  0  0  0  0
  7  9  1  0  0  0  0
 26 27  1  0  0  0  0
 26 28  1  0  0  0  0
 26 29  1  0  0  0  0
 24 25  1  0  0  0  0
 24 26  1  0  0  0  0
M  END
$$$$
default_name
  -OEChem-02102213163D

 29 28  0     1  0  0  0  0  0999 V2000
   -3.5781   -3.7296    1.2702 H   0  0  0  0  0  0  0  0  0  0  0  0
   -3.5311   -2.7616    0.7732 C   0  0  0  0  0  0  0  0  0  0  0  0
   -4.2371   -2.0766    1.2382 H   0  0  0  0  0  0  0  0  0  0  0  0
   -3.7681   -2.8816   -0.2818 H   0  0  0  0  0  0  0  0  0  0  0  0
   -2.1321   -2.2086    0.9112 C   0  0  0  0  0  0  0  0  0  0  0  0
   -1.2751   -2.8426    1.5112 O   0  0  0  0  0  0  0  0  0  0  0  0
   -1.9041   -1.0186    0.3602 N   0  0  0  0  0  0  0  0  0  0  0  0
   -2.6671   -0.5416   -0.0988 H   0  0  0  0  0  0  0  0  0  0  0  0
   -0.6131   -0.3236    0.3832 C   0  0  1  0  0  0  0  0  0  0  0  0
    0.1346   -0.9625   -0.0894 H   0  0  0  0  0  0  0  0  0  0  0  0
   -0.7253    0.9751   -0.4365 C   0  0  0  0  0  0  0  0  0  0  0  0
   -1.6377    0.9345   -1.0353 H   0  0  0  0  0  0  0  0  0  0  0  0
   -0.8016    1.8245    0.2438 H   0  0  0  0  0  0  0  0  0  0  0  0
    0.4603    1.2080   -1.3800 C   0  0  0  0  0  0  0  0  0  0  0  0
    1.1075    1.9762   -0.9578 H   0  0  0  0  0  0  0  0  0  0  0  0
    1.0272    0.2803   -1.4659 H   0  0  0  0  0  0  0  0  0  0  0  0
   -0.0277    1.7357   -3.0423 S   0  0  0  0  0  0  0  0  0  0  0  0
   -0.7989    0.2086   -3.6380 C   0  0  0  0  0  0  0  0  0  0  0  0
   -1.6407   -0.0528   -2.9962 H   0  0  0  0  0  0  0  0  0  0  0  0
   -1.1573    0.3583   -4.6569 H   0  0  0  0  0  0  0  0  0  0  0  0
   -0.0677   -0.6001   -3.6302 H   0  0  0  0  0  0  0  0  0  0  0  0
   -0.1711   -0.0594    1.8296 C   0  0  0  0  0  0  0  0  0  0  0  0
    0.9865   -0.2908    2.1726 O   0  0  0  0  0  0  0  0  0  0  0  0
   -1.0921    0.4156    2.6780 N   0  0  0  0  0  0  0  0  0  0  0  0
   -2.0168    0.5953    2.3206 H   0  0  0  0  0  0  0  0  0  0  0  0
   -0.8319    0.7034    4.0877 C   0  0  0  0  0  0  0  0  0  0  0  0
   -0.0192    1.4288    4.1710 H   0  0  0  0  0  0  0  0  0  0  0  0
   -1.7255    1.1088    4.5641 H   0  0  0  0  0  0  0  0  0  0  0  0
   -0.5319   -0.2118    4.6011 H   0  0  0  0  0  0  0  0  0  0  0  0
  5  6  2  0  0  0  0
  5  7  1  0  0  0  0
  2  3  1  0  0  0  0
  2  4  1  0  0  0  0
  2  5  1  0  0  0  0
  1  2  1  0  0  0  0
 22 23  2  0  0  0  0
 22 24  1  0  0  0  0
 18 19  1  0  0  0  0
 18 20  1  0  0  0  0
 18 21  1  0  0  0  0
 17 18  1  0  0  0  0
 14 15  1  0  0  0  0
 14 16  1  0  0  0  0
 14 17  1  0  0  0  0
 11 12  1  0  0  0  0
 11 13  1  0  0  0  0
 11 14  1  0  0  0  0
  9 10  1  0  0  0  0
  9 11  1  0  0  0  0
  9 22  1  0  0  0  0
  7  8  1  0  0  0  0
  7  9  1  0  0  0  0
 26 27  1  0  0  0  0
 26 28  1  0  0  0  0
 26 29  1  0  0  0  0
 24 25  1  0  0  0  0
 24 26  1  0  0  0  0
M  END
$$$$
default_name
  -OEChem-02102213163D

 29 28  0     1  0  0  0  0  0999 V2000
   -3.5781   -3.7296    1.2702 H   0  0  0  0  0  0  0  0  0  0  0  0
   -3.5311   -2.7616    0.7732 C   0  0  0  0  0  0  0  0  0  0  0  0
   -4.2371   -2.0766    1.2382 H   0  0  0  0  0  0  0  0  0  0  0  0
   -3.7681   -2.8816   -0.2818 H   0  0  0  0  0  0  0  0  0  0  0  0
   -2.1321   -2.2086    0.9112 C   0  0  0  0  0  0  0  0  0  0  0  0
   -1.2751   -2.8426    1.5112 O   0  0  0  0  0  0  0  0  0  0  0  0
   -1.9041   -1.0186    0.3602 N   0  0  0  0  0  0  0  0  0  0  0  0
   -2.6671   -0.5416   -0.0988 H   0  0  0  0  0  0  0  0  0  0  0  0
   -0.6131   -0.3236    0.3832 C   0  0  1  0  0  0  0  0  0  0  0  0
    0.1346   -0.9625   -0.0894 H   0  0  0  0  0  0  0  0  0  0  0  0
   -0.7253    0.9751   -0.4365 C   0  0  0  0  0  0  0  0  0  0  0  0
   -1.6377    0.9345   -1.0353 H   0  0  0  0  0  0  0  0  0  0  0  0
   -0.8016    1.8245    0.2438 H   0  0  0  0  0  0  0  0  0  0  0  0
    0.4603    1.2080   -1.3800 C   0  0  0  0  0  0  0  0  0  0  0  0
    1.2338    1.7643   -0.8514 H   0  0  0  0  0  0  0  0  0  0  0  0
    0.8659    0.2406   -1.6783 H   0  0  0  0  0  0  0  0  0  0  0  0
    0.0267    2.1319   -2.8760 S   0  0  0  0  0  0  0  0  0  0  0  0
   -0.9971    0.8966   -3.7171 C   0  0  0  0  0  0  0  0  0  0  0  0
   -1.8552    0.6441   -3.0936 H   0  0  0  0  0  0  0  0  0  0  0  0
   -1.3496    1.3041   -4.6650 H   0  0  0  0  0  0  0  0  0  0  0  0
   -0.4077   -0.0004   -3.9094 H   0  0  0  0  0  0  0  0  0  0  0  0
   -0.1711   -0.0594    1.8296 C   0  0  0  0  0  0  0  0  0  0  0  0
    0.9865   -0.2908    2.1726 O   0  0  0  0  0  0  0  0  0  0  0  0
   -1.0921    0.4156    2.6780 N   0  0  0  0  0  0  0  0  0  0  0  0
   -2.0168    0.5953    2.3206 H   0  0  0  0  0  0  0  0  0  0  0  0
   -0.8319    0.7034    4.0877 C   0  0  0  0  0  0  0  0  0  0  0  0
   -0.0192    1.4288    4.1710 H   0  0  0  0  0  0  0  0  0  0  0  0
   -1.7255    1.1088    4.5641 H   0  0  0  0  0  0  0  0  0  0  0  0
   -0.5319   -0.2118    4.6011 H   0  0  0  0  0  0  0  0  0  0  0  0
  5  6  2  0  0  0  0
  5  7  1  0  0  0  0
  2  3  1  0  0  0  0
  2  4  1  0  0  0  0
  2  5  1  0  0  0  0
  1  2  1  0  0  0  0
 22 23  2  0  0  0  0
 22 24  1  0  0  0  0
 18 19  1  0  0  0  0
 18 20  1  0  0  0  0
 18 21  1  0  0  0  0
 17 18  1  0  0  0  0
 14 15  1  0  0  0  0
 14 16  1  0  0  0  0
 14 17  1  0  0  0  0
 11 12  1  0  0  0  0
 11 13  1  0  0  0  0
 11 14  1  0  0  0  0
  9 10  1  0  0  0  0
  9 11  1  0  0  0  0
  9 22  1  0  0  0  0
  7  8  1  0  0  0  0
  7  9  1  0  0  0  0
 26 27  1  0  0  0  0
 26 28  1  0  0  0  0
 26 29  1  0  0  0  0
 24 25  1  0  0  0  0
 24 26  1  0  0  0  0
M  END
$$$$
default_name
  -OEChem-02102213163D

 29 28  0     1  0  0  0  0  0999 V2000
   -3.5781   -3.7296    1.2702 H   0  0  0  0  0  0  0  0  0  0  0  0
   -3.5311   -2.7616    0.7732 C   0  0  0  0  0  0  0  0  0  0  0  0
   -4.2371   -2.0766    1.2382 H   0  0  0  0  0  0  0  0  0  0  0  0
   -3.7681   -2.8816   -0.2818 H   0  0  0  0  0  0  0  0  0  0  0  0
   -2.1321   -2.2086    0.9112 C   0  0  0  0  0  0  0  0  0  0  0  0
   -1.2751   -2.8426    1.5112 O   0  0  0  0  0  0  0  0  0  0  0  0
   -1.9041   -1.0186    0.3602 N   0  0  0  0  0  0  0  0  0  0  0  0
   -2.6671   -0.5416   -0.0988 H   0  0  0  0  0  0  0  0  0  0  0  0
   -0.6131   -0.3236    0.3832 C   0  0  1  0  0  0  0  0  0  0  0  0
    0.1346   -0.9625   -0.0894 H   0  0  0  0  0  0  0  0  0  0  0  0
   -0.7253    0.9751   -0.4365 C   0  0  0  0  0  0  0  0  0  0  0  0
   -1.6377    0.9345   -1.0353 H   0  0  0  0  0  0  0  0  0  0  0  0
   -0.8016    1.8245    0.2438 H   0  0  0  0  0  0  0  0  0  0  0  0
    0.4603    1.2080   -1.3800 C   0  0  0  0  0  0  0  0  0  0  0  0
    1.3263    1.5182   -0.7960 H   0  0  0  0  0  0  0  0  0  0  0  0
    0.6955    0.2705   -1.8851 H   0  0  0  0  0  0  0  0  0  0  0  0
    0.1490    2.4727   -2.6383 S   0  0  0  0  0  0  0  0  0  0  0  0
   -1.0820    1.6085   -3.6481 C   0  0  0  0  0  0  0  0  0  0  0  0
   -1.9552    1.3709   -3.0398 H   0  0  0  0  0  0  0  0  0  0  0  0
   -1.3851    2.2500   -4.4760 H   0  0  0  0  0  0  0  0  0  0  0  0
   -0.6516    0.6890   -4.0457 H   0  0  0  0  0  0  0  0  0  0  0  0
   -0.1711   -0.0594    1.8296 C   0  0  0  0  0  0  0  0  0  0  0  0
    0.9865   -0.2908    2.1726 O   0  0  0  0  0  0  0  0  0  0  0  0
   -1.0921    0.4156    2.6780 N   0  0  0  0  0  0  0  0  0  0  0  0
   -2.0168    0.5953    2.3206 H   0  0  0  0  0  0  0  0  0  0  0  0
   -0.8319    0.7034    4.0877 C   0  0  0  0  0  0  0  0  0  0  0  0
   -0.0192    1.4288    4.1710 H   0  0  0  0  0  0  0  0  0  0  0  0
   -1.7255    1.1088    4.5641 H   0  0  0  0  0  0  0  0  0  0  0  0
   -0.5319   -0.2118    4.6011 H   0  0  0  0  0  0  0  0  0  0  0  0
  5  6  2  0  0  0  0
  5  7  1  0  0  0  0
  2  3  1  0  0  0  0
  2  4  1  0  0  0  0
  2  5  1  0  0  0  0
  1  2  1  0  0  0  0
 22 23  2  0  0  0  0
 22 24  1  0  0  0  0
 18 19  1  0  0  0  0
 18 20  1  0  0  0  0
 18 21  1  0  0  0  0
 17 18  1  0  0  0  0
 14 15  1  0  0  0  0
 14 16  1  0  0  0  0
 14 17  1  0  0  0  0
 11 12  1  0  0  0  0
 11 13  1  0  0  0  0
 11 14  1  0  0  0  0
  9 10  1  0  0  0  0
  9 11  1  0  0  0  0
  9 22  1  0  0  0  0
  7  8  1  0  0  0  0
  7  9  1  0  0  0  0
 26 27  1  0  0  0  0
 26 28  1  0  0  0  0
 26 29  1  0  0  0  0
 24 25  1  0  0  0  0
 24 26  1  0  0  0  0
M  END
$$$$
default_name
  -OEChem-02102213163D

 29 28  0     1  0  0  0  0  0999 V2000
   -3.5781   -3.7296    1.2702 H   0  0  0  0  0  0  0  0  0  0  0  0
   -3.5311   -2.7616    0.7732 C   0  0  0  0  0  0  0  0  0  0  0  0
   -4.2371   -2.0766    1.2382 H   0  0  0  0  0  0  0  0  0  0  0  0
   -3.7681   -2.8816   -0.2818 H   0  0  0  0  0  0  0  0  0  0  0  0
   -2.1321   -2.2086    0.9112 C   0  0  0  0  0  0  0  0  0  0  0  0
   -1.2751   -2.8426    1.5112 O   0  0  0  0  0  0  0  0  0  0  0  0
   -1.9041   -1.0186    0.3602 N   0  0  0  0  0  0  0  0  0  0  0  0
   -2.6671   -0.5416   -0.0988 H   0  0  0  0  0  0  0  0  0  0  0  0
   -0.6131   -0.3236    0.3832 C   0  0  1  0  0  0  0  0  0  0  0  0
    0.1346   -0.9625   -0.0894 H   0  0  0  0  0  0  0  0  0  0  0  0
   -0.7253    0.9751   -0.4365 C   0  0  0  0  0  0  0  0  0  0  0  0
   -1.7438    1.0604   -0.8214 H   0  0  0  0  0  0  0  0  0  0  0  0
   -0.5343    1.8292    0.2147 H   0  0  0  0  0  0  0  0  0  0  0  0
    0.2445    1.0365   -1.6222 C   0  0  0  0  0  0  0  0  0  0  0  0
    1.2664    0.9563   -1.2526 H   0  0  0  0  0  0  0  0  0  0  0  0
    0.0435    0.1928   -2.2833 H   0  0  0  0  0  0  0  0  0  0  0  0
    0.1145    2.5630   -2.5879 S   0  0  0  0  0  0  0  0  0  0  0  0
   -1.5164    2.3174   -3.3374 C   0  0  0  0  0  0  0  0  0  0  0  0
   -2.2708    2.2277   -2.5552 H   0  0  0  0  0  0  0  0  0  0  0  0
   -1.7556    3.1721   -3.9706 H   0  0  0  0  0  0  0  0  0  0  0  0
   -1.5094    1.4119   -3.9447 H   0  0  0  0  0  0  0  0  0  0  0  0
   -0.1711   -0.0594    1.8296 C   0  0  0  0  0  0  0  0  0  0  0  0
    0.9865   -0.2908    2.1726 O   0  0  0  0  0  0  0  0  0  0  0  0
   -1.0921    0.4156    2.6780 N   0  0  0  0  0  0  0  0  0  0  0  0
   -2.0168    0.5953    2.3206 H   0  0  0  0  0  0  0  0  0  0  0  0
   -0.8319    0.7034    4.0877 C   0  0  0  0  0  0  0  0  0  0  0  0
   -0.0192    1.4288    4.1710 H   0  0  0  0  0  0  0  0  0  0  0  0
   -1.7255    1.1088    4.5641 H   0  0  0  0  0  0  0  0  0  0  0  0
   -0.5319   -0.2118    4.6011 H   0  0  0  0  0  0  0  0  0  0  0  0
  5  6  2  0  0  0  0
  5  7  1  0  0  0  0
  2  3  1  0  0  0  0
  2  4  1  0  0  0  0
  2  5  1  0  0  0  0
  1  2  1  0  0  0  0
 22 23  2  0  0  0  0
 22 24  1  0  0  0  0
 18 19  1  0  0  0  0
 18 20  1  0  0  0  0
 18 21  1  0  0  0  0
 17 18  1  0  0  0  0
 14 15  1  0  0  0  0
 14 16  1  0  0  0  0
 14 17  1  0  0  0  0
 11 12  1  0  0  0  0
 11 13  1  0  0  0  0
 11 14  1  0  0  0  0
  9 10  1  0  0  0  0
  9 11  1  0  0  0  0
  9 22  1  0  0  0  0
  7  8  1  0  0  0  0
  7  9  1  0  0  0  0
 26 27  1  0  0  0  0
 26 28  1  0  0  0  0
 26 29  1  0  0  0  0
 24 25  1  0  0  0  0
 24 26  1  0  0  0  0
M  END
$$$$
default_name
  -OEChem-02102213163D

 29 28  0     1  0  0  0  0  0999 V2000
   -3.5781   -3.7296    1.2702 H   0  0  0  0  0  0  0  0  0  0  0  0
   -3.5311   -2.7616    0.7732 C   0  0  0  0  0  0  0  0  0  0  0  0
   -4.2371   -2.0766    1.2382 H   0  0  0  0  0  0  0  0  0  0  0  0
   -3.7681   -2.8816   -0.2818 H   0  0  0  0  0  0  0  0  0  0  0  0
   -2.1321   -2.2086    0.9112 C   0  0  0  0  0  0  0  0  0  0  0  0
   -1.2751   -2.8426    1.5112 O   0  0  0  0  0  0  0  0  0  0  0  0
   -1.9041   -1.0186    0.3602 N   0  0  0  0  0  0  0  0  0  0  0  0
   -2.6671   -0.5416   -0.0988 H   0  0  0  0  0  0  0  0  0  0  0  0
   -0.6131   -0.3236    0.3832 C   0  0  1  0  0  0  0  0  0  0  0  0
    0.1346   -0.9625   -0.0894 H   0  0  0  0  0  0  0  0  0  0  0  0
   -0.7253    0.9751   -0.4365 C   0  0  0  0  0  0  0  0  0  0  0  0
   -1.7438    1.0604   -0.8214 H   0  0  0  0  0  0  0  0  0  0  0  0
   -0.5343    1.8292    0.2147 H   0  0  0  0  0  0  0  0  0  0  0  0
    0.2445    1.0365   -1.6222 C   0  0  0  0  0  0  0  0  0  0  0  0
    1.2270    0.6945   -1.2984 H   0  0  0  0  0  0  0  0  0  0  0  0
   -0.1179    0.3705   -2.4060 H   0  0  0  0  0  0  0  0  0  0  0  0
    0.4301    2.6962   -2.3228 S   0  0  0  0  0  0  0  0  0  0  0  0
   -1.2121    2.9074   -3.0579 C   0  0  0  0  0  0  0  0  0  0  0  0
   -1.9740    2.8423   -2.2806 H   0  0  0  0  0  0  0  0  0  0  0  0
   -1.2706    3.8851   -3.5369 H   0  0  0  0  0  0  0  0  0  0  0  0
   -1.3835    2.1314   -3.8044 H   0  0  0  0  0  0  0  0  0  0  0  0
   -0.1711   -0.0594    1.8296 C   0  0  0  0  0  0  0  0  0  0  0  0
    0.9865   -0.2908    2.1726 O   0  0  0  0  0  0  0  0  0  0  0  0
   -1.0921    0.4156    2.6780 N   0  0  0  0  0  0  0  0  0  0  0  0
   -2.0168    0.5953    2.3206 H   0  0  0  0  0  0  0  0  0  0  0  0
   -0.8319    0.7034    4.0877 C   0  0  0  0  0  0  0  0  0  0  0  0
   -0.0192    1.4288    4.1710 H   0  0  0  0  0  0  0  0  0  0  0  0
   -1.7255    1.1088    4.5641 H   0  0  0  0  0  0  0  0  0  0  0  0
   -0.5319   -0.2118    4.6011 H   0  0  0  0  0  0  0  0  0  0  0  0
  5  6  2  0  0  0  0
  5  7  1  0  0  0  0
  2  3  1  0  0  0  0
  2  4  1  0  0  0  0
  2  5  1  0  0  0  0
  1  2  1  0  0  0  0
 22 23  2  0  0  0  0
 22 24  1  0  0  0  0
 18 19  1  0  0  0  0
 18 20  1  0  0  0  0
 18 21  1  0  0  0  0
 17 18  1  0  0  0  0
 14 15  1  0  0  0  0
 14 16  1  0  0  0  0
 14 17  1  0  0  0  0
 11 12  1  0  0  0  0
 11 13  1  0  0  0  0
 11 14  1  0  0  0  0
  9 10  1  0  0  0  0
  9 11  1  0  0  0  0
  9 22  1  0  0  0  0
  7  8  1  0  0  0  0
  7  9  1  0  0  0  0
 26 27  1  0  0  0  0
 26 28  1  0  0  0  0
 26 29  1  0  0  0  0
 24 25  1  0  0  0  0
 24 26  1  0  0  0  0
M  END
$$$$
default_name
  -OEChem-02102213163D

 29 28  0     1  0  0  0  0  0999 V2000
   -3.5781   -3.7296    1.2702 H   0  0  0  0  0  0  0  0  0  0  0  0
   -3.5311   -2.7616    0.7732 C   0  0  0  0  0  0  0  0  0  0  0  0
   -4.2371   -2.0766    1.2382 H   0  0  0  0  0  0  0  0  0  0  0  0
   -3.7681   -2.8816   -0.2818 H   0  0  0  0  0  0  0  0  0  0  0  0
   -2.1321   -2.2086    0.9112 C   0  0  0  0  0  0  0  0  0  0  0  0
   -1.2751   -2.8426    1.5112 O   0  0  0  0  0  0  0  0  0  0  0  0
   -1.9041   -1.0186    0.3602 N   0  0  0  0  0  0  0  0  0  0  0  0
   -2.6671   -0.5416   -0.0988 H   0  0  0  0  0  0  0  0  0  0  0  0
   -0.6131   -0.3236    0.3832 C   0  0  1  0  0  0  0  0  0  0  0  0
    0.1346   -0.9625   -0.0894 H   0  0  0  0  0  0  0  0  0  0  0  0
   -0.7253    0.9751   -0.4365 C   0  0  0  0  0  0  0  0  0  0  0  0
   -1.7438    1.0604   -0.8214 H   0  0  0  0  0  0  0  0  0  0  0  0
   -0.5343    1.8292    0.2147 H   0  0  0  0  0  0  0  0  0  0  0  0
    0.2445    1.0365   -1.6222 C   0  0  0  0  0  0  0  0  0  0  0  0
    1.1361    0.4569   -1.3850 H   0  0  0  0  0  0  0  0  0  0  0  0
   -0.2395    0.5946   -2.4938 H   0  0  0  0  0  0  0  0  0  0  0  0
    0.7644    2.7182   -2.0483 S   0  0  0  0  0  0  0  0  0  0  0  0
   -0.7972    3.3707   -2.6945 C   0  0  0  0  0  0  0  0  0  0  0  0
   -1.5615    3.3315   -1.9178 H   0  0  0  0  0  0  0  0  0  0  0  0
   -0.6549    4.4058   -3.0063 H   0  0  0  0  0  0  0  0  0  0  0  0
   -1.1164    2.7783   -3.5524 H   0  0  0  0  0  0  0  0  0  0  0  0
   -0.1711   -0.0594    1.8296 C   0  0  0  0  0  0  0  0  0  0  0  0
    0.9865   -0.2908    2.1726 O   0  0  0  0  0  0  0  0  0  0  0  0
   -1.0921    0.4156    2.6780 N   0  0  0  0  0  0  0  0  0  0  0  0
   -2.0168    0.5953    2.3206 H   0  0  0  0  0  0  0  0  0  0  0  0
   -0.8319    0.7034    4.0877 C   0  0  0  0  0  0  0  0  0  0  0  0
   -0.0192    1.4288    4.1710 H   0  0  0  0  0  0  0  0  0  0  0  0
   -1.7255    1.1088    4.5641 H   0  0  0  0  0  0  0  0  0  0  0  0
   -0.5319   -0.2118    4.6011 H   0  0  0  0  0  0  0  0  0  0  0  0
  5  6  2  0  0  0  0
  5  7  1  0  0  0  0
  2  3  1  0  0  0  0
  2  4  1  0  0  0  0
  2  5  1  0  0  0  0
  1  2  1  0  0  0  0
 22 23  2  0  0  0  0
 22 24  1  0  0  0  0
 18 19  1  0  0  0  0
 18 20  1  0  0  0  0
 18 21  1  0  0  0  0
 17 18  1  0  0  0  0
 14 15  1  0  0  0  0
 14 16  1  0  0  0  0
 14 17  1  0  0  0  0
 11 12  1  0  0  0  0
 11 13  1  0  0  0  0
 11 14  1  0  0  0  0
  9 10  1  0  0  0  0
  9 11  1  0  0  0  0
  9 22  1  0  0  0  0
  7  8  1  0  0  0  0
  7  9  1  0  0  0  0
 26 27  1  0  0  0  0
 26 28  1  0  0  0  0
 26 29  1  0  0  0  0
 24 25  1  0  0  0  0
 24 26  1  0  0  0  0
M  END
$$$$
default_name
  -OEChem-02102213163D

 29 28  0     1  0  0  0  0  0999 V2000
   -3.5781   -3.7296    1.2702 H   0  0  0  0  0  0  0  0  0  0  0  0
   -3.5311   -2.7616    0.7732 C   0  0  0  0  0  0  0  0  0  0  0  0
   -4.2371   -2.0766    1.2382 H   0  0  0  0  0  0  0  0  0  0  0  0
   -3.7681   -2.8816   -0.2818 H   0  0  0  0  0  0  0  0  0  0  0  0
   -2.1321   -2.2086    0.9112 C   0  0  0  0  0  0  0  0  0  0  0  0
   -1.2751   -2.8426    1.5112 O   0  0  0  0  0  0  0  0  0  0  0  0
   -1.9041   -1.0186    0.3602 N   0  0  0  0  0  0  0  0  0  0  0  0
   -2.6671   -0.5416   -0.0988 H   0  0  0  0  0  0  0  0  0  0  0  0
   -0.6131   -0.3236    0.3832 C   0  0  1  0  0  0  0  0  0  0  0  0
    0.1346   -0.9625   -0.0894 H   0  0  0  0  0  0  0  0  0  0  0  0
   -0.7253    0.9751   -0.4365 C   0  0  0  0  0  0  0  0  0  0  0  0
   -1.7438    1.0604   -0.8214 H   0  0  0  0  0  0  0  0  0  0  0  0
   -0.5343    1.8292    0.2147 H   0  0  0  0  0  0  0  0  0  0  0  0
    0.2445    1.0365   -1.6222 C   0  0  0  0  0  0  0  0  0  0  0  0
    0.9999    0.2599   -1.5067 H   0  0  0  0  0  0  0  0  0  0  0  0
   -0.3129    0.8497   -2.5407 H   0  0  0  0  0  0  0  0  0  0  0  0
    1.0945    2.6276   -1.7829 S   0  0  0  0  0  0  0  0  0  0  0  0
   -0.2999    3.6756   -2.2719 C   0  0  0  0  0  0  0  0  0  0  0  0
   -1.0614    3.6621   -1.4915 H   0  0  0  0  0  0  0  0  0  0  0  0
    0.0495    4.6985   -2.4149 H   0  0  0  0  0  0  0  0  0  0  0  0
   -0.7263    3.3084   -3.2058 H   0  0  0  0  0  0  0  0  0  0  0  0
   -0.1711   -0.0594    1.8296 C   0  0  0  0  0  0  0  0  0  0  0  0
    0.9865   -0.2908    2.1726 O   0  0  0  0  0  0  0  0  0  0  0  0
   -1.0921    0.4156    2.6780 N   0  0  0  0  0  0  0  0  0  0  0  0
   -2.0168    0.5953    2.3206 H   0  0  0  0  0  0  0  0  0  0  0  0
   -0.8319    0.7034    4.0877 C   0  0  0  0  0  0  0  0  0  0  0  0
   -0.0192    1.4288    4.1710 H   0  0  0  0  0  0  0  0  0  0  0  0
   -1.7255    1.1088    4.5641 H   0  0  0  0  0  0  0  0  0  0  0  0
   -0.5319   -0.2118    4.6011 H   0  0  0  0  0  0  0  0  0  0  0  0
  5  6  2  0  0  0  0
  5  7  1  0  0  0  0
  2  3  1  0  0  0  0
  2  4  1  0  0  0  0
  2  5  1  0  0  0  0
  1  2  1  0  0  0  0
 22 23  2  0  0  0  0
 22 24  1  0  0  0  0
 18 19  1  0  0  0  0
 18 20  1  0  0  0  0
 18 21  1  0  0  0  0
 17 18  1  0  0  0  0
 14 15  1  0  0  0  0
 14 16  1  0  0  0  0
 14 17  1  0  0  0  0
 11 12  1  0  0  0  0
 11 13  1  0  0  0  0
 11 14  1  0  0  0  0
  9 10  1  0  0  0  0
  9 11  1  0  0  0  0
  9 22  1  0  0  0  0
  7  8  1  0  0  0  0
  7  9  1  0  0  0  0
 26 27  1  0  0  0  0
 26 28  1  0  0  0  0
 26 29  1  0  0  0  0
 24 25  1  0  0  0  0
 24 26  1  0  0  0  0
M  END
$$$$
default_name
  -OEChem-02102213163D

 29 28  0     1  0  0  0  0  0999 V2000
   -3.5781   -3.7296    1.2702 H   0  0  0  0  0  0  0  0  0  0  0  0
   -3.5311   -2.7616    0.7732 C   0  0  0  0  0  0  0  0  0  0  0  0
   -4.2371   -2.0766    1.2382 H   0  0  0  0  0  0  0  0  0  0  0  0
   -3.7681   -2.8816   -0.2818 H   0  0  0  0  0  0  0  0  0  0  0  0
   -2.1321   -2.2086    0.9112 C   0  0  0  0  0  0  0  0  0  0  0  0
   -1.2751   -2.8426    1.5112 O   0  0  0  0  0  0  0  0  0  0  0  0
   -1.9041   -1.0186    0.3602 N   0  0  0  0  0  0  0  0  0  0  0  0
   -2.6671   -0.5416   -0.0988 H   0  0  0  0  0  0  0  0  0  0  0  0
   -0.6131   -0.3236    0.3832 C   0  0  1  0  0  0  0  0  0  0  0  0
    0.1346   -0.9625   -0.0894 H   0  0  0  0  0  0  0  0  0  0  0  0
   -0.7253    0.9751   -0.4365 C   0  0  0  0  0  0  0  0  0  0  0  0
   -1.7438    1.0604   -0.8214 H   0  0  0  0  0  0  0  0  0  0  0  0
   -0.5343    1.8292    0.2147 H   0  0  0  0  0  0  0  0  0  0  0  0
    0.2445    1.0365   -1.6222 C   0  0  0  0  0  0  0  0  0  0  0  0
    0.8276    0.1167   -1.6551 H   0  0  0  0  0  0  0  0  0  0  0  0
   -0.3333    1.1186   -2.5434 H   0  0  0  0  0  0  0  0  0  0  0  0
    1.3980    2.4305   -1.5449 S   0  0  0  0  0  0  0  0  0  0  0  0
    0.2459    3.8014   -1.8190 C   0  0  0  0  0  0  0  0  0  0  0  0
   -0.5076    3.8116   -1.0309 H   0  0  0  0  0  0  0  0  0  0  0  0
    0.7947    4.7434   -1.8031 H   0  0  0  0  0  0  0  0  0  0  0  0
   -0.2398    3.6855   -2.7883 H   0  0  0  0  0  0  0  0  0  0  0  0
   -0.1711   -0.0594    1.8296 C   0  0  0  0  0  0  0  0  0  0  0  0
    0.9865   -0.2908    2.1726 O   0  0  0  0  0  0  0  0  0  0  0  0
   -1.0921    0.4156    2.6780 N   0  0  0  0  0  0  0  0  0  0  0  0
   -2.0168    0.5953    2.3206 H   0  0  0  0  0  0  0  0  0  0  0  0
   -0.8319    0.7034    4.0877 C   0  0  0  0  0  0  0  0  0  0  0  0
   -0.0192    1.4288    4.1710 H   0  0  0  0  0  0  0  0  0  0  0  0
   -1.7255    1.1088    4.5641 H   0  0  0  0  0  0  0  0  0  0  0  0
   -0.5319   -0.2118    4.6011 H   0  0  0  0  0  0  0  0  0  0  0  0
  5  6  2  0  0  0  0
  5  7  1  0  0  0  0
  2  3  1  0  0  0  0
  2  4  1  0  0  0  0
  2  5  1  0  0  0  0
  1  2  1  0  0  0  0
 22 23  2  0  0  0  0
 22 24  1  0  0  0  0
 18 19  1  0  0  0  0
 18 20  1  0  0  0  0
 18 21  1  0  0  0  0
 17 18  1  0  0  0  0
 14 15  1  0  0  0  0
 14 16  1  0  0  0  0
 14 17  1  0  0  0  0
 11 12  1  0  0  0  0
 11 13  1  0  0  0  0
 11 14  1  0  0  0  0
  9 10  1  0  0  0  0
  9 11  1  0  0  0  0
  9 22  1  0  0  0  0
  7  8  1  0  0  0  0
  7  9  1  0  0  0  0
 26 27  1  0  0  0  0
 26 28  1  0  0  0  0
 26 29  1  0  0  0  0
 24 25  1  0  0  0  0
 24 26  1  0  0  0  0
M  END
$$$$
default_name
  -OEChem-02102213163D

 29 28  0     1  0  0  0  0  0999 V2000
   -3.5781   -3.7296    1.2702 H   0  0  0  0  0  0  0  0  0  0  0  0
   -3.5311   -2.7616    0.7732 C   0  0  0  0  0  0  0  0  0  0  0  0
   -4.2371   -2.0766    1.2382 H   0  0  0  0  0  0  0  0  0  0  0  0
   -3.7681   -2.8816   -0.2818 H   0  0  0  0  0  0  0  0  0  0  0  0
   -2.1321   -2.2086    0.9112 C   0  0  0  0  0  0  0  0  0  0  0  0
   -1.2751   -2.8426    1.5112 O   0  0  0  0  0  0  0  0  0  0  0  0
   -1.9041   -1.0186    0.3602 N   0  0  0  0  0  0  0  0  0  0  0  0
   -2.6671   -0.5416   -0.0988 H   0  0  0  0  0  0  0  0  0  0  0  0
   -0.6131   -0.3236    0.3832 C   0  0  1  0  0  0  0  0  0  0  0  0
    0.1346   -0.9625   -0.0894 H   0  0  0  0  0  0  0  0  0  0  0  0
   -0.7253    0.9751   -0.4365 C   0  0  0  0  0  0  0  0  0  0  0  0
   -1.7438    1.0604   -0.8214 H   0  0  0  0  0  0  0  0  0  0  0  0
   -0.5343    1.8292    0.2147 H   0  0  0  0  0  0  0  0  0  0  0  0
    0.2445    1.0365   -1.6222 C   0  0  0  0  0  0  0  0  0  0  0  0
    0.6310    0.0372   -1.8200 H   0  0  0  0  0  0  0  0  0  0  0  0
   -0.2992    1.3828   -2.5019 H   0  0  0  0  0  0  0  0  0  0  0  0
    1.6542    2.1405   -1.3504 S   0  0  0  0  0  0  0  0  0  0  0  0
    0.8029    3.7395   -1.3665 C   0  0  0  0  0  0  0  0  0  0  0  0
    0.0619    3.7696   -0.5672 H   0  0  0  0  0  0  0  0  0  0  0  0
    1.5298    4.5375   -1.2124 H   0  0  0  0  0  0  0  0  0  0  0  0
    0.3100    3.8841   -2.3283 H   0  0  0  0  0  0  0  0  0  0  0  0
   -0.1711   -0.0594    1.8296 C   0  0  0  0  0  0  0  0  0  0  0  0
    0.9865   -0.2908    2.1726 O   0  0  0  0  0  0  0  0  0  0  0  0
   -1.0921    0.4156    2.6780 N   0  0  0  0  0  0  0  0  0  0  0  0
   -2.0168    0.5953    2.3206 H   0  0  0  0  0  0  0  0  0  0  0  0
   -0.8319    0.7034    4.0877 C   0  0  0  0  0  0  0  0  0  0  0  0
   -0.0192    1.4288    4.1710 H   0  0  0  0  0  0  0  0  0  0  0  0
   -1.7255    1.1088    4.5641 H   0  0  0  0  0  0  0  0  0  0  0  0
   -0.5319   -0.2118    4.6011 H   0  0  0  0  0  0  0  0  0  0  0  0
  5  6  2  0  0  0  0
  5  7  1  0  0  0  0
  2  3  1  0  0  0  0
  2  4  1  0  0  0  0
  2  5  1  0  0  0  0
  1  2  1  0  0  0  0
 22 23  2  0  0  0  0
 22 24  1  0  0  0  0
 18 19  1  0  0  0  0
 18 20  1  0  0  0  0
 18 21  1  0  0  0  0
 17 18  1  0  0  0  0
 14 15  1  0  0  0  0
 14 16  1  0  0  0  0
 14 17  1  0  0  0  0
 11 12  1  0  0  0  0
 11 13  1  0  0  0  0
 11 14  1  0  0  0  0
  9 10  1  0  0  0  0
  9 11  1  0  0  0  0
  9 22  1  0  0  0  0
  7  8  1  0  0  0  0
  7  9  1  0  0  0  0
 26 27  1  0  0  0  0
 26 28  1  0  0  0  0
 26 29  1  0  0  0  0
 24 25  1  0  0  0  0
 24 26  1  0  0  0  0
M  END
$$$$
default_name
  -OEChem-02102213163D

 29 28  0     1  0  0  0  0  0999 V2000
   -3.5781   -3.7296    1.2702 H   0  0  0  0  0  0  0  0  0  0  0  0
   -3.5311   -2.7616    0.7732 C   0  0  0  0  0  0  0  0  0  0  0  0
   -4.2371   -2.0766    1.2382 H   0  0  0  0  0  0  0  0  0  0  0  0
   -3.7681   -2.8816   -0.2818 H   0  0  0  0  0  0  0  0  0  0  0  0
   -2.1321   -2.2086    0.9112 C   0  0  0  0  0  0  0  0  0  0  0  0
   -1.2751   -2.8426    1.5112 O   0  0  0  0  0  0  0  0  0  0  0  0
   -1.9041   -1.0186    0.3602 N   0  0  0  0  0  0  0  0  0  0  0  0
   -2.6671   -0.5416   -0.0988 H   0  0  0  0  0  0  0  0  0  0  0  0
   -0.6131   -0.3236    0.3832 C   0  0  1  0  0  0  0  0  0  0  0  0
    0.1346   -0.9625   -0.0894 H   0  0  0  0  0  0  0  0  0  0  0  0
   -0.7253    0.9751   -0.4365 C   0  0  0  0  0  0  0  0  0  0  0  0
   -1.7438    1.0604   -0.8214 H   0  0  0  0  0  0  0  0  0  0  0  0
   -0.5343    1.8292    0.2147 H   0  0  0  0  0  0  0  0  0  0  0  0
    0.2445    1.0365   -1.6222 C   0  0  0  0  0  0  0  0  0  0  0  0
    0.4234    0.0268   -1.9903 H   0  0  0  0  0  0  0  0  0  0  0  0
   -0.2130    1.6243   -2.4188 H   0  0  0  0  0  0  0  0  0  0  0  0
    1.8456    1.7772   -1.2126 S   0  0  0  0  0  0  0  0  0  0  0  0
    1.3333    3.4941   -0.9454 C   0  0  0  0  0  0  0  0  0  0  0  0
    0.6085    3.5392   -0.1321 H   0  0  0  0  0  0  0  0  0  0  0  0
    2.2048    4.0947   -0.6833 H   0  0  0  0  0  0  0  0  0  0  0  0
    0.8856    3.8906   -1.8572 H   0  0  0  0  0  0  0  0  0  0  0  0
   -0.1711   -0.0594    1.8296 C   0  0  0  0  0  0  0  0  0  0  0  0
    0.9865   -0.2908    2.1726 O   0  0  0  0  0  0  0  0  0  0  0  0
   -1.0921    0.4156    2.6780 N   0  0  0  0  0  0  0  0  0  0  0  0
   -2.0168    0.5953    2.3206 H   0  0  0  0  0  0  0  0  0  0  0  0
   -0.8319    0.7034    4.0877 C   0  0  0  0  0  0  0  0  0  0  0  0
   -0.0192    1.4288    4.1710 H   0  0  0  0  0  0  0  0  0  0  0  0
   -1.7255    1.1088    4.5641 H   0  0  0  0  0  0  0  0  0  0  0  0
   -0.5319   -0.2118    4.6011 H   0  0  0  0  0  0  0  0  0  0  0  0
  5  6  2  0  0  0  0
  5  7  1  0  0  0  0
  2  3  1  0  0  0  0
  2  4  1  0  0  0  0
  2  5  1  0  0  0  0
  1  2  1  0  0  0  0
 22 23  2  0  0  0  0
 22 24  1  0  0  0  0
 18 19  1  0  0  0  0
 18 20  1  0  0  0  0
 18 21  1  0  0  0  0
 17 18  1  0  0  0  0
 14 15  1  0  0  0  0
 14 16  1  0  0  0  0
 14 17  1  0  0  0  0
 11 12  1  0  0  0  0
 11 13  1  0  0  0  0
 11 14  1  0  0  0  0
  9 10  1  0  0  0  0
  9 11  1  0  0  0  0
  9 22  1  0  0  0  0
  7  8  1  0  0  0  0
  7  9  1  0  0  0  0
 26 27  1  0  0  0  0
 26 28  1  0  0  0  0
 26 29  1  0  0  0  0
 24 25  1  0  0  0  0
 24 26  1  0  0  0  0
M  END
$$$$
default_name
  -OEChem-02102213163D

 29 28  0     1  0  0  0  0  0999 V2000
   -3.5781   -3.7296    1.2702 H   0  0  0  0  0  0  0  0  0  0  0  0
   -3.5311   -2.7616    0.7732 C   0  0  0  0  0  0  0  0  0  0  0  0
   -4.2371   -2.0766    1.2382 H   0  0  0  0  0  0  0  0  0  0  0  0
   -3.7681   -2.8816   -0.2818 H   0  0  0  0  0  0  0  0  0  0  0  0
   -2.1321   -2.2086    0.9112 C   0  0  0  0  0  0  0  0  0  0  0  0
   -1.2751   -2.8426    1.5112 O   0  0  0  0  0  0  0  0  0  0  0  0
   -1.9041   -1.0186    0.3602 N   0  0  0  0  0  0  0  0  0  0  0  0
   -2.6671   -0.5416   -0.0988 H   0  0  0  0  0  0  0  0  0  0  0  0
   -0.6131   -0.3236    0.3832 C   0  0  1  0  0  0  0  0  0  0  0  0
    0.1346   -0.9625   -0.0894 H   0  0  0  0  0  0  0  0  0  0  0  0
   -0.7253    0.9751   -0.4365 C   0  0  0  0  0  0  0  0  0  0  0  0
   -1.7438    1.0604   -0.8214 H   0  0  0  0  0  0  0  0  0  0  0  0
   -0.5343    1.8292    0.2147 H   0  0  0  0  0  0  0  0  0  0  0  0
    0.2445    1.0365   -1.6222 C   0  0  0  0  0  0  0  0  0  0  0  0
    0.2191    0.0862   -2.1544 H   0  0  0  0  0  0  0  0  0  0  0  0
   -0.0805    1.8268   -2.2999 H   0  0  0  0  0  0  0  0  0  0  0  0
    1.9592    1.3654   -1.1411 S   0  0  0  0  0  0  0  0  0  0  0  0
    1.8009    3.0820   -0.5843 C   0  0  0  0  0  0  0  0  0  0  0  0
    1.0948    3.1360    0.2448 H   0  0  0  0  0  0  0  0  0  0  0  0
    2.7736    3.4452   -0.2517 H   0  0  0  0  0  0  0  0  0  0  0  0
    1.4478    3.7044   -1.4070 H   0  0  0  0  0  0  0  0  0  0  0  0
   -0.1711   -0.0594    1.8296 C   0  0  0  0  0  0  0  0  0  0  0  0
    0.9865   -0.2908    2.1726 O   0  0  0  0  0  0  0  0  0  0  0  0
   -1.0921    0.4156    2.6780 N   0  0  0  0  0  0  0  0  0  0  0  0
   -2.0168    0.5953    2.3206 H   0  0  0  0  0  0  0  0  0  0  0  0
   -0.8319    0.7034    4.0877 C   0  0  0  0  0  0  0  0  0  0  0  0
   -0.0192    1.4288    4.1710 H   0  0  0  0  0  0  0  0  0  0  0  0
   -1.7255    1.1088    4.5641 H   0  0  0  0  0  0  0  0  0  0  0  0
   -0.5319   -0.2118    4.6011 H   0  0  0  0  0  0  0  0  0  0  0  0
  5  6  2  0  0  0  0
  5  7  1  0  0  0  0
  2  3  1  0  0  0  0
  2  4  1  0  0  0  0
  2  5  1  0  0  0  0
  1  2  1  0  0  0  0
 22 23  2  0  0  0  0
 22 24  1  0  0  0  0
 18 19  1  0  0  0  0
 18 20  1  0  0  0  0
 18 21  1  0  0  0  0
 17 18  1  0  0  0  0
 14 15  1  0  0  0  0
 14 16  1  0  0  0  0
 14 17  1  0  0  0  0
 11 12  1  0  0  0  0
 11 13  1  0  0  0  0
 11 14  1  0  0  0  0
  9 10  1  0  0  0  0
  9 11  1  0  0  0  0
  9 22  1  0  0  0  0
  7  8  1  0  0  0  0
  7  9  1  0  0  0  0
 26 27  1  0  0  0  0
 26 28  1  0  0  0  0
 26 29  1  0  0  0  0
 24 25  1  0  0  0  0
 24 26  1  0  0  0  0
M  END
$$$$
default_name
  -OEChem-02102213163D

 29 28  0     1  0  0  0  0  0999 V2000
   -3.5781   -3.7296    1.2702 H   0  0  0  0  0  0  0  0  0  0  0  0
   -3.5311   -2.7616    0.7732 C   0  0  0  0  0  0  0  0  0  0  0  0
   -4.2371   -2.0766    1.2382 H   0  0  0  0  0  0  0  0  0  0  0  0
   -3.7681   -2.8816   -0.2818 H   0  0  0  0  0  0  0  0  0  0  0  0
   -2.1321   -2.2086    0.9112 C   0  0  0  0  0  0  0  0  0  0  0  0
   -1.2751   -2.8426    1.5112 O   0  0  0  0  0  0  0  0  0  0  0  0
   -1.9041   -1.0186    0.3602 N   0  0  0  0  0  0  0  0  0  0  0  0
   -2.6671   -0.5416   -0.0988 H   0  0  0  0  0  0  0  0  0  0  0  0
   -0.6131   -0.3236    0.3832 C   0  0  1  0  0  0  0  0  0  0  0  0
    0.1346   -0.9625   -0.0894 H   0  0  0  0  0  0  0  0  0  0  0  0
   -0.7253    0.9751   -0.4365 C   0  0  0  0  0  0  0  0  0  0  0  0
   -1.7438    1.0604   -0.8214 H   0  0  0  0  0  0  0  0  0  0  0  0
   -0.5343    1.8292    0.2147 H   0  0  0  0  0  0  0  0  0  0  0  0
    0.2445    1.0365   -1.6222 C   0  0  0  0  0  0  0  0  0  0  0  0
    0.0319    0.2113   -2.3010 H   0  0  0  0  0  0  0  0  0  0  0  0
    0.0893    1.9764   -2.1532 H   0  0  0  0  0  0  0  0  0  0  0  0
    1.9872    0.9332   -1.1406 S   0  0  0  0  0  0  0  0  0  0  0  0
    2.1738    2.5312   -0.3079 C   0  0  0  0  0  0  0  0  0  0  0  0
    1.4877    2.5874    0.5378 H   0  0  0  0  0  0  0  0  0  0  0  0
    3.1976    2.6334    0.0530 H   0  0  0  0  0  0  0  0  0  0  0  0
    1.9582    3.3384   -1.0085 H   0  0  0  0  0  0  0  0  0  0  0  0
   -0.1711   -0.0594    1.8296 C   0  0  0  0  0  0  0  0  0  0  0  0
    0.9865   -0.2908    2.1726 O   0  0  0  0  0  0  0  0  0  0  0  0
   -1.0921    0.4156    2.6780 N   0  0  0  0  0  0  0  0  0  0  0  0
   -2.0168    0.5953    2.3206 H   0  0  0  0  0  0  0  0  0  0  0  0
   -0.8319    0.7034    4.0877 C   0  0  0  0  0  0  0  0  0  0  0  0
   -0.0192    1.4288    4.1710 H   0  0  0  0  0  0  0  0  0  0  0  0
   -1.7255    1.1088    4.5641 H   0  0  0  0  0  0  0  0  0  0  0  0
   -0.5319   -0.2118    4.6011 H   0  0  0  0  0  0  0  0  0  0  0  0
  5  6  2  0  0  0  0
  5  7  1  0  0  0  0
  2  3  1  0  0  0  0
  2  4  1  0  0  0  0
  2  5  1  0  0  0  0
  1  2  1  0  0  0  0
 22 23  2  0  0  0  0
 22 24  1  0  0  0  0
 18 19  1  0  0  0  0
 18 20  1  0  0  0  0
 18 21  1  0  0  0  0
 17 18  1  0  0  0  0
 14 15  1  0  0  0  0
 14 16  1  0  0  0  0
 14 17  1  0  0  0  0
 11 12  1  0  0  0  0
 11 13  1  0  0  0  0
 11 14  1  0  0  0  0
  9 10  1  0  0  0  0
  9 11  1  0  0  0  0
  9 22  1  0  0  0  0
  7  8  1  0  0  0  0
  7  9  1  0  0  0  0
 26 27  1  0  0  0  0
 26 28  1  0  0  0  0
 26 29  1  0  0  0  0
 24 25  1  0  0  0  0
 24 26  1  0  0  0  0
M  END
$$$$
default_name
  -OEChem-02102213163D

 29 28  0     1  0  0  0  0  0999 V2000
   -3.5781   -3.7296    1.2702 H   0  0  0  0  0  0  0  0  0  0  0  0
   -3.5311   -2.7616    0.7732 C   0  0  0  0  0  0  0  0  0  0  0  0
   -4.2371   -2.0766    1.2382 H   0  0  0  0  0  0  0  0  0  0  0  0
   -3.7681   -2.8816   -0.2818 H   0  0  0  0  0  0  0  0  0  0  0  0
   -2.1321   -2.2086    0.9112 C   0  0  0  0  0  0  0  0  0  0  0  0
   -1.2751   -2.8426    1.5112 O   0  0  0  0  0  0  0  0  0  0  0  0
   -1.9041   -1.0186    0.3602 N   0  0  0  0  0  0  0  0  0  0  0  0
   -2.6671   -0.5416   -0.0988 H   0  0  0  0  0  0  0  0  0  0  0  0
   -0.6131   -0.3236    0.3832 C   0  0  1  0  0  0  0  0  0  0  0  0
    0.1346   -0.9625   -0.0894 H   0  0  0  0  0  0  0  0  0  0  0  0
   -0.7253    0.9751   -0.4365 C   0  0  0  0  0  0  0  0  0  0  0  0
   -1.7438    1.0604   -0.8214 H   0  0  0  0  0  0  0  0  0  0  0  0
   -0.5343    1.8292    0.2147 H   0  0  0  0  0  0  0  0  0  0  0  0
    0.2445    1.0365   -1.6222 C   0  0  0  0  0  0  0  0  0  0  0  0
   -0.1254    0.3936   -2.4202 H   0  0  0  0  0  0  0  0  0  0  0  0
    0.2848    2.0629   -1.9889 H   0  0  0  0  0  0  0  0  0  0  0  0
    1.9278    0.5100   -1.2111 S   0  0  0  0  0  0  0  0  0  0  0  0
    2.4266    1.8792   -0.1349 C   0  0  0  0  0  0  0  0  0  0  0  0
    1.7605    1.9309    0.7269 H   0  0  0  0  0  0  0  0  0  0  0  0
    3.4477    1.7144    0.2099 H   0  0  0  0  0  0  0  0  0  0  0  0
    2.3820    2.8174   -0.6888 H   0  0  0  0  0  0  0  0  0  0  0  0
   -0.1711   -0.0594    1.8296 C   0  0  0  0  0  0  0  0  0  0  0  0
    0.9865   -0.2908    2.1726 O   0  0  0  0  0  0  0  0  0  0  0  0
   -1.0921    0.4156    2.6780 N   0  0  0  0  0  0  0  0  0  0  0  0
   -2.0168    0.5953    2.3206 H   0  0  0  0  0  0  0  0  0  0  0  0
   -0.8319    0.7034    4.0877 C   0  0  0  0  0  0  0  0  0  0  0  0
   -0.0192    1.4288    4.1710 H   0  0  0  0  0  0  0  0  0  0  0  0
   -1.7255    1.1088    4.5641 H   0  0  0  0  0  0  0  0  0  0  0  0
   -0.5319   -0.2118    4.6011 H   0  0  0  0  0  0  0  0  0  0  0  0
  5  6  2  0  0  0  0
  5  7  1  0  0  0  0
  2  3  1  0  0  0  0
  2  4  1  0  0  0  0
  2  5  1  0  0  0  0
  1  2  1  0  0  0  0
 22 23  2  0  0  0  0
 22 24  1  0  0  0  0
 18 19  1  0  0  0  0
 18 20  1  0  0  0  0
 18 21  1  0  0  0  0
 17 18  1  0  0  0  0
 14 15  1  0  0  0  0
 14 16  1  0  0  0  0
 14 17  1  0  0  0  0
 11 12  1  0  0  0  0
 11 13  1  0  0  0  0
 11 14  1  0  0  0  0
  9 10  1  0  0  0  0
  9 11  1  0  0  0  0
  9 22  1  0  0  0  0
  7  8  1  0  0  0  0
  7  9  1  0  0  0  0
 26 27  1  0  0  0  0
 26 28  1  0  0  0  0
 26 29  1  0  0  0  0
 24 25  1  0  0  0  0
 24 26  1  0  0  0  0
M  END
$$$$
default_name
  -OEChem-02102213163D

 29 28  0     1  0  0  0  0  0999 V2000
   -3.5781   -3.7296    1.2702 H   0  0  0  0  0  0  0  0  0  0  0  0
   -3.5311   -2.7616    0.7732 C   0  0  0  0  0  0  0  0  0  0  0  0
   -4.2371   -2.0766    1.2382 H   0  0  0  0  0  0  0  0  0  0  0  0
   -3.7681   -2.8816   -0.2818 H   0  0  0  0  0  0  0  0  0  0  0  0
   -2.1321   -2.2086    0.9112 C   0  0  0  0  0  0  0  0  0  0  0  0
   -1.2751   -2.8426    1.5112 O   0  0  0  0  0  0  0  0  0  0  0  0
   -1.9041   -1.0186    0.3602 N   0  0  0  0  0  0  0  0  0  0  0  0
   -2.6671   -0.5416   -0.0988 H   0  0  0  0  0  0  0  0  0  0  0  0
   -0.6131   -0.3236    0.3832 C   0  0  1  0  0  0  0  0  0  0  0  0
    0.1346   -0.9625   -0.0894 H   0  0  0  0  0  0  0  0  0  0  0  0
   -0.7253    0.9751   -0.4365 C   0  0  0  0  0  0  0  0  0  0  0  0
   -1.7438    1.0604   -0.8214 H   0  0  0  0  0  0  0  0  0  0  0  0
   -0.5343    1.8292    0.2147 H   0  0  0  0  0  0  0  0  0  0  0  0
    0.2445    1.0365   -1.6222 C   0  0  0  0  0  0  0  0  0  0  0  0
   -0.2421    0.6207   -2.5039 H   0  0  0  0  0  0  0  0  0  0  0  0
    0.4926    2.0803   -1.8180 H   0  0  0  0  0  0  0  0  0  0  0  0
    1.7850    0.1247   -1.3480 S   0  0  0  0  0  0  0  0  0  0  0  0
    2.5420    1.1706   -0.0773 C   0  0  0  0  0  0  0  0  0  0  0  0
    1.8946    1.2113    0.7992 H   0  0  0  0  0  0  0  0  0  0  0  0
    3.5070    0.7510    0.2084 H   0  0  0  0  0  0  0  0  0  0  0  0
    2.6905    2.1770   -0.4697 H   0  0  0  0  0  0  0  0  0  0  0  0
   -0.1711   -0.0594    1.8296 C   0  0  0  0  0  0  0  0  0  0  0  0
    0.9865   -0.2908    2.1726 O   0  0  0  0  0  0  0  0  0  0  0  0
   -1.0921    0.4156    2.6780 N   0  0  0  0  0  0  0  0  0  0  0  0
   -2.0168    0.5953    2.3206 H   0  0  0  0  0  0  0  0  0  0  0  0
   -0.8319    0.7034    4.0877 C   0  0  0  0  0  0  0  0  0  0  0  0
   -0.0192    1.4288    4.1710 H   0  0  0  0  0  0  0  0  0  0  0  0
   -1.7255    1.1088    4.5641 H   0  0  0  0  0  0  0  0  0  0  0  0
   -0.5319   -0.2118    4.6011 H   0  0  0  0  0  0  0  0  0  0  0  0
  5  6  2  0  0  0  0
  5  7  1  0  0  0  0
  2  3  1  0  0  0  0
  2  4  1  0  0  0  0
  2  5  1  0  0  0  0
  1  2  1  0  0  0  0
 22 23  2  0  0  0  0
 22 24  1  0  0  0  0
 18 19  1  0  0  0  0
 18 20  1  0  0  0  0
 18 21  1  0  0  0  0
 17 18  1  0  0  0  0
 14 15  1  0  0  0  0
 14 16  1  0  0  0  0
 14 17  1  0  0  0  0
 11 12  1  0  0  0  0
 11 13  1  0  0  0  0
 11 14  1  0  0  0  0
  9 10  1  0  0  0  0
  9 11  1  0  0  0  0
  9 22  1  0  0  0  0
  7  8  1  0  0  0  0
  7  9  1  0  0  0  0
 26 27  1  0  0  0  0
 26 28  1  0  0  0  0
 26 29  1  0  0  0  0
 24 25  1  0  0  0  0
 24 26  1  0  0  0  0
M  END
$$$$
default_name
  -OEChem-02102213163D

 29 28  0     1  0  0  0  0  0999 V2000
   -3.5781   -3.7296    1.2702 H   0  0  0  0  0  0  0  0  0  0  0  0
   -3.5311   -2.7616    0.7732 C   0  0  0  0  0  0  0  0  0  0  0  0
   -4.2371   -2.0766    1.2382 H   0  0  0  0  0  0  0  0  0  0  0  0
   -3.7681   -2.8816   -0.2818 H   0  0  0  0  0  0  0  0  0  0  0  0
   -2.1321   -2.2086    0.9112 C   0  0  0  0  0  0  0  0  0  0  0  0
   -1.2751   -2.8426    1.5112 O   0  0  0  0  0  0  0  0  0  0  0  0
   -1.9041   -1.0186    0.3602 N   0  0  0  0  0  0  0  0  0  0  0  0
   -2.6671   -0.5416   -0.0988 H   0  0  0  0  0  0  0  0  0  0  0  0
   -0.6131   -0.3236    0.3832 C   0  0  1  0  0  0  0  0  0  0  0  0
    0.1346   -0.9625   -0.0894 H   0  0  0  0  0  0  0  0  0  0  0  0
   -0.7253    0.9751   -0.4365 C   0  0  0  0  0  0  0  0  0  0  0  0
   -1.7438    1.0604   -0.8214 H   0  0  0  0  0  0  0  0  0  0  0  0
   -0.5343    1.8292    0.2147 H   0  0  0  0  0  0  0  0  0  0  0  0
    0.2445    1.0365   -1.6222 C   0  0  0  0  0  0  0  0  0  0  0  0
   -0.3102    0.8772   -2.5463 H   0  0  0  0  0  0  0  0  0  0  0  0
    0.6986    2.0277   -1.6522 H   0  0  0  0  0  0  0  0  0  0  0  0
    1.5684   -0.1965   -1.5417 S   0  0  0  0  0  0  0  0  0  0  0  0
    2.5123    0.4535   -0.1388 C   0  0  0  0  0  0  0  0  0  0  0  0
    1.8808    0.4774    0.7498 H   0  0  0  0  0  0  0  0  0  0  0  0
    3.3714   -0.1912    0.0487 H   0  0  0  0  0  0  0  0  0  0  0  0
    2.8625    1.4608   -0.3661 H   0  0  0  0  0  0  0  0  0  0  0  0
   -0.1711   -0.0594    1.8296 C   0  0  0  0  0  0  0  0  0  0  0  0
    0.9865   -0.2908    2.1726 O   0  0  0  0  0  0  0  0  0  0  0  0
   -1.0921    0.4156    2.6780 N   0  0  0  0  0  0  0  0  0  0  0  0
   -2.0168    0.5953    2.3206 H   0  0  0  0  0  0  0  0  0  0  0  0
   -0.8319    0.7034    4.0877 C   0  0  0  0  0  0  0  0  0  0  0  0
   -0.0192    1.4288    4.1710 H   0  0  0  0  0  0  0  0  0  0  0  0
   -1.7255    1.1088    4.5641 H   0  0  0  0  0  0  0  0  0  0  0  0
   -0.5319   -0.2118    4.6011 H   0  0  0  0  0  0  0  0  0  0  0  0
  5  6  2  0  0  0  0
  5  7  1  0  0  0  0
  2  3  1  0  0  0  0
  2  4  1  0  0  0  0
  2  5  1  0  0  0  0
  1  2  1  0  0  0  0
 22 23  2  0  0  0  0
 22 24  1  0  0  0  0
 18 19  1  0  0  0  0
 18 20  1  0  0  0  0
 18 21  1  0  0  0  0
 17 18  1  0  0  0  0
 14 15  1  0  0  0  0
 14 16  1  0  0  0  0
 14 17  1  0  0  0  0
 11 12  1  0  0  0  0
 11 13  1  0  0  0  0
 11 14  1  0  0  0  0
  9 10  1  0  0  0  0
  9 11  1  0  0  0  0
  9 22  1  0  0  0  0
  7  8  1  0  0  0  0
  7  9  1  0  0  0  0
 26 27  1  0  0  0  0
 26 28  1  0  0  0  0
 26 29  1  0  0  0  0
 24 25  1  0  0  0  0
 24 26  1  0  0  0  0
M  END
$$$$
default_name
  -OEChem-02102213163D

 29 28  0     1  0  0  0  0  0999 V2000
   -3.5781   -3.7296    1.2702 H   0  0  0  0  0  0  0  0  0  0  0  0
   -3.5311   -2.7616    0.7732 C   0  0  0  0  0  0  0  0  0  0  0  0
   -4.2371   -2.0766    1.2382 H   0  0  0  0  0  0  0  0  0  0  0  0
   -3.7681   -2.8816   -0.2818 H   0  0  0  0  0  0  0  0  0  0  0  0
   -2.1321   -2.2086    0.9112 C   0  0  0  0  0  0  0  0  0  0  0  0
   -1.2751   -2.8426    1.5112 O   0  0  0  0  0  0  0  0  0  0  0  0
   -1.9041   -1.0186    0.3602 N   0  0  0  0  0  0  0  0  0  0  0  0
   -2.6671   -0.5416   -0.0988 H   0  0  0  0  0  0  0  0  0  0  0  0
   -0.6131   -0.3236    0.3832 C   0  0  1  0  0  0  0  0  0  0  0  0
    0.1346   -0.9625   -0.0894 H   0  0  0  0  0  0  0  0  0  0  0  0
   -0.7253    0.9751   -0.4365 C   0  0  0  0  0  0  0  0  0  0  0  0
   -1.7438    1.0604   -0.8214 H   0  0  0  0  0  0  0  0  0  0  0  0
   -0.5343    1.8292    0.2147 H   0  0  0  0  0  0  0  0  0  0  0  0
    0.2445    1.0365   -1.6222 C   0  0  0  0  0  0  0  0  0  0  0  0
   -0.3251    1.1454   -2.5446 H   0  0  0  0  0  0  0  0  0  0  0  0
    0.8888    1.9084   -1.5029 H   0  0  0  0  0  0  0  0  0  0  0  0
    1.2930   -0.4317   -1.7792 S   0  0  0  0  0  0  0  0  0  0  0  0
    2.3394   -0.2231   -0.3153 C   0  0  0  0  0  0  0  0  0  0  0  0
    1.7200   -0.2206    0.5821 H   0  0  0  0  0  0  0  0  0  0  0  0
    3.0502   -1.0480   -0.2585 H   0  0  0  0  0  0  0  0  0  0  0  0
    2.8864    0.7175   -0.3851 H   0  0  0  0  0  0  0  0  0  0  0  0
   -0.1711   -0.0594    1.8296 C   0  0  0  0  0  0  0  0  0  0  0  0
    0.9865   -0.2908    2.1726 O   0  0  0  0  0  0  0  0  0  0  0  0
   -1.0921    0.4156    2.6780 N   0  0  0  0  0  0  0  0  0  0  0  0
   -2.0168    0.5953    2.3206 H   0  0  0  0  0  0  0  0  0  0  0  0
   -0.8319    0.7034    4.0877 C   0  0  0  0  0  0  0  0  0  0  0  0
   -0.0192    1.4288    4.1710 H   0  0  0  0  0  0  0  0  0  0  0  0
   -1.7255    1.1088    4.5641 H   0  0  0  0  0  0  0  0  0  0  0  0
   -0.5319   -0.2118    4.6011 H   0  0  0  0  0  0  0  0  0  0  0  0
  5  6  2  0  0  0  0
  5  7  1  0  0  0  0
  2  3  1  0  0  0  0
  2  4  1  0  0  0  0
  2  5  1  0  0  0  0
  1  2  1  0  0  0  0
 22 23  2  0  0  0  0
 22 24  1  0  0  0  0
 18 19  1  0  0  0  0
 18 20  1  0  0  0  0
 18 21  1  0  0  0  0
 17 18  1  0  0  0  0
 14 15  1  0  0  0  0
 14 16  1  0  0  0  0
 14 17  1  0  0  0  0
 11 12  1  0  0  0  0
 11 13  1  0  0  0  0
 11 14  1  0  0  0  0
  9 10  1  0  0  0  0
  9 11  1  0  0  0  0
  9 22  1  0  0  0  0
  7  8  1  0  0  0  0
  7  9  1  0  0  0  0
 26 27  1  0  0  0  0
 26 28  1  0  0  0  0
 26 29  1  0  0  0  0
 24 25  1  0  0  0  0
 24 26  1  0  0  0  0
M  END
$$$$
default_name
  -OEChem-02102213163D

 29 28  0     1  0  0  0  0  0999 V2000
   -3.5781   -3.7296    1.2702 H   0  0  0  0  0  0  0  0  0  0  0  0
   -3.5311   -2.7616    0.7732 C   0  0  0  0  0  0  0  0  0  0  0  0
   -4.2371   -2.0766    1.2382 H   0  0  0  0  0  0  0  0  0  0  0  0
   -3.7681   -2.8816   -0.2818 H   0  0  0  0  0  0  0  0  0  0  0  0
   -2.1321   -2.2086    0.9112 C   0  0  0  0  0  0  0  0  0  0  0  0
   -1.2751   -2.8426    1.5112 O   0  0  0  0  0  0  0  0  0  0  0  0
   -1.9041   -1.0186    0.3602 N   0  0  0  0  0  0  0  0  0  0  0  0
   -2.6671   -0.5416   -0.0988 H   0  0  0  0  0  0  0  0  0  0  0  0
   -0.6131   -0.3236    0.3832 C   0  0  1  0  0  0  0  0  0  0  0  0
    0.1346   -0.9625   -0.0894 H   0  0  0  0  0  0  0  0  0  0  0  0
   -0.7253    0.9751   -0.4365 C   0  0  0  0  0  0  0  0  0  0  0  0
   -1.7438    1.0604   -0.8214 H   0  0  0  0  0  0  0  0  0  0  0  0
   -0.5343    1.8292    0.2147 H   0  0  0  0  0  0  0  0  0  0  0  0
    0.2445    1.0365   -1.6222 C   0  0  0  0  0  0  0  0  0  0  0  0
   -0.2858    1.4073   -2.4988 H   0  0  0  0  0  0  0  0  0  0  0  0
    1.0501    1.7307   -1.3801 H   0  0  0  0  0  0  0  0  0  0  0  0
    0.9774   -0.5648   -2.0443 S   0  0  0  0  0  0  0  0  0  0  0  0
    2.0351   -0.8131   -0.5947 C   0  0  0  0  0  0  0  0  0  0  0  0
    1.4232   -0.8351    0.3075 H   0  0  0  0  0  0  0  0  0  0  0  0
    2.5652   -1.7610   -0.6922 H   0  0  0  0  0  0  0  0  0  0  0  0
    2.7605   -0.0020   -0.5254 H   0  0  0  0  0  0  0  0  0  0  0  0
   -0.1711   -0.0594    1.8296 C   0  0  0  0  0  0  0  0  0  0  0  0
    0.9865   -0.2908    2.1726 O   0  0  0  0  0  0  0  0  0  0  0  0
   -1.0921    0.4156    2.6780 N   0  0  0  0  0  0  0  0  0  0  0  0
   -2.0168    0.5953    2.3206 H   0  0  0  0  0  0  0  0  0  0  0  0
   -0.8319    0.7034    4.0877 C   0  0  0  0  0  0  0  0  0  0  0  0
   -0.0192    1.4288    4.1710 H   0  0  0  0  0  0  0  0  0  0  0  0
   -1.7255    1.1088    4.5641 H   0  0  0  0  0  0  0  0  0  0  0  0
   -0.5319   -0.2118    4.6011 H   0  0  0  0  0  0  0  0  0  0  0  0
  5  6  2  0  0  0  0
  5  7  1  0  0  0  0
  2  3  1  0  0  0  0
  2  4  1  0  0  0  0
  2  5  1  0  0  0  0
  1  2  1  0  0  0  0
 22 23  2  0  0  0  0
 22 24  1  0  0  0  0
 18 19  1  0  0  0  0
 18 20  1  0  0  0  0
 18 21  1  0  0  0  0
 17 18  1  0  0  0  0
 14 15  1  0  0  0  0
 14 16  1  0  0  0  0
 14 17  1  0  0  0  0
 11 12  1  0  0  0  0
 11 13  1  0  0  0  0
 11 14  1  0  0  0  0
  9 10  1  0  0  0  0
  9 11  1  0  0  0  0
  9 22  1  0  0  0  0
  7  8  1  0  0  0  0
  7  9  1  0  0  0  0
 26 27  1  0  0  0  0
 26 28  1  0  0  0  0
 26 29  1  0  0  0  0
 24 25  1  0  0  0  0
 24 26  1  0  0  0  0
M  END
$$$$
default_name
  -OEChem-02102213163D

 29 28  0     1  0  0  0  0  0999 V2000
   -3.5781   -3.7296    1.2702 H   0  0  0  0  0  0  0  0  0  0  0  0
   -3.5311   -2.7616    0.7732 C   0  0  0  0  0  0  0  0  0  0  0  0
   -4.2371   -2.0766    1.2382 H   0  0  0  0  0  0  0  0  0  0  0  0
   -3.7681   -2.8816   -0.2818 H   0  0  0  0  0  0  0  0  0  0  0  0
   -2.1321   -2.2086    0.9112 C   0  0  0  0  0  0  0  0  0  0  0  0
   -1.2751   -2.8426    1.5112 O   0  0  0  0  0  0  0  0  0  0  0  0
   -1.9041   -1.0186    0.3602 N   0  0  0  0  0  0  0  0  0  0  0  0
   -2.6671   -0.5416   -0.0988 H   0  0  0  0  0  0  0  0  0  0  0  0
   -0.6131   -0.3236    0.3832 C   0  0  1  0  0  0  0  0  0  0  0  0
    0.1346   -0.9625   -0.0894 H   0  0  0  0  0  0  0  0  0  0  0  0
   -0.7253    0.9751   -0.4365 C   0  0  0  0  0  0  0  0  0  0  0  0
   -1.7438    1.0604   -0.8214 H   0  0  0  0  0  0  0  0  0  0  0  0
   -0.5343    1.8292    0.2147 H   0  0  0  0  0  0  0  0  0  0  0  0
    0.2445    1.0365   -1.6222 C   0  0  0  0  0  0  0  0  0  0  0  0
   -0.1949    1.6448   -2.4121 H   0  0  0  0  0  0  0  0  0  0  0  0
    1.1717    1.5066   -1.2923 H   0  0  0  0  0  0  0  0  0  0  0  0
    0.6431   -0.5869   -2.3189 S   0  0  0  0  0  0  0  0  0  0  0  0
    1.6202   -1.2764   -0.9582 C   0  0  0  0  0  0  0  0  0  0  0  0
    1.0107   -1.3244   -0.0553 H   0  0  0  0  0  0  0  0  0  0  0  0
    1.9495   -2.2816   -1.2228 H   0  0  0  0  0  0  0  0  0  0  0  0
    2.4934   -0.6489   -0.7775 H   0  0  0  0  0  0  0  0  0  0  0  0
   -0.1711   -0.0594    1.8296 C   0  0  0  0  0  0  0  0  0  0  0  0
    0.9865   -0.2908    2.1726 O   0  0  0  0  0  0  0  0  0  0  0  0
   -1.0921    0.4156    2.6780 N   0  0  0  0  0  0  0  0  0  0  0  0
   -2.0168    0.5953    2.3206 H   0  0  0  0  0  0  0  0  0  0  0  0
   -0.8319    0.7034    4.0877 C   0  0  0  0  0  0  0  0  0  0  0  0
   -0.0192    1.4288    4.1710 H   0  0  0  0  0  0  0  0  0  0  0  0
   -1.7255    1.1088    4.5641 H   0  0  0  0  0  0  0  0  0  0  0  0
   -0.5319   -0.2118    4.6011 H   0  0  0  0  0  0  0  0  0  0  0  0
  5  6  2  0  0  0  0
  5  7  1  0  0  0  0
  2  3  1  0  0  0  0
  2  4  1  0  0  0  0
  2  5  1  0  0  0  0
  1  2  1  0  0  0  0
 22 23  2  0  0  0  0
 22 24  1  0  0  0  0
 18 19  1  0  0  0  0
 18 20  1  0  0  0  0
 18 21  1  0  0  0  0
 17 18  1  0  0  0  0
 14 15  1  0  0  0  0
 14 16  1  0  0  0  0
 14 17  1  0  0  0  0
 11 12  1  0  0  0  0
 11 13  1  0  0  0  0
 11 14  1  0  0  0  0
  9 10  1  0  0  0  0
  9 11  1  0  0  0  0
  9 22  1  0  0  0  0
  7  8  1  0  0  0  0
  7  9  1  0  0  0  0
 26 27  1  0  0  0  0
 26 28  1  0  0  0  0
 26 29  1  0  0  0  0
 24 25  1  0  0  0  0
 24 26  1  0  0  0  0
M  END
$$$$
default_name
  -OEChem-02102213163D

 29 28  0     1  0  0  0  0  0999 V2000
   -3.5781   -3.7296    1.2702 H   0  0  0  0  0  0  0  0  0  0  0  0
   -3.5311   -2.7616    0.7732 C   0  0  0  0  0  0  0  0  0  0  0  0
   -4.2371   -2.0766    1.2382 H   0  0  0  0  0  0  0  0  0  0  0  0
   -3.7681   -2.8816   -0.2818 H   0  0  0  0  0  0  0  0  0  0  0  0
   -2.1321   -2.2086    0.9112 C   0  0  0  0  0  0  0  0  0  0  0  0
   -1.2751   -2.8426    1.5112 O   0  0  0  0  0  0  0  0  0  0  0  0
   -1.9041   -1.0186    0.3602 N   0  0  0  0  0  0  0  0  0  0  0  0
   -2.6671   -0.5416   -0.0988 H   0  0  0  0  0  0  0  0  0  0  0  0
   -0.6131   -0.3236    0.3832 C   0  0  1  0  0  0  0  0  0  0  0  0
    0.1346   -0.9625   -0.0894 H   0  0  0  0  0  0  0  0  0  0  0  0
   -0.7253    0.9751   -0.4365 C   0  0  0  0  0  0  0  0  0  0  0  0
   -1.7438    1.0604   -0.8214 H   0  0  0  0  0  0  0  0  0  0  0  0
   -0.5343    1.8292    0.2147 H   0  0  0  0  0  0  0  0  0  0  0  0
    0.2445    1.0365   -1.6222 C   0  0  0  0  0  0  0  0  0  0  0  0
   -0.0586    1.8419   -2.2905 H   0  0  0  0  0  0  0  0  0  0  0  0
    1.2452    1.2515   -1.2454 H   0  0  0  0  0  0  0  0  0  0  0  0
    0.3130   -0.4963   -2.5842 S   0  0  0  0  0  0  0  0  0  0  0  0
    1.1229   -1.5813   -1.3807 C   0  0  0  0  0  0  0  0  0  0  0  0
    0.5106   -1.6550   -0.4815 H   0  0  0  0  0  0  0  0  0  0  0  0
    1.2451   -2.5743   -1.8142 H   0  0  0  0  0  0  0  0  0  0  0  0
    2.1033   -1.1790   -1.1241 H   0  0  0  0  0  0  0  0  0  0  0  0
   -0.1711   -0.0594    1.8296 C   0  0  0  0  0  0  0  0  0  0  0  0
    0.9865   -0.2908    2.1726 O   0  0  0  0  0  0  0  0  0  0  0  0
   -1.0921    0.4156    2.6780 N   0  0  0  0  0  0  0  0  0  0  0  0
   -2.0168    0.5953    2.3206 H   0  0  0  0  0  0  0  0  0  0  0  0
   -0.8319    0.7034    4.0877 C   0  0  0  0  0  0  0  0  0  0  0  0
   -0.0192    1.4288    4.1710 H   0  0  0  0  0  0  0  0  0  0  0  0
   -1.7255    1.1088    4.5641 H   0  0  0  0  0  0  0  0  0  0  0  0
   -0.5319   -0.2118    4.6011 H   0  0  0  0  0  0  0  0  0  0  0  0
  5  6  2  0  0  0  0
  5  7  1  0  0  0  0
  2  3  1  0  0  0  0
  2  4  1  0  0  0  0
  2  5  1  0  0  0  0
  1  2  1  0  0  0  0
 22 23  2  0  0  0  0
 22 24  1  0  0  0  0
 18 19  1  0  0  0  0
 18 20  1  0  0  0  0
 18 21  1  0  0  0  0
 17 18  1  0  0  0  0
 14 15  1  0  0  0  0
 14 16  1  0  0  0  0
 14 17  1  0  0  0  0
 11 12  1  0  0  0  0
 11 13  1  0  0  0  0
 11 14  1  0  0  0  0
  9 10  1  0  0  0  0
  9 11  1  0  0  0  0
  9 22  1  0  0  0  0
  7  8  1  0  0  0  0
  7  9  1  0  0  0  0
 26 27  1  0  0  0  0
 26 28  1  0  0  0  0
 26 29  1  0  0  0  0
 24 25  1  0  0  0  0
 24 26  1  0  0  0  0
M  END
$$$$
default_name
  -OEChem-02102213163D

 29 28  0     1  0  0  0  0  0999 V2000
   -3.5781   -3.7296    1.2702 H   0  0  0  0  0  0  0  0  0  0  0  0
   -3.5311   -2.7616    0.7732 C   0  0  0  0  0  0  0  0  0  0  0  0
   -4.2371   -2.0766    1.2382 H   0  0  0  0  0  0  0  0  0  0  0  0
   -3.7681   -2.8816   -0.2818 H   0  0  0  0  0  0  0  0  0  0  0  0
   -2.1321   -2.2086    0.9112 C   0  0  0  0  0  0  0  0  0  0  0  0
   -1.2751   -2.8426    1.5112 O   0  0  0  0  0  0  0  0  0  0  0  0
   -1.9041   -1.0186    0.3602 N   0  0  0  0  0  0  0  0  0  0  0  0
   -2.6671   -0.5416   -0.0988 H   0  0  0  0  0  0  0  0  0  0  0  0
   -0.6131   -0.3236    0.3832 C   0  0  1  0  0  0  0  0  0  0  0  0
    0.1346   -0.9625   -0.0894 H   0  0  0  0  0  0  0  0  0  0  0  0
   -0.7253    0.9751   -0.4365 C   0  0  0  0  0  0  0  0  0  0  0  0
   -1.7438    1.0604   -0.8214 H   0  0  0  0  0  0  0  0  0  0  0  0
   -0.5343    1.8292    0.2147 H   0  0  0  0  0  0  0  0  0  0  0  0
    0.2445    1.0365   -1.6222 C   0  0  0  0  0  0  0  0  0  0  0  0
    0.1137    1.9851   -2.1421 H   0  0  0  0  0  0  0  0  0  0  0  0
    1.2656    0.9826   -1.2427 H   0  0  0  0  0  0  0  0  0  0  0  0
    0.0095   -0.2992   -2.8222 S   0  0  0  0  0  0  0  0  0  0  0  0
    0.5772   -1.7071   -1.8337 C   0  0  0  0  0  0  0  0  0  0  0  0
   -0.0431   -1.8044   -0.9422 H   0  0  0  0  0  0  0  0  0  0  0  0
    0.4999   -2.6193   -2.4260 H   0  0  0  0  0  0  0  0  0  0  0  0
    1.6168   -1.5562   -1.5416 H   0  0  0  0  0  0  0  0  0  0  0  0
   -0.1711   -0.0594    1.8296 C   0  0  0  0  0  0  0  0  0  0  0  0
    0.9865   -0.2908    2.1726 O   0  0  0  0  0  0  0  0  0  0  0  0
   -1.0921    0.4156    2.6780 N   0  0  0  0  0  0  0  0  0  0  0  0
   -2.0168    0.5953    2.3206 H   0  0  0  0  0  0  0  0  0  0  0  0
   -0.8319    0.7034    4.0877 C   0  0  0  0  0  0  0  0  0  0  0  0
   -0.0192    1.4288    4.1710 H   0  0  0  0  0  0  0  0  0  0  0  0
   -1.7255    1.1088    4.5641 H   0  0  0  0  0  0  0  0  0  0  0  0
   -0.5319   -0.2118    4.6011 H   0  0  0  0  0  0  0  0  0  0  0  0
  5  6  2  0  0  0  0
  5  7  1  0  0  0  0
  2  3  1  0  0  0  0
  2  4  1  0  0  0  0
  2  5  1  0  0  0  0
  1  2  1  0  0  0  0
 22 23  2  0  0  0  0
 22 24  1  0  0  0  0
 18 19  1  0  0  0  0
 18 20  1  0  0  0  0
 18 21  1  0  0  0  0
 17 18  1  0  0  0  0
 14 15  1  0  0  0  0
 14 16  1  0  0  0  0
 14 17  1  0  0  0  0
 11 12  1  0  0  0  0
 11 13  1  0  0  0  0
 11 14  1  0  0  0  0
  9 10  1  0  0  0  0
  9 11  1  0  0  0  0
  9 22  1  0  0  0  0
  7  8  1  0  0  0  0
  7  9  1  0  0  0  0
 26 27  1  0  0  0  0
 26 28  1  0  0  0  0
 26 29  1  0  0  0  0
 24 25  1  0  0  0  0
 24 26  1  0  0  0  0
M  END
$$$$
default_name
  -OEChem-02102213163D

 29 28  0     1  0  0  0  0  0999 V2000
   -3.5781   -3.7296    1.2702 H   0  0  0  0  0  0  0  0  0  0  0  0
   -3.5311   -2.7616    0.7732 C   0  0  0  0  0  0  0  0  0  0  0  0
   -4.2371   -2.0766    1.2382 H   0  0  0  0  0  0  0  0  0  0  0  0
   -3.7681   -2.8816   -0.2818 H   0  0  0  0  0  0  0  0  0  0  0  0
   -2.1321   -2.2086    0.9112 C   0  0  0  0  0  0  0  0  0  0  0  0
   -1.2751   -2.8426    1.5112 O   0  0  0  0  0  0  0  0  0  0  0  0
   -1.9041   -1.0186    0.3602 N   0  0  0  0  0  0  0  0  0  0  0  0
   -2.6671   -0.5416   -0.0988 H   0  0  0  0  0  0  0  0  0  0  0  0
   -0.6131   -0.3236    0.3832 C   0  0  1  0  0  0  0  0  0  0  0  0
    0.1346   -0.9625   -0.0894 H   0  0  0  0  0  0  0  0  0  0  0  0
   -0.7253    0.9751   -0.4365 C   0  0  0  0  0  0  0  0  0  0  0  0
   -1.7438    1.0604   -0.8214 H   0  0  0  0  0  0  0  0  0  0  0  0
   -0.5343    1.8292    0.2147 H   0  0  0  0  0  0  0  0  0  0  0  0
    0.2445    1.0365   -1.6222 C   0  0  0  0  0  0  0  0  0  0  0  0
    0.3103    2.0646   -1.9772 H   0  0  0  0  0  0  0  0  0  0  0  0
    1.2315    0.7184   -1.2843 H   0  0  0  0  0  0  0  0  0  0  0  0
   -0.2467   -0.0092   -3.0167 S   0  0  0  0  0  0  0  0  0  0  0  0
    0.0201   -1.6452   -2.2861 C   0  0  0  0  0  0  0  0  0  0  0  0
   -0.6127   -1.7625   -1.4059 H   0  0  0  0  0  0  0  0  0  0  0  0
   -0.2352   -2.4133   -3.0167 H   0  0  0  0  0  0  0  0  0  0  0  0
    1.0670   -1.7547   -2.0016 H   0  0  0  0  0  0  0  0  0  0  0  0
   -0.1711   -0.0594    1.8296 C   0  0  0  0  0  0  0  0  0  0  0  0
    0.9865   -0.2908    2.1726 O   0  0  0  0  0  0  0  0  0  0  0  0
   -1.0921    0.4156    2.6780 N   0  0  0  0  0  0  0  0  0  0  0  0
   -2.0168    0.5953    2.3206 H   0  0  0  0  0  0  0  0  0  0  0  0
   -0.8319    0.7034    4.0877 C   0  0  0  0  0  0  0  0  0  0  0  0
   -0.0192    1.4288    4.1710 H   0  0  0  0  0  0  0  0  0  0  0  0
   -1.7255    1.1088    4.5641 H   0  0  0  0  0  0  0  0  0  0  0  0
   -0.5319   -0.2118    4.6011 H   0  0  0  0  0  0  0  0  0  0  0  0
  5  6  2  0  0  0  0
  5  7  1  0  0  0  0
  2  3  1  0  0  0  0
  2  4  1  0  0  0  0
  2  5  1  0  0  0  0
  1  2  1  0  0  0  0
 22 23  2  0  0  0  0
 22 24  1  0  0  0  0
 18 19  1  0  0  0  0
 18 20  1  0  0  0  0
 18 21  1  0  0  0  0
 17 18  1  0  0  0  0
 14 15  1  0  0  0  0
 14 16  1  0  0  0  0
 14 17  1  0  0  0  0
 11 12  1  0  0  0  0
 11 13  1  0  0  0  0
 11 14  1  0  0  0  0
  9 10  1  0  0  0  0
  9 11  1  0  0  0  0
  9 22  1  0  0  0  0
  7  8  1  0  0  0  0
  7  9  1  0  0  0  0
 26 27  1  0  0  0  0
 26 28  1  0  0  0  0
 26 29  1  0  0  0  0
 24 25  1  0  0  0  0
 24 26  1  0  0  0  0
M  END
$$$$
default_name
  -OEChem-02102213163D

 29 28  0     1  0  0  0  0  0999 V2000
   -3.5781   -3.7296    1.2702 H   0  0  0  0  0  0  0  0  0  0  0  0
   -3.5311   -2.7616    0.7732 C   0  0  0  0  0  0  0  0  0  0  0  0
   -4.2371   -2.0766    1.2382 H   0  0  0  0  0  0  0  0  0  0  0  0
   -3.7681   -2.8816   -0.2818 H   0  0  0  0  0  0  0  0  0  0  0  0
   -2.1321   -2.2086    0.9112 C   0  0  0  0  0  0  0  0  0  0  0  0
   -1.2751   -2.8426    1.5112 O   0  0  0  0  0  0  0  0  0  0  0  0
   -1.9041   -1.0186    0.3602 N   0  0  0  0  0  0  0  0  0  0  0  0
   -2.6671   -0.5416   -0.0988 H   0  0  0  0  0  0  0  0  0  0  0  0
   -0.6131   -0.3236    0.3832 C   0  0  1  0  0  0  0  0  0  0  0  0
    0.1346   -0.9625   -0.0894 H   0  0  0  0  0  0  0  0  0  0  0  0
   -0.7253    0.9751   -0.4365 C   0  0  0  0  0  0  0  0  0  0  0  0
   -1.7438    1.0604   -0.8214 H   0  0  0  0  0  0  0  0  0  0  0  0
   -0.5343    1.8292    0.2147 H   0  0  0  0  0  0  0  0  0  0  0  0
    0.2445    1.0365   -1.6222 C   0  0  0  0  0  0  0  0  0  0  0  0
    0.5179    2.0750   -1.8069 H   0  0  0  0  0  0  0  0  0  0  0  0
    1.1452    0.4769   -1.3673 H   0  0  0  0  0  0  0  0  0  0  0  0
   -0.4382    0.3542   -3.1545 S   0  0  0  0  0  0  0  0  0  0  0  0
   -0.5103   -1.3999   -2.7072 C   0  0  0  0  0  0  0  0  0  0  0  0
   -1.1592   -1.5320   -1.8410 H   0  0  0  0  0  0  0  0  0  0  0  0
   -0.9102   -1.9705   -3.5458 H   0  0  0  0  0  0  0  0  0  0  0  0
    0.4914   -1.7612   -2.4727 H   0  0  0  0  0  0  0  0  0  0  0  0
   -0.1711   -0.0594    1.8296 C   0  0  0  0  0  0  0  0  0  0  0  0
    0.9865   -0.2908    2.1726 O   0  0  0  0  0  0  0  0  0  0  0  0
   -1.0921    0.4156    2.6780 N   0  0  0  0  0  0  0  0  0  0  0  0
   -2.0168    0.5953    2.3206 H   0  0  0  0  0  0  0  0  0  0  0  0
   -0.8319    0.7034    4.0877 C   0  0  0  0  0  0  0  0  0  0  0  0
   -0.0192    1.4288    4.1710 H   0  0  0  0  0  0  0  0  0  0  0  0
   -1.7255    1.1088    4.5641 H   0  0  0  0  0  0  0  0  0  0  0  0
   -0.5319   -0.2118    4.6011 H   0  0  0  0  0  0  0  0  0  0  0  0
  5  6  2  0  0  0  0
  5  7  1  0  0  0  0
  2  3  1  0  0  0  0
  2  4  1  0  0  0  0
  2  5  1  0  0  0  0
  1  2  1  0  0  0  0
 22 23  2  0  0  0  0
 22 24  1  0  0  0  0
 18 19  1  0  0  0  0
 18 20  1  0  0  0  0
 18 21  1  0  0  0  0
 17 18  1  0  0  0  0
 14 15  1  0  0  0  0
 14 16  1  0  0  0  0
 14 17  1  0  0  0  0
 11 12  1  0  0  0  0
 11 13  1  0  0  0  0
 11 14  1  0  0  0  0
  9 10  1  0  0  0  0
  9 11  1  0  0  0  0
  9 22  1  0  0  0  0
  7  8  1  0  0  0  0
  7  9  1  0  0  0  0
 26 27  1  0  0  0  0
 26 28  1  0  0  0  0
 26 29  1  0  0  0  0
 24 25  1  0  0  0  0
 24 26  1  0  0  0  0
M  END
$$$$
default_name
  -OEChem-02102213163D

 29 28  0     1  0  0  0  0  0999 V2000
   -3.5781   -3.7296    1.2702 H   0  0  0  0  0  0  0  0  0  0  0  0
   -3.5311   -2.7616    0.7732 C   0  0  0  0  0  0  0  0  0  0  0  0
   -4.2371   -2.0766    1.2382 H   0  0  0  0  0  0  0  0  0  0  0  0
   -3.7681   -2.8816   -0.2818 H   0  0  0  0  0  0  0  0  0  0  0  0
   -2.1321   -2.2086    0.9112 C   0  0  0  0  0  0  0  0  0  0  0  0
   -1.2751   -2.8426    1.5112 O   0  0  0  0  0  0  0  0  0  0  0  0
   -1.9041   -1.0186    0.3602 N   0  0  0  0  0  0  0  0  0  0  0  0
   -2.6671   -0.5416   -0.0988 H   0  0  0  0  0  0  0  0  0  0  0  0
   -0.6131   -0.3236    0.3832 C   0  0  1  0  0  0  0  0  0  0  0  0
    0.1346   -0.9625   -0.0894 H   0  0  0  0  0  0  0  0  0  0  0  0
   -0.7253    0.9751   -0.4365 C   0  0  0  0  0  0  0  0  0  0  0  0
   -1.7438    1.0604   -0.8214 H   0  0  0  0  0  0  0  0  0  0  0  0
   -0.5343    1.8292    0.2147 H   0  0  0  0  0  0  0  0  0  0  0  0
    0.2445    1.0365   -1.6222 C   0  0  0  0  0  0  0  0  0  0  0  0
    0.7222    2.0156   -1.6428 H   0  0  0  0  0  0  0  0  0  0  0  0
    1.0127    0.2744   -1.4862 H   0  0  0  0  0  0  0  0  0  0  0  0
   -0.5518    0.7659   -3.2260 S   0  0  0  0  0  0  0  0  0  0  0  0
   -0.9778   -0.9877   -3.0683 C   0  0  0  0  0  0  0  0  0  0  0  0
   -1.6456   -1.1288   -2.2179 H   0  0  0  0  0  0  0  0  0  0  0  0
   -1.4791   -1.3211   -3.9774 H   0  0  0  0  0  0  0  0  0  0  0  0
   -0.0708   -1.5750   -2.9229 H   0  0  0  0  0  0  0  0  0  0  0  0
   -0.1711   -0.0594    1.8296 C   0  0  0  0  0  0  0  0  0  0  0  0
    0.9865   -0.2908    2.1726 O   0  0  0  0  0  0  0  0  0  0  0  0
   -1.0921    0.4156    2.6780 N   0  0  0  0  0  0  0  0  0  0  0  0
   -2.0168    0.5953    2.3206 H   0  0  0  0  0  0  0  0  0  0  0  0
   -0.8319    0.7034    4.0877 C   0  0  0  0  0  0  0  0  0  0  0  0
   -0.0192    1.4288    4.1710 H   0  0  0  0  0  0  0  0  0  0  0  0
   -1.7255    1.1088    4.5641 H   0  0  0  0  0  0  0  0  0  0  0  0
   -0.5319   -0.2118    4.6011 H   0  0  0  0  0  0  0  0  0  0  0  0
  5  6  2  0  0  0  0
  5  7  1  0  0  0  0
  2  3  1  0  0  0  0
  2  4  1  0  0  0  0
  2  5  1  0  0  0  0
  1  2  1  0  0  0  0
 22 23  2  0  0  0  0
 22 24  1  0  0  0  0
 18 19  1  0  0  0  0
 18 20  1  0  0  0  0
 18 21  1  0  0  0  0
 17 18  1  0  0  0  0
 14 15  1  0  0  0  0
 14 16  1  0  0  0  0
 14 17  1  0  0  0  0
 11 12  1  0  0  0  0
 11 13  1  0  0  0  0
 11 14  1  0  0  0  0
  9 10  1  0  0  0  0
  9 11  1  0  0  0  0
  9 22  1  0  0  0  0
  7  8  1  0  0  0  0
  7  9  1  0  0  0  0
 26 27  1  0  0  0  0
 26 28  1  0  0  0  0
 26 29  1  0  0  0  0
 24 25  1  0  0  0  0
 24 26  1  0  0  0  0
M  END
$$$$
default_name
  -OEChem-02102213163D

 29 28  0     1  0  0  0  0  0999 V2000
   -3.5781   -3.7296    1.2702 H   0  0  0  0  0  0  0  0  0  0  0  0
   -3.5311   -2.7616    0.7732 C   0  0  0  0  0  0  0  0  0  0  0  0
   -4.2371   -2.0766    1.2382 H   0  0  0  0  0  0  0  0  0  0  0  0
   -3.7681   -2.8816   -0.2818 H   0  0  0  0  0  0  0  0  0  0  0  0
   -2.1321   -2.2086    0.9112 C   0  0  0  0  0  0  0  0  0  0  0  0
   -1.2751   -2.8426    1.5112 O   0  0  0  0  0  0  0  0  0  0  0  0
   -1.9041   -1.0186    0.3602 N   0  0  0  0  0  0  0  0  0  0  0  0
   -2.6671   -0.5416   -0.0988 H   0  0  0  0  0  0  0  0  0  0  0  0
   -0.6131   -0.3236    0.3832 C   0  0  1  0  0  0  0  0  0  0  0  0
    0.1346   -0.9625   -0.0894 H   0  0  0  0  0  0  0  0  0  0  0  0
   -0.7253    0.9751   -0.4365 C   0  0  0  0  0  0  0  0  0  0  0  0
   -1.7438    1.0604   -0.8214 H   0  0  0  0  0  0  0  0  0  0  0  0
   -0.5343    1.8292    0.2147 H   0  0  0  0  0  0  0  0  0  0  0  0
    0.2445    1.0365   -1.6222 C   0  0  0  0  0  0  0  0  0  0  0  0
    0.9094    1.8905   -1.4962 H   0  0  0  0  0  0  0  0  0  0  0  0
    0.8429    0.1248   -1.6329 H   0  0  0  0  0  0  0  0  0  0  0  0
   -0.5798    1.1982   -3.2265 S   0  0  0  0  0  0  0  0  0  0  0  0
   -1.3507   -0.4369   -3.3447 C   0  0  0  0  0  0  0  0  0  0  0  0
   -2.0385   -0.5803   -2.5108 H   0  0  0  0  0  0  0  0  0  0  0  0
   -1.9030   -0.5092   -4.2821 H   0  0  0  0  0  0  0  0  0  0  0  0
   -0.5812   -1.2090   -3.3214 H   0  0  0  0  0  0  0  0  0  0  0  0
   -0.1711   -0.0594    1.8296 C   0  0  0  0  0  0  0  0  0  0  0  0
    0.9865   -0.2908    2.1726 O   0  0  0  0  0  0  0  0  0  0  0  0
   -1.0921    0.4156    2.6780 N   0  0  0  0  0  0  0  0  0  0  0  0
   -2.0168    0.5953    2.3206 H   0  0  0  0  0  0  0  0  0  0  0  0
   -0.8319    0.7034    4.0877 C   0  0  0  0  0  0  0  0  0  0  0  0
   -0.0192    1.4288    4.1710 H   0  0  0  0  0  0  0  0  0  0  0  0
   -1.7255    1.1088    4.5641 H   0  0  0  0  0  0  0  0  0  0  0  0
   -0.5319   -0.2118    4.6011 H   0  0  0  0  0  0  0  0  0  0  0  0
  5  6  2  0  0  0  0
  5  7  1  0  0  0  0
  2  3  1  0  0  0  0
  2  4  1  0  0  0  0
  2  5  1  0  0  0  0
  1  2  1  0  0  0  0
 22 23  2  0  0  0  0
 22 24  1  0  0  0  0
 18 19  1  0  0  0  0
 18 20  1  0  0  0  0
 18 21  1  0  0  0  0
 17 18  1  0  0  0  0
 14 15  1  0  0  0  0
 14 16  1  0  0  0  0
 14 17  1  0  0  0  0
 11 12  1  0  0  0  0
 11 13  1  0  0  0  0
 11 14  1  0  0  0  0
  9 10  1  0  0  0  0
  9 11  1  0  0  0  0
  9 22  1  0  0  0  0
  7  8  1  0  0  0  0
  7  9  1  0  0  0  0
 26 27  1  0  0  0  0
 26 28  1  0  0  0  0
 26 29  1  0  0  0  0
 24 25  1  0  0  0  0
 24 26  1  0  0  0  0
M  END
$$$$
default_name
  -OEChem-02102213163D

 29 28  0     1  0  0  0  0  0999 V2000
   -3.5781   -3.7296    1.2702 H   0  0  0  0  0  0  0  0  0  0  0  0
   -3.5311   -2.7616    0.7732 C   0  0  0  0  0  0  0  0  0  0  0  0
   -4.2371   -2.0766    1.2382 H   0  0  0  0  0  0  0  0  0  0  0  0
   -3.7681   -2.8816   -0.2818 H   0  0  0  0  0  0  0  0  0  0  0  0
   -2.1321   -2.2086    0.9112 C   0  0  0  0  0  0  0  0  0  0  0  0
   -1.2751   -2.8426    1.5112 O   0  0  0  0  0  0  0  0  0  0  0  0
   -1.9041   -1.0186    0.3602 N   0  0  0  0  0  0  0  0  0  0  0  0
   -2.6671   -0.5416   -0.0988 H   0  0  0  0  0  0  0  0  0  0  0  0
   -0.6131   -0.3236    0.3832 C   0  0  1  0  0  0  0  0  0  0  0  0
    0.1346   -0.9625   -0.0894 H   0  0  0  0  0  0  0  0  0  0  0  0
   -0.7253    0.9751   -0.4365 C   0  0  0  0  0  0  0  0  0  0  0  0
   -1.7438    1.0604   -0.8214 H   0  0  0  0  0  0  0  0  0  0  0  0
   -0.5343    1.8292    0.2147 H   0  0  0  0  0  0  0  0  0  0  0  0
    0.2445    1.0365   -1.6222 C   0  0  0  0  0  0  0  0  0  0  0  0
    1.0667    1.7082   -1.3770 H   0  0  0  0  0  0  0  0  0  0  0  0
    0.6475    0.0383   -1.7972 H   0  0  0  0  0  0  0  0  0  0  0  0
   -0.5204    1.6213   -3.1560 S   0  0  0  0  0  0  0  0  0  0  0  0
   -1.6035    0.2150   -3.5177 C   0  0  0  0  0  0  0  0  0  0  0  0
   -2.3113    0.0762   -2.6999 H   0  0  0  0  0  0  0  0  0  0  0  0
   -2.1531    0.4097   -4.4390 H   0  0  0  0  0  0  0  0  0  0  0  0
   -1.0050   -0.6880   -3.6411 H   0  0  0  0  0  0  0  0  0  0  0  0
   -0.1711   -0.0594    1.8296 C   0  0  0  0  0  0  0  0  0  0  0  0
    0.9865   -0.2908    2.1726 O   0  0  0  0  0  0  0  0  0  0  0  0
   -1.0921    0.4156    2.6780 N   0  0  0  0  0  0  0  0  0  0  0  0
   -2.0168    0.5953    2.3206 H   0  0  0  0  0  0  0  0  0  0  0  0
   -0.8319    0.7034    4.0877 C   0  0  0  0  0  0  0  0  0  0  0  0
   -0.0192    1.4288    4.1710 H   0  0  0  0  0  0  0  0  0  0  0  0
   -1.7255    1.1088    4.5641 H   0  0  0  0  0  0  0  0  0  0  0  0
   -0.5319   -0.2118    4.6011 H   0  0  0  0  0  0  0  0  0  0  0  0
  5  6  2  0  0  0  0
  5  7  1  0  0  0  0
  2  3  1  0  0  0  0
  2  4  1  0  0  0  0
  2  5  1  0  0  0  0
  1  2  1  0  0  0  0
 22 23  2  0  0  0  0
 22 24  1  0  0  0  0
 18 19  1  0  0  0  0
 18 20  1  0  0  0  0
 18 21  1  0  0  0  0
 17 18  1  0  0  0  0
 14 15  1  0  0  0  0
 14 16  1  0  0  0  0
 14 17  1  0  0  0  0
 11 12  1  0  0  0  0
 11 13  1  0  0  0  0
 11 14  1  0  0  0  0
  9 10  1  0  0  0  0
  9 11  1  0  0  0  0
  9 22  1  0  0  0  0
  7  8  1  0  0  0  0
  7  9  1  0  0  0  0
 26 27  1  0  0  0  0
 26 28  1  0  0  0  0
 26 29  1  0  0  0  0
 24 25  1  0  0  0  0
 24 26  1  0  0  0  0
M  END
$$$$
default_name
  -OEChem-02102213163D

 29 28  0     1  0  0  0  0  0999 V2000
   -3.5781   -3.7296    1.2702 H   0  0  0  0  0  0  0  0  0  0  0  0
   -3.5311   -2.7616    0.7732 C   0  0  0  0  0  0  0  0  0  0  0  0
   -4.2371   -2.0766    1.2382 H   0  0  0  0  0  0  0  0  0  0  0  0
   -3.7681   -2.8816   -0.2818 H   0  0  0  0  0  0  0  0  0  0  0  0
   -2.1321   -2.2086    0.9112 C   0  0  0  0  0  0  0  0  0  0  0  0
   -1.2751   -2.8426    1.5112 O   0  0  0  0  0  0  0  0  0  0  0  0
   -1.9041   -1.0186    0.3602 N   0  0  0  0  0  0  0  0  0  0  0  0
   -2.6671   -0.5416   -0.0988 H   0  0  0  0  0  0  0  0  0  0  0  0
   -0.6131   -0.3236    0.3832 C   0  0  1  0  0  0  0  0  0  0  0  0
    0.1346   -0.9625   -0.0894 H   0  0  0  0  0  0  0  0  0  0  0  0
   -0.7253    0.9751   -0.4365 C   0  0  0  0  0  0  0  0  0  0  0  0
   -1.7438    1.0604   -0.8214 H   0  0  0  0  0  0  0  0  0  0  0  0
   -0.5343    1.8292    0.2147 H   0  0  0  0  0  0  0  0  0  0  0  0
    0.2445    1.0365   -1.6222 C   0  0  0  0  0  0  0  0  0  0  0  0
    1.1834    1.4810   -1.2933 H   0  0  0  0  0  0  0  0  0  0  0  0
    0.4396    0.0208   -1.9681 H   0  0  0  0  0  0  0  0  0  0  0  0
   -0.3775    2.0067   -3.0192 S   0  0  0  0  0  0  0  0  0  0  0  0
   -1.7190    0.9237   -3.5754 C   0  0  0  0  0  0  0  0  0  0  0  0
   -2.4454    0.7959   -2.7722 H   0  0  0  0  0  0  0  0  0  0  0  0
   -2.2124    1.3731   -4.4375 H   0  0  0  0  0  0  0  0  0  0  0  0
   -1.3135   -0.0476   -3.8602 H   0  0  0  0  0  0  0  0  0  0  0  0
   -0.1711   -0.0594    1.8296 C   0  0  0  0  0  0  0  0  0  0  0  0
    0.9865   -0.2908    2.1726 O   0  0  0  0  0  0  0  0  0  0  0  0
   -1.0921    0.4156    2.6780 N   0  0  0  0  0  0  0  0  0  0  0  0
   -2.0168    0.5953    2.3206 H   0  0  0  0  0  0  0  0  0  0  0  0
   -0.8319    0.7034    4.0877 C   0  0  0  0  0  0  0  0  0  0  0  0
   -0.0192    1.4288    4.1710 H   0  0  0  0  0  0  0  0  0  0  0  0
   -1.7255    1.1088    4.5641 H   0  0  0  0  0  0  0  0  0  0  0  0
   -0.5319   -0.2118    4.6011 H   0  0  0  0  0  0  0  0  0  0  0  0
  5  6  2  0  0  0  0
  5  7  1  0  0  0  0
  2  3  1  0  0  0  0
  2  4  1  0  0  0  0
  2  5  1  0  0  0  0
  1  2  1  0  0  0  0
 22 23  2  0  0  0  0
 22 24  1  0  0  0  0
 18 19  1  0  0  0  0
 18 20  1  0  0  0  0
 18 21  1  0  0  0  0
 17 18  1  0  0  0  0
 14 15  1  0  0  0  0
 14 16  1  0  0  0  0
 14 17  1  0  0  0  0
 11 12  1  0  0  0  0
 11 13  1  0  0  0  0
 11 14  1  0  0  0  0
  9 10  1  0  0  0  0
  9 11  1  0  0  0  0
  9 22  1  0  0  0  0
  7  8  1  0  0  0  0
  7  9  1  0  0  0  0
 26 27  1  0  0  0  0
 26 28  1  0  0  0  0
 26 29  1  0  0  0  0
 24 25  1  0  0  0  0
 24 26  1  0  0  0  0
M  END
$$$$
default_name
  -OEChem-02102213163D

 29 28  0     1  0  0  0  0  0999 V2000
   -3.5781   -3.7296    1.2702 H   0  0  0  0  0  0  0  0  0  0  0  0
   -3.5311   -2.7616    0.7732 C   0  0  0  0  0  0  0  0  0  0  0  0
   -4.2371   -2.0766    1.2382 H   0  0  0  0  0  0  0  0  0  0  0  0
   -3.7681   -2.8816   -0.2818 H   0  0  0  0  0  0  0  0  0  0  0  0
   -2.1321   -2.2086    0.9112 C   0  0  0  0  0  0  0  0  0  0  0  0
   -1.2751   -2.8426    1.5112 O   0  0  0  0  0  0  0  0  0  0  0  0
   -1.9041   -1.0186    0.3602 N   0  0  0  0  0  0  0  0  0  0  0  0
   -2.6671   -0.5416   -0.0988 H   0  0  0  0  0  0  0  0  0  0  0  0
   -0.6131   -0.3236    0.3832 C   0  0  1  0  0  0  0  0  0  0  0  0
    0.1346   -0.9625   -0.0894 H   0  0  0  0  0  0  0  0  0  0  0  0
   -0.7253    0.9751   -0.4365 C   0  0  0  0  0  0  0  0  0  0  0  0
   -1.7438    1.0604   -0.8214 H   0  0  0  0  0  0  0  0  0  0  0  0
   -0.5343    1.8292    0.2147 H   0  0  0  0  0  0  0  0  0  0  0  0
    0.2445    1.0365   -1.6222 C   0  0  0  0  0  0  0  0  0  0  0  0
    1.2515    1.2246   -1.2509 H   0  0  0  0  0  0  0  0  0  0  0  0
    0.2336    0.0735   -2.1339 H   0  0  0  0  0  0  0  0  0  0  0  0
   -0.1610    2.3279   -2.8254 S   0  0  0  0  0  0  0  0  0  0  0  0
   -1.6893    1.6407   -3.5139 C   0  0  0  0  0  0  0  0  0  0  0  0
   -2.4315    1.5297   -2.7229 H   0  0  0  0  0  0  0  0  0  0  0  0
   -2.0768    2.3153   -4.2778 H   0  0  0  0  0  0  0  0  0  0  0  0
   -1.4856    0.6686   -3.9638 H   0  0  0  0  0  0  0  0  0  0  0  0
   -0.1711   -0.0594    1.8296 C   0  0  0  0  0  0  0  0  0  0  0  0
    0.9865   -0.2908    2.1726 O   0  0  0  0  0  0  0  0  0  0  0  0
   -1.0921    0.4156    2.6780 N   0  0  0  0  0  0  0  0  0  0  0  0
   -2.0168    0.5953    2.3206 H   0  0  0  0  0  0  0  0  0  0  0  0
   -0.8319    0.7034    4.0877 C   0  0  0  0  0  0  0  0  0  0  0  0
   -0.0192    1.4288    4.1710 H   0  0  0  0  0  0  0  0  0  0  0  0
   -1.7255    1.1088    4.5641 H   0  0  0  0  0  0  0  0  0  0  0  0
   -0.5319   -0.2118    4.6011 H   0  0  0  0  0  0  0  0  0  0  0  0
  5  6  2  0  0  0  0
  5  7  1  0  0  0  0
  2  3  1  0  0  0  0
  2  4  1  0  0  0  0
  2  5  1  0  0  0  0
  1  2  1  0  0  0  0
 22 23  2  0  0  0  0
 22 24  1  0  0  0  0
 18 19  1  0  0  0  0
 18 20  1  0  0  0  0
 18 21  1  0  0  0  0
 17 18  1  0  0  0  0
 14 15  1  0  0  0  0
 14 16  1  0  0  0  0
 14 17  1  0  0  0  0
 11 12  1  0  0  0  0
 11 13  1  0  0  0  0
 11 14  1  0  0  0  0
  9 10  1  0  0  0  0
  9 11  1  0  0  0  0
  9 22  1  0  0  0  0
  7  8  1  0  0  0  0
  7  9  1  0  0  0  0
 26 27  1  0  0  0  0
 26 28  1  0  0  0  0
 26 29  1  0  0  0  0
 24 25  1  0  0  0  0
 24 26  1  0  0  0  0
M  END
$$$$
default_name
  -OEChem-02102213163D

 29 28  0     1  0  0  0  0  0999 V2000
   -3.5781   -3.7296    1.2702 H   0  0  0  0  0  0  0  0  0  0  0  0
   -3.5311   -2.7616    0.7732 C   0  0  0  0  0  0  0  0  0  0  0  0
   -4.2371   -2.0766    1.2382 H   0  0  0  0  0  0  0  0  0  0  0  0
   -3.7681   -2.8816   -0.2818 H   0  0  0  0  0  0  0  0  0  0  0  0
   -2.1321   -2.2086    0.9112 C   0  0  0  0  0  0  0  0  0  0  0  0
   -1.2751   -2.8426    1.5112 O   0  0  0  0  0  0  0  0  0  0  0  0
   -1.9041   -1.0186    0.3602 N   0  0  0  0  0  0  0  0  0  0  0  0
   -2.6671   -0.5416   -0.0988 H   0  0  0  0  0  0  0  0  0  0  0  0
   -0.6131   -0.3236    0.3832 C   0  0  1  0  0  0  0  0  0  0  0  0
    0.1346   -0.9625   -0.0894 H   0  0  0  0  0  0  0  0  0  0  0  0
   -0.7253    0.9751   -0.4365 C   0  0  0  0  0  0  0  0  0  0  0  0
   -1.7822    1.2006   -0.5939 H   0  0  0  0  0  0  0  0  0  0  0  0
   -0.2819    1.7964    0.1282 H   0  0  0  0  0  0  0  0  0  0  0  0
   -0.0404    0.8961   -1.8057 C   0  0  0  0  0  0  0  0  0  0  0  0
    1.0171    0.6750   -1.6642 H   0  0  0  0  0  0  0  0  0  0  0  0
   -0.4943    0.0864   -2.3782 H   0  0  0  0  0  0  0  0  0  0  0  0
   -0.1710    2.4223   -2.7718 S   0  0  0  0  0  0  0  0  0  0  0  0
   -1.9445    2.4045   -3.1408 C   0  0  0  0  0  0  0  0  0  0  0  0
   -2.5137    2.4240   -2.2109 H   0  0  0  0  0  0  0  0  0  0  0  0
   -2.1987    3.2820   -3.7358 H   0  0  0  0  0  0  0  0  0  0  0  0
   -2.1940    1.5047   -3.7039 H   0  0  0  0  0  0  0  0  0  0  0  0
   -0.1711   -0.0594    1.8296 C   0  0  0  0  0  0  0  0  0  0  0  0
    0.9865   -0.2908    2.1726 O   0  0  0  0  0  0  0  0  0  0  0  0
   -1.0921    0.4156    2.6780 N   0  0  0  0  0  0  0  0  0  0  0  0
   -2.0168    0.5953    2.3206 H   0  0  0  0  0  0  0  0  0  0  0  0
   -0.8319    0.7034    4.0877 C   0  0  0  0  0  0  0  0  0  0  0  0
   -0.0192    1.4288    4.1710 H   0  0  0  0  0  0  0  0  0  0  0  0
   -1.7255    1.1088    4.5641 H   0  0  0  0  0  0  0  0  0  0  0  0
   -0.5319   -0.2118    4.6011 H   0  0  0  0  0  0  0  0  0  0  0  0
  5  6  2  0  0  0  0
  5  7  1  0  0  0  0
  2  3  1  0  0  0  0
  2  4  1  0  0  0  0
  2  5  1  0  0  0  0
  1  2  1  0  0  0  0
 22 23  2  0  0  0  0
 22 24  1  0  0  0  0
 18 19  1  0  0  0  0
 18 20  1  0  0  0  0
 18 21  1  0  0  0  0
 17 18  1  0  0  0  0
 14 15  1  0  0  0  0
 14 16  1  0  0  0  0
 14 17  1  0  0  0  0
 11 12  1  0  0  0  0
 11 13  1  0  0  0  0
 11 14  1  0  0  0  0
  9 10  1  0  0  0  0
  9 11  1  0  0  0  0
  9 22  1  0  0  0  0
  7  8  1  0  0  0  0
  7  9  1  0  0  0  0
 26 27  1  0  0  0  0
 26 28  1  0  0  0  0
 26 29  1  0  0  0  0
 24 25  1  0  0  0  0
 24 26  1  0  0  0  0
M  END
$$$$
default_name
  -OEChem-02102213163D

 29 28  0     1  0  0  0  0  0999 V2000
   -3.5781   -3.7296    1.2702 H   0  0  0  0  0  0  0  0  0  0  0  0
   -3.5311   -2.7616    0.7732 C   0  0  0  0  0  0  0  0  0  0  0  0
   -4.2371   -2.0766    1.2382 H   0  0  0  0  0  0  0  0  0  0  0  0
   -3.7681   -2.8816   -0.2818 H   0  0  0  0  0  0  0  0  0  0  0  0
   -2.1321   -2.2086    0.9112 C   0  0  0  0  0  0  0  0  0  0  0  0
   -1.2751   -2.8426    1.5112 O   0  0  0  0  0  0  0  0  0  0  0  0
   -1.9041   -1.0186    0.3602 N   0  0  0  0  0  0  0  0  0  0  0  0
   -2.6671   -0.5416   -0.0988 H   0  0  0  0  0  0  0  0  0  0  0  0
   -0.6131   -0.3236    0.3832 C   0  0  1  0  0  0  0  0  0  0  0  0
    0.1346   -0.9625   -0.0894 H   0  0  0  0  0  0  0  0  0  0  0  0
   -0.7253    0.9751   -0.4365 C   0  0  0  0  0  0  0  0  0  0  0  0
   -1.7822    1.2006   -0.5939 H   0  0  0  0  0  0  0  0  0  0  0  0
   -0.2819    1.7964    0.1282 H   0  0  0  0  0  0  0  0  0  0  0  0
   -0.0404    0.8961   -1.8057 C   0  0  0  0  0  0  0  0  0  0  0  0
    0.9335    0.4211   -1.6913 H   0  0  0  0  0  0  0  0  0  0  0  0
   -0.6530    0.2845   -2.4691 H   0  0  0  0  0  0  0  0  0  0  0  0
    0.2102    2.5109   -2.5862 S   0  0  0  0  0  0  0  0  0  0  0  0
   -1.5091    2.9471   -2.9543 C   0  0  0  0  0  0  0  0  0  0  0  0
   -2.0833    2.9920   -2.0284 H   0  0  0  0  0  0  0  0  0  0  0  0
   -1.5382    3.9217   -3.4423 H   0  0  0  0  0  0  0  0  0  0  0  0
   -1.9439    2.2001   -3.6189 H   0  0  0  0  0  0  0  0  0  0  0  0
   -0.1711   -0.0594    1.8296 C   0  0  0  0  0  0  0  0  0  0  0  0
    0.9865   -0.2908    2.1726 O   0  0  0  0  0  0  0  0  0  0  0  0
   -1.0921    0.4156    2.6780 N   0  0  0  0  0  0  0  0  0  0  0  0
   -2.0168    0.5953    2.3206 H   0  0  0  0  0  0  0  0  0  0  0  0
   -0.8319    0.7034    4.0877 C   0  0  0  0  0  0  0  0  0  0  0  0
   -0.0192    1.4288    4.1710 H   0  0  0  0  0  0  0  0  0  0  0  0
   -1.7255    1.1088    4.5641 H   0  0  0  0  0  0  0  0  0  0  0  0
   -0.5319   -0.2118    4.6011 H   0  0  0  0  0  0  0  0  0  0  0  0
  5  6  2  0  0  0  0
  5  7  1  0  0  0  0
  2  3  1  0  0  0  0
  2  4  1  0  0  0  0
  2  5  1  0  0  0  0
  1  2  1  0  0  0  0
 22 23  2  0  0  0  0
 22 24  1  0  0  0  0
 18 19  1  0  0  0  0
 18 20  1  0  0  0  0
 18 21  1  0  0  0  0
 17 18  1  0  0  0  0
 14 15  1  0  0  0  0
 14 16  1  0  0  0  0
 14 17  1  0  0  0  0
 11 12  1  0  0  0  0
 11 13  1  0  0  0  0
 11 14  1  0  0  0  0
  9 10  1  0  0  0  0
  9 11  1  0  0  0  0
  9 22  1  0  0  0  0
  7  8  1  0  0  0  0
  7  9  1  0  0  0  0
 26 27  1  0  0  0  0
 26 28  1  0  0  0  0
 26 29  1  0  0  0  0
 24 25  1  0  0  0  0
 24 26  1  0  0  0  0
M  END
$$$$
default_name
  -OEChem-02102213163D

 29 28  0     1  0  0  0  0  0999 V2000
   -3.5781   -3.7296    1.2702 H   0  0  0  0  0  0  0  0  0  0  0  0
   -3.5311   -2.7616    0.7732 C   0  0  0  0  0  0  0  0  0  0  0  0
   -4.2371   -2.0766    1.2382 H   0  0  0  0  0  0  0  0  0  0  0  0
   -3.7681   -2.8816   -0.2818 H   0  0  0  0  0  0  0  0  0  0  0  0
   -2.1321   -2.2086    0.9112 C   0  0  0  0  0  0  0  0  0  0  0  0
   -1.2751   -2.8426    1.5112 O   0  0  0  0  0  0  0  0  0  0  0  0
   -1.9041   -1.0186    0.3602 N   0  0  0  0  0  0  0  0  0  0  0  0
   -2.6671   -0.5416   -0.0988 H   0  0  0  0  0  0  0  0  0  0  0  0
   -0.6131   -0.3236    0.3832 C   0  0  1  0  0  0  0  0  0  0  0  0
    0.1346   -0.9625   -0.0894 H   0  0  0  0  0  0  0  0  0  0  0  0
   -0.7253    0.9751   -0.4365 C   0  0  0  0  0  0  0  0  0  0  0  0
   -1.7822    1.2006   -0.5939 H   0  0  0  0  0  0  0  0  0  0  0  0
   -0.2819    1.7964    0.1282 H   0  0  0  0  0  0  0  0  0  0  0  0
   -0.0404    0.8961   -1.8057 C   0  0  0  0  0  0  0  0  0  0  0  0
    0.7944    0.1983   -1.7480 H   0  0  0  0  0  0  0  0  0  0  0  0
   -0.7594    0.5230   -2.5360 H   0  0  0  0  0  0  0  0  0  0  0  0
    0.5964    2.4869   -2.3916 S   0  0  0  0  0  0  0  0  0  0  0  0
   -0.9656    3.3491   -2.7056 C   0  0  0  0  0  0  0  0  0  0  0  0
   -1.5387    3.4200   -1.7807 H   0  0  0  0  0  0  0  0  0  0  0  0
   -0.7562    4.3530   -3.0760 H   0  0  0  0  0  0  0  0  0  0  0  0
   -1.5428    2.8041   -3.4531 H   0  0  0  0  0  0  0  0  0  0  0  0
   -0.1711   -0.0594    1.8296 C   0  0  0  0  0  0  0  0  0  0  0  0
    0.9865   -0.2908    2.1726 O   0  0  0  0  0  0  0  0  0  0  0  0
   -1.0921    0.4156    2.6780 N   0  0  0  0  0  0  0  0  0  0  0  0
   -2.0168    0.5953    2.3206 H   0  0  0  0  0  0  0  0  0  0  0  0
   -0.8319    0.7034    4.0877 C   0  0  0  0  0  0  0  0  0  0  0  0
   -0.0192    1.4288    4.1710 H   0  0  0  0  0  0  0  0  0  0  0  0
   -1.7255    1.1088    4.5641 H   0  0  0  0  0  0  0  0  0  0  0  0
   -0.5319   -0.2118    4.6011 H   0  0  0  0  0  0  0  0  0  0  0  0
  5  6  2  0  0  0  0
  5  7  1  0  0  0  0
  2  3  1  0  0  0  0
  2  4  1  0  0  0  0
  2  5  1  0  0  0  0
  1  2  1  0  0  0  0
 22 23  2  0  0  0  0
 22 24  1  0  0  0  0
 18 19  1  0  0  0  0
 18 20  1  0  0  0  0
 18 21  1  0  0  0  0
 17 18  1  0  0  0  0
 14 15  1  0  0  0  0
 14 16  1  0  0  0  0
 14 17  1  0  0  0  0
 11 12  1  0  0  0  0
 11 13  1  0  0  0  0
 11 14  1  0  0  0  0
  9 10  1  0  0  0  0
  9 11  1  0  0  0  0
  9 22  1  0  0  0  0
  7  8  1  0  0  0  0
  7  9  1  0  0  0  0
 26 27  1  0  0  0  0
 26 28  1  0  0  0  0
 26 29  1  0  0  0  0
 24 25  1  0  0  0  0
 24 26  1  0  0  0  0
M  END
$$$$
default_name
  -OEChem-02102213163D

 29 28  0     1  0  0  0  0  0999 V2000
   -3.5781   -3.7296    1.2702 H   0  0  0  0  0  0  0  0  0  0  0  0
   -3.5311   -2.7616    0.7732 C   0  0  0  0  0  0  0  0  0  0  0  0
   -4.2371   -2.0766    1.2382 H   0  0  0  0  0  0  0  0  0  0  0  0
   -3.7681   -2.8816   -0.2818 H   0  0  0  0  0  0  0  0  0  0  0  0
   -2.1321   -2.2086    0.9112 C   0  0  0  0  0  0  0  0  0  0  0  0
   -1.2751   -2.8426    1.5112 O   0  0  0  0  0  0  0  0  0  0  0  0
   -1.9041   -1.0186    0.3602 N   0  0  0  0  0  0  0  0  0  0  0  0
   -2.6671   -0.5416   -0.0988 H   0  0  0  0  0  0  0  0  0  0  0  0
   -0.6131   -0.3236    0.3832 C   0  0  1  0  0  0  0  0  0  0  0  0
    0.1346   -0.9625   -0.0894 H   0  0  0  0  0  0  0  0  0  0  0  0
   -0.7253    0.9751   -0.4365 C   0  0  0  0  0  0  0  0  0  0  0  0
   -1.7822    1.2006   -0.5939 H   0  0  0  0  0  0  0  0  0  0  0  0
   -0.2819    1.7964    0.1282 H   0  0  0  0  0  0  0  0  0  0  0  0
   -0.0404    0.8961   -1.8057 C   0  0  0  0  0  0  0  0  0  0  0  0
    0.6094    0.0218   -1.8304 H   0  0  0  0  0  0  0  0  0  0  0  0
   -0.8060    0.7858   -2.5745 H   0  0  0  0  0  0  0  0  0  0  0  0
    0.9614    2.3520   -2.2013 S   0  0  0  0  0  0  0  0  0  0  0  0
   -0.3510    3.5830   -2.4116 C   0  0  0  0  0  0  0  0  0  0  0  0
   -0.9171    3.6789   -1.4847 H   0  0  0  0  0  0  0  0  0  0  0  0
    0.0940    4.5464   -2.6619 H   0  0  0  0  0  0  0  0  0  0  0  0
   -1.0178    3.2757   -3.2177 H   0  0  0  0  0  0  0  0  0  0  0  0
   -0.1711   -0.0594    1.8296 C   0  0  0  0  0  0  0  0  0  0  0  0
    0.9865   -0.2908    2.1726 O   0  0  0  0  0  0  0  0  0  0  0  0
   -1.0921    0.4156    2.6780 N   0  0  0  0  0  0  0  0  0  0  0  0
   -2.0168    0.5953    2.3206 H   0  0  0  0  0  0  0  0  0  0  0  0
   -0.8319    0.7034    4.0877 C   0  0  0  0  0  0  0  0  0  0  0  0
   -0.0192    1.4288    4.1710 H   0  0  0  0  0  0  0  0  0  0  0  0
   -1.7255    1.1088    4.5641 H   0  0  0  0  0  0  0  0  0  0  0  0
   -0.5319   -0.2118    4.6011 H   0  0  0  0  0  0  0  0  0  0  0  0
  5  6  2  0  0  0  0
  5  7  1  0  0  0  0
  2  3  1  0  0  0  0
  2  4  1  0  0  0  0
  2  5  1  0  0  0  0
  1  2  1  0  0  0  0
 22 23  2  0  0  0  0
 22 24  1  0  0  0  0
 18 19  1  0  0  0  0
 18 20  1  0  0  0  0
 18 21  1  0  0  0  0
 17 18  1  0  0  0  0
 14 15  1  0  0  0  0
 14 16  1  0  0  0  0
 14 17  1  0  0  0  0
 11 12  1  0  0  0  0
 11 13  1  0  0  0  0
 11 14  1  0  0  0  0
  9 10  1  0  0  0  0
  9 11  1  0  0  0  0
  9 22  1  0  0  0  0
  7  8  1  0  0  0  0
  7  9  1  0  0  0  0
 26 27  1  0  0  0  0
 26 28  1  0  0  0  0
 26 29  1  0  0  0  0
 24 25  1  0  0  0  0
 24 26  1  0  0  0  0
M  END
$$$$
default_name
  -OEChem-02102213163D

 29 28  0     1  0  0  0  0  0999 V2000
   -3.5781   -3.7296    1.2702 H   0  0  0  0  0  0  0  0  0  0  0  0
   -3.5311   -2.7616    0.7732 C   0  0  0  0  0  0  0  0  0  0  0  0
   -4.2371   -2.0766    1.2382 H   0  0  0  0  0  0  0  0  0  0  0  0
   -3.7681   -2.8816   -0.2818 H   0  0  0  0  0  0  0  0  0  0  0  0
   -2.1321   -2.2086    0.9112 C   0  0  0  0  0  0  0  0  0  0  0  0
   -1.2751   -2.8426    1.5112 O   0  0  0  0  0  0  0  0  0  0  0  0
   -1.9041   -1.0186    0.3602 N   0  0  0  0  0  0  0  0  0  0  0  0
   -2.6671   -0.5416   -0.0988 H   0  0  0  0  0  0  0  0  0  0  0  0
   -0.6131   -0.3236    0.3832 C   0  0  1  0  0  0  0  0  0  0  0  0
    0.1346   -0.9625   -0.0894 H   0  0  0  0  0  0  0  0  0  0  0  0
   -0.7253    0.9751   -0.4365 C   0  0  0  0  0  0  0  0  0  0  0  0
   -1.7822    1.2006   -0.5939 H   0  0  0  0  0  0  0  0  0  0  0  0
   -0.2819    1.7964    0.1282 H   0  0  0  0  0  0  0  0  0  0  0  0
   -0.0404    0.8961   -1.8057 C   0  0  0  0  0  0  0  0  0  0  0  0
    0.3909   -0.0964   -1.9329 H   0  0  0  0  0  0  0  0  0  0  0  0
   -0.7898    1.0548   -2.5819 H   0  0  0  0  0  0  0  0  0  0  0  0
    1.2801    2.1153   -2.0282 S   0  0  0  0  0  0  0  0  0  0  0  0
    0.2929    3.6328   -2.0925 C   0  0  0  0  0  0  0  0  0  0  0  0
   -0.2607    3.7511   -1.1605 H   0  0  0  0  0  0  0  0  0  0  0  0
    0.9544    4.4889   -2.2282 H   0  0  0  0  0  0  0  0  0  0  0  0
   -0.4049    3.5826   -2.9288 H   0  0  0  0  0  0  0  0  0  0  0  0
   -0.1711   -0.0594    1.8296 C   0  0  0  0  0  0  0  0  0  0  0  0
    0.9865   -0.2908    2.1726 O   0  0  0  0  0  0  0  0  0  0  0  0
   -1.0921    0.4156    2.6780 N   0  0  0  0  0  0  0  0  0  0  0  0
   -2.0168    0.5953    2.3206 H   0  0  0  0  0  0  0  0  0  0  0  0
   -0.8319    0.7034    4.0877 C   0  0  0  0  0  0  0  0  0  0  0  0
   -0.0192    1.4288    4.1710 H   0  0  0  0  0  0  0  0  0  0  0  0
   -1.7255    1.1088    4.5641 H   0  0  0  0  0  0  0  0  0  0  0  0
   -0.5319   -0.2118    4.6011 H   0  0  0  0  0  0  0  0  0  0  0  0
  5  6  2  0  0  0  0
  5  7  1  0  0  0  0
  2  3  1  0  0  0  0
  2  4  1  0  0  0  0
  2  5  1  0  0  0  0
  1  2  1  0  0  0  0
 22 23  2  0  0  0  0
 22 24  1  0  0  0  0
 18 19  1  0  0  0  0
 18 20  1  0  0  0  0
 18 21  1  0  0  0  0
 17 18  1  0  0  0  0
 14 15  1  0  0  0  0
 14 16  1  0  0  0  0
 14 17  1  0  0  0  0
 11 12  1  0  0  0  0
 11 13  1  0  0  0  0
 11 14  1  0  0  0  0
  9 10  1  0  0  0  0
  9 11  1  0  0  0  0
  9 22  1  0  0  0  0
  7  8  1  0  0  0  0
  7  9  1  0  0  0  0
 26 27  1  0  0  0  0
 26 28  1  0  0  0  0
 26 29  1  0  0  0  0
 24 25  1  0  0  0  0
 24 26  1  0  0  0  0
M  END
$$$$
default_name
  -OEChem-02102213163D

 29 28  0     1  0  0  0  0  0999 V2000
   -3.5781   -3.7296    1.2702 H   0  0  0  0  0  0  0  0  0  0  0  0
   -3.5311   -2.7616    0.7732 C   0  0  0  0  0  0  0  0  0  0  0  0
   -4.2371   -2.0766    1.2382 H   0  0  0  0  0  0  0  0  0  0  0  0
   -3.7681   -2.8816   -0.2818 H   0  0  0  0  0  0  0  0  0  0  0  0
   -2.1321   -2.2086    0.9112 C   0  0  0  0  0  0  0  0  0  0  0  0
   -1.2751   -2.8426    1.5112 O   0  0  0  0  0  0  0  0  0  0  0  0
   -1.9041   -1.0186    0.3602 N   0  0  0  0  0  0  0  0  0  0  0  0
   -2.6671   -0.5416   -0.0988 H   0  0  0  0  0  0  0  0  0  0  0  0
   -0.6131   -0.3236    0.3832 C   0  0  1  0  0  0  0  0  0  0  0  0
    0.1346   -0.9625   -0.0894 H   0  0  0  0  0  0  0  0  0  0  0  0
   -0.7253    0.9751   -0.4365 C   0  0  0  0  0  0  0  0  0  0  0  0
   -1.7822    1.2006   -0.5939 H   0  0  0  0  0  0  0  0  0  0  0  0
   -0.2819    1.7964    0.1282 H   0  0  0  0  0  0  0  0  0  0  0  0
   -0.0404    0.8961   -1.8057 C   0  0  0  0  0  0  0  0  0  0  0  0
    0.1539   -0.1482   -2.0485 H   0  0  0  0  0  0  0  0  0  0  0  0
   -0.7119    1.3118   -2.5578 H   0  0  0  0  0  0  0  0  0  0  0  0
    1.5310    1.7929   -1.8841 S   0  0  0  0  0  0  0  0  0  0  0  0
    0.9220    3.4952   -1.7698 C   0  0  0  0  0  0  0  0  0  0  0  0
    0.3857    3.6316   -0.8303 H   0  0  0  0  0  0  0  0  0  0  0  0
    1.7663    4.1842   -1.8045 H   0  0  0  0  0  0  0  0  0  0  0  0
    0.2542    3.7039   -2.6061 H   0  0  0  0  0  0  0  0  0  0  0  0
   -0.1711   -0.0594    1.8296 C   0  0  0  0  0  0  0  0  0  0  0  0
    0.9865   -0.2908    2.1726 O   0  0  0  0  0  0  0  0  0  0  0  0
   -1.0921    0.4156    2.6780 N   0  0  0  0  0  0  0  0  0  0  0  0
   -2.0168    0.5953    2.3206 H   0  0  0  0  0  0  0  0  0  0  0  0
   -0.8319    0.7034    4.0877 C   0  0  0  0  0  0  0  0  0  0  0  0
   -0.0192    1.4288    4.1710 H   0  0  0  0  0  0  0  0  0  0  0  0
   -1.7255    1.1088    4.5641 H   0  0  0  0  0  0  0  0  0  0  0  0
   -0.5319   -0.2118    4.6011 H   0  0  0  0  0  0  0  0  0  0  0  0
  5  6  2  0  0  0  0
  5  7  1  0  0  0  0
  2  3  1  0  0  0  0
  2  4  1  0  0  0  0
  2  5  1  0  0  0  0
  1  2  1  0  0  0  0
 22 23  2  0  0  0  0
 22 24  1  0  0  0  0
 18 19  1  0  0  0  0
 18 20  1  0  0  0  0
 18 21  1  0  0  0  0
 17 18  1  0  0  0  0
 14 15  1  0  0  0  0
 14 16  1  0  0  0  0
 14 17  1  0  0  0  0
 11 12  1  0  0  0  0
 11 13  1  0  0  0  0
 11 14  1  0  0  0  0
  9 10  1  0  0  0  0
  9 11  1  0  0  0  0
  9 22  1  0  0  0  0
  7  8  1  0  0  0  0
  7  9  1  0  0  0  0
 26 27  1  0  0  0  0
 26 28  1  0  0  0  0
 26 29  1  0  0  0  0
 24 25  1  0  0  0  0
 24 26  1  0  0  0  0
M  END
$$$$
default_name
  -OEChem-02102213163D

 29 28  0     1  0  0  0  0  0999 V2000
   -3.5781   -3.7296    1.2702 H   0  0  0  0  0  0  0  0  0  0  0  0
   -3.5311   -2.7616    0.7732 C   0  0  0  0  0  0  0  0  0  0  0  0
   -4.2371   -2.0766    1.2382 H   0  0  0  0  0  0  0  0  0  0  0  0
   -3.7681   -2.8816   -0.2818 H   0  0  0  0  0  0  0  0  0  0  0  0
   -2.1321   -2.2086    0.9112 C   0  0  0  0  0  0  0  0  0  0  0  0
   -1.2751   -2.8426    1.5112 O   0  0  0  0  0  0  0  0  0  0  0  0
   -1.9041   -1.0186    0.3602 N   0  0  0  0  0  0  0  0  0  0  0  0
   -2.6671   -0.5416   -0.0988 H   0  0  0  0  0  0  0  0  0  0  0  0
   -0.6131   -0.3236    0.3832 C   0  0  1  0  0  0  0  0  0  0  0  0
    0.1346   -0.9625   -0.0894 H   0  0  0  0  0  0  0  0  0  0  0  0
   -0.7253    0.9751   -0.4365 C   0  0  0  0  0  0  0  0  0  0  0  0
   -1.7822    1.2006   -0.5939 H   0  0  0  0  0  0  0  0  0  0  0  0
   -0.2819    1.7964    0.1282 H   0  0  0  0  0  0  0  0  0  0  0  0
   -0.0404    0.8961   -1.8057 C   0  0  0  0  0  0  0  0  0  0  0  0
   -0.0854   -0.1301   -2.1692 H   0  0  0  0  0  0  0  0  0  0  0  0
   -0.5776    1.5392   -2.5037 H   0  0  0  0  0  0  0  0  0  0  0  0
    1.6969    1.4069   -1.7789 S   0  0  0  0  0  0  0  0  0  0  0  0
    1.4936    3.1796   -1.4657 C   0  0  0  0  0  0  0  0  0  0  0  0
    0.9780    3.3285   -0.5165 H   0  0  0  0  0  0  0  0  0  0  0  0
    2.4746    3.6533   -1.4196 H   0  0  0  0  0  0  0  0  0  0  0  0
    0.9146    3.6315   -2.2716 H   0  0  0  0  0  0  0  0  0  0  0  0
   -0.1711   -0.0594    1.8296 C   0  0  0  0  0  0  0  0  0  0  0  0
    0.9865   -0.2908    2.1726 O   0  0  0  0  0  0  0  0  0  0  0  0
   -1.0921    0.4156    2.6780 N   0  0  0  0  0  0  0  0  0  0  0  0
   -2.0168    0.5953    2.3206 H   0  0  0  0  0  0  0  0  0  0  0  0
   -0.8319    0.7034    4.0877 C   0  0  0  0  0  0  0  0  0  0  0  0
   -0.0192    1.4288    4.1710 H   0  0  0  0  0  0  0  0  0  0  0  0
   -1.7255    1.1088    4.5641 H   0  0  0  0  0  0  0  0  0  0  0  0
   -0.5319   -0.2118    4.6011 H   0  0  0  0  0  0  0  0  0  0  0  0
  5  6  2  0  0  0  0
  5  7  1  0  0  0  0
  2  3  1  0  0  0  0
  2  4  1  0  0  0  0
  2  5  1  0  0  0  0
  1  2  1  0  0  0  0
 22 23  2  0  0  0  0
 22 24  1  0  0  0  0
 18 19  1  0  0  0  0
 18 20  1  0  0  0  0
 18 21  1  0  0  0  0
 17 18  1  0  0  0  0
 14 15  1  0  0  0  0
 14 16  1  0  0  0  0
 14 17  1  0  0  0  0
 11 12  1  0  0  0  0
 11 13  1  0  0  0  0
 11 14  1  0  0  0  0
  9 10  1  0  0  0  0
  9 11  1  0  0  0  0
  9 22  1  0  0  0  0
  7  8  1  0  0  0  0
  7  9  1  0  0  0  0
 26 27  1  0  0  0  0
 26 28  1  0  0  0  0
 26 29  1  0  0  0  0
 24 25  1  0  0  0  0
 24 26  1  0  0  0  0
M  END
$$$$
default_name
  -OEChem-02102213163D

 29 28  0     1  0  0  0  0  0999 V2000
   -3.5781   -3.7296    1.2702 H   0  0  0  0  0  0  0  0  0  0  0  0
   -3.5311   -2.7616    0.7732 C   0  0  0  0  0  0  0  0  0  0  0  0
   -4.2371   -2.0766    1.2382 H   0  0  0  0  0  0  0  0  0  0  0  0
   -3.7681   -2.8816   -0.2818 H   0  0  0  0  0  0  0  0  0  0  0  0
   -2.1321   -2.2086    0.9112 C   0  0  0  0  0  0  0  0  0  0  0  0
   -1.2751   -2.8426    1.5112 O   0  0  0  0  0  0  0  0  0  0  0  0
   -1.9041   -1.0186    0.3602 N   0  0  0  0  0  0  0  0  0  0  0  0
   -2.6671   -0.5416   -0.0988 H   0  0  0  0  0  0  0  0  0  0  0  0
   -0.6131   -0.3236    0.3832 C   0  0  1  0  0  0  0  0  0  0  0  0
    0.1346   -0.9625   -0.0894 H   0  0  0  0  0  0  0  0  0  0  0  0
   -0.7253    0.9751   -0.4365 C   0  0  0  0  0  0  0  0  0  0  0  0
   -1.7822    1.2006   -0.5939 H   0  0  0  0  0  0  0  0  0  0  0  0
   -0.2819    1.7964    0.1282 H   0  0  0  0  0  0  0  0  0  0  0  0
   -0.0404    0.8961   -1.8057 C   0  0  0  0  0  0  0  0  0  0  0  0
   -0.3108   -0.0433   -2.2870 H   0  0  0  0  0  0  0  0  0  0  0  0
   -0.3960    1.7216   -2.4234 H   0  0  0  0  0  0  0  0  0  0  0  0
    1.7664    0.9835   -1.7197 S   0  0  0  0  0  0  0  0  0  0  0  0
    1.9687    2.7074   -1.2008 C   0  0  0  0  0  0  0  0  0  0  0  0
    1.4759    2.8626   -0.2405 H   0  0  0  0  0  0  0  0  0  0  0  0
    3.0308    2.9322   -1.0997 H   0  0  0  0  0  0  0  0  0  0  0  0
    1.5313    3.3702   -1.9480 H   0  0  0  0  0  0  0  0  0  0  0  0
   -0.1711   -0.0594    1.8296 C   0  0  0  0  0  0  0  0  0  0  0  0
    0.9865   -0.2908    2.1726 O   0  0  0  0  0  0  0  0  0  0  0  0
   -1.0921    0.4156    2.6780 N   0  0  0  0  0  0  0  0  0  0  0  0
   -2.0168    0.5953    2.3206 H   0  0  0  0  0  0  0  0  0  0  0  0
   -0.8319    0.7034    4.0877 C   0  0  0  0  0  0  0  0  0  0  0  0
   -0.0192    1.4288    4.1710 H   0  0  0  0  0  0  0  0  0  0  0  0
   -1.7255    1.1088    4.5641 H   0  0  0  0  0  0  0  0  0  0  0  0
   -0.5319   -0.2118    4.6011 H   0  0  0  0  0  0  0  0  0  0  0  0
  5  6  2  0  0  0  0
  5  7  1  0  0  0  0
  2  3  1  0  0  0  0
  2  4  1  0  0  0  0
  2  5  1  0  0  0  0
  1  2  1  0  0  0  0
 22 23  2  0  0  0  0
 22 24  1  0  0  0  0
 18 19  1  0  0  0  0
 18 20  1  0  0  0  0
 18 21  1  0  0  0  0
 17 18  1  0  0  0  0
 14 15  1  0  0  0  0
 14 16  1  0  0  0  0
 14 17  1  0  0  0  0
 11 12  1  0  0  0  0
 11 13  1  0  0  0  0
 11 14  1  0  0  0  0
  9 10  1  0  0  0  0
  9 11  1  0  0  0  0
  9 22  1  0  0  0  0
  7  8  1  0  0  0  0
  7  9  1  0  0  0  0
 26 27  1  0  0  0  0
 26 28  1  0  0  0  0
 26 29  1  0  0  0  0
 24 25  1  0  0  0  0
 24 26  1  0  0  0  0
M  END
$$$$
default_name
  -OEChem-02102213163D

 29 28  0     1  0  0  0  0  0999 V2000
   -3.5781   -3.7296    1.2702 H   0  0  0  0  0  0  0  0  0  0  0  0
   -3.5311   -2.7616    0.7732 C   0  0  0  0  0  0  0  0  0  0  0  0
   -4.2371   -2.0766    1.2382 H   0  0  0  0  0  0  0  0  0  0  0  0
   -3.7681   -2.8816   -0.2818 H   0  0  0  0  0  0  0  0  0  0  0  0
   -2.1321   -2.2086    0.9112 C   0  0  0  0  0  0  0  0  0  0  0  0
   -1.2751   -2.8426    1.5112 O   0  0  0  0  0  0  0  0  0  0  0  0
   -1.9041   -1.0186    0.3602 N   0  0  0  0  0  0  0  0  0  0  0  0
   -2.6671   -0.5416   -0.0988 H   0  0  0  0  0  0  0  0  0  0  0  0
   -0.6131   -0.3236    0.3832 C   0  0  1  0  0  0  0  0  0  0  0  0
    0.1346   -0.9625   -0.0894 H   0  0  0  0  0  0  0  0  0  0  0  0
   -0.7253    0.9751   -0.4365 C   0  0  0  0  0  0  0  0  0  0  0  0
   -1.7822    1.2006   -0.5939 H   0  0  0  0  0  0  0  0  0  0  0  0
   -0.2819    1.7964    0.1282 H   0  0  0  0  0  0  0  0  0  0  0  0
   -0.0404    0.8961   -1.8057 C   0  0  0  0  0  0  0  0  0  0  0  0
   -0.5069    0.1062   -2.3937 H   0  0  0  0  0  0  0  0  0  0  0  0
   -0.1794    1.8465   -2.3223 H   0  0  0  0  0  0  0  0  0  0  0  0
    1.7350    0.5517   -1.7105 S   0  0  0  0  0  0  0  0  0  0  0  0
    2.3149    2.1108   -0.9932 C   0  0  0  0  0  0  0  0  0  0  0  0
    1.8455    2.2655   -0.0213 H   0  0  0  0  0  0  0  0  0  0  0  0
    3.3971    2.0701   -0.8668 H   0  0  0  0  0  0  0  0  0  0  0  0
    2.0623    2.9378   -1.6575 H   0  0  0  0  0  0  0  0  0  0  0  0
   -0.1711   -0.0594    1.8296 C   0  0  0  0  0  0  0  0  0  0  0  0
    0.9865   -0.2908    2.1726 O   0  0  0  0  0  0  0  0  0  0  0  0
   -1.0921    0.4156    2.6780 N   0  0  0  0  0  0  0  0  0  0  0  0
   -2.0168    0.5953    2.3206 H   0  0  0  0  0  0  0  0  0  0  0  0
   -0.8319    0.7034    4.0877 C   0  0  0  0  0  0  0  0  0  0  0  0
   -0.0192    1.4288    4.1710 H   0  0  0  0  0  0  0  0  0  0  0  0
   -1.7255    1.1088    4.5641 H   0  0  0  0  0  0  0  0  0  0  0  0
   -0.5319   -0.2118    4.6011 H   0  0  0  0  0  0  0  0  0  0  0  0
  5  6  2  0  0  0  0
  5  7  1  0  0  0  0
  2  3  1  0  0  0  0
  2  4  1  0  0  0  0
  2  5  1  0  0  0  0
  1  2  1  0  0  0  0
 22 23  2  0  0  0  0
 22 24  1  0  0  0  0
 18 19  1  0  0  0  0
 18 20  1  0  0  0  0
 18 21  1  0  0  0  0
 17 18  1  0  0  0  0
 14 15  1  0  0  0  0
 14 16  1  0  0  0  0
 14 17  1  0  0  0  0
 11 12  1  0  0  0  0
 11 13  1  0  0  0  0
 11 14  1  0  0  0  0
  9 10  1  0  0  0  0
  9 11  1  0  0  0  0
  9 22  1  0  0  0  0
  7  8  1  0  0  0  0
  7  9  1  0  0  0  0
 26 27  1  0  0  0  0
 26 28  1  0  0  0  0
 26 29  1  0  0  0  0
 24 25  1  0  0  0  0
 24 26  1  0  0  0  0
M  END
$$$$
default_name
  -OEChem-02102213163D

 29 28  0     1  0  0  0  0  0999 V2000
   -3.5781   -3.7296    1.2702 H   0  0  0  0  0  0  0  0  0  0  0  0
   -3.5311   -2.7616    0.7732 C   0  0  0  0  0  0  0  0  0  0  0  0
   -4.2371   -2.0766    1.2382 H   0  0  0  0  0  0  0  0  0  0  0  0
   -3.7681   -2.8816   -0.2818 H   0  0  0  0  0  0  0  0  0  0  0  0
   -2.1321   -2.2086    0.9112 C   0  0  0  0  0  0  0  0  0  0  0  0
   -1.2751   -2.8426    1.5112 O   0  0  0  0  0  0  0  0  0  0  0  0
   -1.9041   -1.0186    0.3602 N   0  0  0  0  0  0  0  0  0  0  0  0
   -2.6671   -0.5416   -0.0988 H   0  0  0  0  0  0  0  0  0  0  0  0
   -0.6131   -0.3236    0.3832 C   0  0  1  0  0  0  0  0  0  0  0  0
    0.1346   -0.9625   -0.0894 H   0  0  0  0  0  0  0  0  0  0  0  0
   -0.7253    0.9751   -0.4365 C   0  0  0  0  0  0  0  0  0  0  0  0
   -1.7822    1.2006   -0.5939 H   0  0  0  0  0  0  0  0  0  0  0  0
   -0.2819    1.7964    0.1282 H   0  0  0  0  0  0  0  0  0  0  0  0
   -0.0404    0.8961   -1.8057 C   0  0  0  0  0  0  0  0  0  0  0  0
   -0.6603    0.3083   -2.4821 H   0  0  0  0  0  0  0  0  0  0  0  0
    0.0572    1.9053   -2.2073 H   0  0  0  0  0  0  0  0  0  0  0  0
    1.6047    0.1407   -1.7519 S   0  0  0  0  0  0  0  0  0  0  0  0
    2.5086    1.4306   -0.8570 C   0  0  0  0  0  0  0  0  0  0  0  0
    2.0615    1.5780    0.1265 H   0  0  0  0  0  0  0  0  0  0  0  0
    3.5485    1.1258   -0.7365 H   0  0  0  0  0  0  0  0  0  0  0  0
    2.4713    2.3637   -1.4197 H   0  0  0  0  0  0  0  0  0  0  0  0
   -0.1711   -0.0594    1.8296 C   0  0  0  0  0  0  0  0  0  0  0  0
    0.9865   -0.2908    2.1726 O   0  0  0  0  0  0  0  0  0  0  0  0
   -1.0921    0.4156    2.6780 N   0  0  0  0  0  0  0  0  0  0  0  0
   -2.0168    0.5953    2.3206 H   0  0  0  0  0  0  0  0  0  0  0  0
   -0.8319    0.7034    4.0877 C   0  0  0  0  0  0  0  0  0  0  0  0
   -0.0192    1.4288    4.1710 H   0  0  0  0  0  0  0  0  0  0  0  0
   -1.7255    1.1088    4.5641 H   0  0  0  0  0  0  0  0  0  0  0  0
   -0.5319   -0.2118    4.6011 H   0  0  0  0  0  0  0  0  0  0  0  0
  5  6  2  0  0  0  0
  5  7  1  0  0  0  0
  2  3  1  0  0  0  0
  2  4  1  0  0  0  0
  2  5  1  0  0  0  0
  1  2  1  0  0  0  0
 22 23  2  0  0  0  0
 22 24  1  0  0  0  0
 18 19  1  0  0  0  0
 18 20  1  0  0  0  0
 18 21  1  0  0  0  0
 17 18  1  0  0  0  0
 14 15  1  0  0  0  0
 14 16  1  0  0  0  0
 14 17  1  0  0  0  0
 11 12  1  0  0  0  0
 11 13  1  0  0  0  0
 11 14  1  0  0  0  0
  9 10  1  0  0  0  0
  9 11  1  0  0  0  0
  9 22  1  0  0  0  0
  7  8  1  0  0  0  0
  7  9  1  0  0  0  0
 26 27  1  0  0  0  0
 26 28  1  0  0  0  0
 26 29  1  0  0  0  0
 24 25  1  0  0  0  0
 24 26  1  0  0  0  0
M  END
$$$$
default_name
  -OEChem-02102213163D

 29 28  0     1  0  0  0  0  0999 V2000
   -3.5781   -3.7296    1.2702 H   0  0  0  0  0  0  0  0  0  0  0  0
   -3.5311   -2.7616    0.7732 C   0  0  0  0  0  0  0  0  0  0  0  0
   -4.2371   -2.0766    1.2382 H   0  0  0  0  0  0  0  0  0  0  0  0
   -3.7681   -2.8816   -0.2818 H   0  0  0  0  0  0  0  0  0  0  0  0
   -2.1321   -2.2086    0.9112 C   0  0  0  0  0  0  0  0  0  0  0  0
   -1.2751   -2.8426    1.5112 O   0  0  0  0  0  0  0  0  0  0  0  0
   -1.9041   -1.0186    0.3602 N   0  0  0  0  0  0  0  0  0  0  0  0
   -2.6671   -0.5416   -0.0988 H   0  0  0  0  0  0  0  0  0  0  0  0
   -0.6131   -0.3236    0.3832 C   0  0  1  0  0  0  0  0  0  0  0  0
    0.1346   -0.9625   -0.0894 H   0  0  0  0  0  0  0  0  0  0  0  0
   -0.7253    0.9751   -0.4365 C   0  0  0  0  0  0  0  0  0  0  0  0
   -1.7822    1.2006   -0.5939 H   0  0  0  0  0  0  0  0  0  0  0  0
   -0.2819    1.7964    0.1282 H   0  0  0  0  0  0  0  0  0  0  0  0
   -0.0404    0.8961   -1.8057 C   0  0  0  0  0  0  0  0  0  0  0  0
   -0.7606    0.5493   -2.5461 H   0  0  0  0  0  0  0  0  0  0  0  0
    0.2979    1.8942   -2.0863 H   0  0  0  0  0  0  0  0  0  0  0  0
    1.3843   -0.2213   -1.8413 S   0  0  0  0  0  0  0  0  0  0  0  0
    2.5367    0.7129   -0.8016 C   0  0  0  0  0  0  0  0  0  0  0  0
    2.1092    0.8469    0.1925 H   0  0  0  0  0  0  0  0  0  0  0  0
    3.4748    0.1635   -0.7179 H   0  0  0  0  0  0  0  0  0  0  0  0
    2.7305    1.6873   -1.2510 H   0  0  0  0  0  0  0  0  0  0  0  0
   -0.1711   -0.0594    1.8296 C   0  0  0  0  0  0  0  0  0  0  0  0
    0.9865   -0.2908    2.1726 O   0  0  0  0  0  0  0  0  0  0  0  0
   -1.0921    0.4156    2.6780 N   0  0  0  0  0  0  0  0  0  0  0  0
   -2.0168    0.5953    2.3206 H   0  0  0  0  0  0  0  0  0  0  0  0
   -0.8319    0.7034    4.0877 C   0  0  0  0  0  0  0  0  0  0  0  0
   -0.0192    1.4288    4.1710 H   0  0  0  0  0  0  0  0  0  0  0  0
   -1.7255    1.1088    4.5641 H   0  0  0  0  0  0  0  0  0  0  0  0
   -0.5319   -0.2118    4.6011 H   0  0  0  0  0  0  0  0  0  0  0  0
  5  6  2  0  0  0  0
  5  7  1  0  0  0  0
  2  3  1  0  0  0  0
  2  4  1  0  0  0  0
  2  5  1  0  0  0  0
  1  2  1  0  0  0  0
 22 23  2  0  0  0  0
 22 24  1  0  0  0  0
 18 19  1  0  0  0  0
 18 20  1  0  0  0  0
 18 21  1  0  0  0  0
 17 18  1  0  0  0  0
 14 15  1  0  0  0  0
 14 16  1  0  0  0  0
 14 17  1  0  0  0  0
 11 12  1  0  0  0  0
 11 13  1  0  0  0  0
 11 14  1  0  0  0  0
  9 10  1  0  0  0  0
  9 11  1  0  0  0  0
  9 22  1  0  0  0  0
  7  8  1  0  0  0  0
  7  9  1  0  0  0  0
 26 27  1  0  0  0  0
 26 28  1  0  0  0  0
 26 29  1  0  0  0  0
 24 25  1  0  0  0  0
 24 26  1  0  0  0  0
M  END
$$$$
default_name
  -OEChem-02102213163D

 29 28  0     1  0  0  0  0  0999 V2000
   -3.5781   -3.7296    1.2702 H   0  0  0  0  0  0  0  0  0  0  0  0
   -3.5311   -2.7616    0.7732 C   0  0  0  0  0  0  0  0  0  0  0  0
   -4.2371   -2.0766    1.2382 H   0  0  0  0  0  0  0  0  0  0  0  0
   -3.7681   -2.8816   -0.2818 H   0  0  0  0  0  0  0  0  0  0  0  0
   -2.1321   -2.2086    0.9112 C   0  0  0  0  0  0  0  0  0  0  0  0
   -1.2751   -2.8426    1.5112 O   0  0  0  0  0  0  0  0  0  0  0  0
   -1.9041   -1.0186    0.3602 N   0  0  0  0  0  0  0  0  0  0  0  0
   -2.6671   -0.5416   -0.0988 H   0  0  0  0  0  0  0  0  0  0  0  0
   -0.6131   -0.3236    0.3832 C   0  0  1  0  0  0  0  0  0  0  0  0
    0.1346   -0.9625   -0.0894 H   0  0  0  0  0  0  0  0  0  0  0  0
   -0.7253    0.9751   -0.4365 C   0  0  0  0  0  0  0  0  0  0  0  0
   -1.7822    1.2006   -0.5939 H   0  0  0  0  0  0  0  0  0  0  0  0
   -0.2819    1.7964    0.1282 H   0  0  0  0  0  0  0  0  0  0  0  0
   -0.0404    0.8961   -1.8057 C   0  0  0  0  0  0  0  0  0  0  0  0
   -0.8009    0.8125   -2.5815 H   0  0  0  0  0  0  0  0  0  0  0  0
    0.5262    1.8138   -1.9674 H   0  0  0  0  0  0  0  0  0  0  0  0
    1.0890   -0.5098   -1.9724 S   0  0  0  0  0  0  0  0  0  0  0  0
    2.3972    0.0069   -0.8307 C   0  0  0  0  0  0  0  0  0  0  0  0
    1.9854    0.1220    0.1724 H   0  0  0  0  0  0  0  0  0  0  0  0
    3.1809   -0.7510   -0.8122 H   0  0  0  0  0  0  0  0  0  0  0  0
    2.8223    0.9544   -1.1629 H   0  0  0  0  0  0  0  0  0  0  0  0
   -0.1711   -0.0594    1.8296 C   0  0  0  0  0  0  0  0  0  0  0  0
    0.9865   -0.2908    2.1726 O   0  0  0  0  0  0  0  0  0  0  0  0
   -1.0921    0.4156    2.6780 N   0  0  0  0  0  0  0  0  0  0  0  0
   -2.0168    0.5953    2.3206 H   0  0  0  0  0  0  0  0  0  0  0  0
   -0.8319    0.7034    4.0877 C   0  0  0  0  0  0  0  0  0  0  0  0
   -0.0192    1.4288    4.1710 H   0  0  0  0  0  0  0  0  0  0  0  0
   -1.7255    1.1088    4.5641 H   0  0  0  0  0  0  0  0  0  0  0  0
   -0.5319   -0.2118    4.6011 H   0  0  0  0  0  0  0  0  0  0  0  0
  5  6  2  0  0  0  0
  5  7  1  0  0  0  0
  2  3  1  0  0  0  0
  2  4  1  0  0  0  0
  2  5  1  0  0  0  0
  1  2  1  0  0  0  0
 22 23  2  0  0  0  0
 22 24  1  0  0  0  0
 18 19  1  0  0  0  0
 18 20  1  0  0  0  0
 18 21  1  0  0  0  0
 17 18  1  0  0  0  0
 14 15  1  0  0  0  0
 14 16  1  0  0  0  0
 14 17  1  0  0  0  0
 11 12  1  0  0  0  0
 11 13  1  0  0  0  0
 11 14  1  0  0  0  0
  9 10  1  0  0  0  0
  9 11  1  0  0  0  0
  9 22  1  0  0  0  0
  7  8  1  0  0  0  0
  7  9  1  0  0  0  0
 26 27  1  0  0  0  0
 26 28  1  0  0  0  0
 26 29  1  0  0  0  0
 24 25  1  0  0  0  0
 24 26  1  0  0  0  0
M  END
$$$$
default_name
  -OEChem-02102213163D

 29 28  0     1  0  0  0  0  0999 V2000
   -3.5781   -3.7296    1.2702 H   0  0  0  0  0  0  0  0  0  0  0  0
   -3.5311   -2.7616    0.7732 C   0  0  0  0  0  0  0  0  0  0  0  0
   -4.2371   -2.0766    1.2382 H   0  0  0  0  0  0  0  0  0  0  0  0
   -3.7681   -2.8816   -0.2818 H   0  0  0  0  0  0  0  0  0  0  0  0
   -2.1321   -2.2086    0.9112 C   0  0  0  0  0  0  0  0  0  0  0  0
   -1.2751   -2.8426    1.5112 O   0  0  0  0  0  0  0  0  0  0  0  0
   -1.9041   -1.0186    0.3602 N   0  0  0  0  0  0  0  0  0  0  0  0
   -2.6671   -0.5416   -0.0988 H   0  0  0  0  0  0  0  0  0  0  0  0
   -0.6131   -0.3236    0.3832 C   0  0  1  0  0  0  0  0  0  0  0  0
    0.1346   -0.9625   -0.0894 H   0  0  0  0  0  0  0  0  0  0  0  0
   -0.7253    0.9751   -0.4365 C   0  0  0  0  0  0  0  0  0  0  0  0
   -1.7822    1.2006   -0.5939 H   0  0  0  0  0  0  0  0  0  0  0  0
   -0.2819    1.7964    0.1282 H   0  0  0  0  0  0  0  0  0  0  0  0
   -0.0404    0.8961   -1.8057 C   0  0  0  0  0  0  0  0  0  0  0  0
   -0.7785    1.0803   -2.5857 H   0  0  0  0  0  0  0  0  0  0  0  0
    0.7265    1.6697   -1.8589 H   0  0  0  0  0  0  0  0  0  0  0  0
    0.7388   -0.7050   -2.1363 S   0  0  0  0  0  0  0  0  0  0  0  0
    2.0996   -0.6395   -0.9422 C   0  0  0  0  0  0  0  0  0  0  0  0
    1.6986   -0.5472    0.0675 H   0  0  0  0  0  0  0  0  0  0  0  0
    2.6868   -1.5555   -1.0129 H   0  0  0  0  0  0  0  0  0  0  0  0
    2.7403    0.2151   -1.1612 H   0  0  0  0  0  0  0  0  0  0  0  0
   -0.1711   -0.0594    1.8296 C   0  0  0  0  0  0  0  0  0  0  0  0
    0.9865   -0.2908    2.1726 O   0  0  0  0  0  0  0  0  0  0  0  0
   -1.0921    0.4156    2.6780 N   0  0  0  0  0  0  0  0  0  0  0  0
   -2.0168    0.5953    2.3206 H   0  0  0  0  0  0  0  0  0  0  0  0
   -0.8319    0.7034    4.0877 C   0  0  0  0  0  0  0  0  0  0  0  0
   -0.0192    1.4288    4.1710 H   0  0  0  0  0  0  0  0  0  0  0  0
   -1.7255    1.1088    4.5641 H   0  0  0  0  0  0  0  0  0  0  0  0
   -0.5319   -0.2118    4.6011 H   0  0  0  0  0  0  0  0  0  0  0  0
  5  6  2  0  0  0  0
  5  7  1  0  0  0  0
  2  3  1  0  0  0  0
  2  4  1  0  0  0  0
  2  5  1  0  0  0  0
  1  2  1  0  0  0  0
 22 23  2  0  0  0  0
 22 24  1  0  0  0  0
 18 19  1  0  0  0  0
 18 20  1  0  0  0  0
 18 21  1  0  0  0  0
 17 18  1  0  0  0  0
 14 15  1  0  0  0  0
 14 16  1  0  0  0  0
 14 17  1  0  0  0  0
 11 12  1  0  0  0  0
 11 13  1  0  0  0  0
 11 14  1  0  0  0  0
  9 10  1  0  0  0  0
  9 11  1  0  0  0  0
  9 22  1  0  0  0  0
  7  8  1  0  0  0  0
  7  9  1  0  0  0  0
 26 27  1  0  0  0  0
 26 28  1  0  0  0  0
 26 29  1  0  0  0  0
 24 25  1  0  0  0  0
 24 26  1  0  0  0  0
M  END
$$$$
default_name
  -OEChem-02102213163D

 29 28  0     1  0  0  0  0  0999 V2000
   -3.5781   -3.7296    1.2702 H   0  0  0  0  0  0  0  0  0  0  0  0
   -3.5311   -2.7616    0.7732 C   0  0  0  0  0  0  0  0  0  0  0  0
   -4.2371   -2.0766    1.2382 H   0  0  0  0  0  0  0  0  0  0  0  0
   -3.7681   -2.8816   -0.2818 H   0  0  0  0  0  0  0  0  0  0  0  0
   -2.1321   -2.2086    0.9112 C   0  0  0  0  0  0  0  0  0  0  0  0
   -1.2751   -2.8426    1.5112 O   0  0  0  0  0  0  0  0  0  0  0  0
   -1.9041   -1.0186    0.3602 N   0  0  0  0  0  0  0  0  0  0  0  0
   -2.6671   -0.5416   -0.0988 H   0  0  0  0  0  0  0  0  0  0  0  0
   -0.6131   -0.3236    0.3832 C   0  0  1  0  0  0  0  0  0  0  0  0
    0.1346   -0.9625   -0.0894 H   0  0  0  0  0  0  0  0  0  0  0  0
   -0.7253    0.9751   -0.4365 C   0  0  0  0  0  0  0  0  0  0  0  0
   -1.7822    1.2006   -0.5939 H   0  0  0  0  0  0  0  0  0  0  0  0
   -0.2819    1.7964    0.1282 H   0  0  0  0  0  0  0  0  0  0  0  0
   -0.0404    0.8961   -1.8057 C   0  0  0  0  0  0  0  0  0  0  0  0
   -0.6949    1.3342   -2.5586 H   0  0  0  0  0  0  0  0  0  0  0  0
    0.8853    1.4716   -1.7681 H   0  0  0  0  0  0  0  0  0  0  0  0
    0.3576   -0.7936   -2.3219 S   0  0  0  0  0  0  0  0  0  0  0  0
    1.6642   -1.1822   -1.1287 C   0  0  0  0  0  0  0  0  0  0  0  0
    1.2682   -1.1152   -0.1150 H   0  0  0  0  0  0  0  0  0  0  0  0
    2.0263   -2.1952   -1.3064 H   0  0  0  0  0  0  0  0  0  0  0  0
    2.4903   -0.4803   -1.2462 H   0  0  0  0  0  0  0  0  0  0  0  0
   -0.1711   -0.0594    1.8296 C   0  0  0  0  0  0  0  0  0  0  0  0
    0.9865   -0.2908    2.1726 O   0  0  0  0  0  0  0  0  0  0  0  0
   -1.0921    0.4156    2.6780 N   0  0  0  0  0  0  0  0  0  0  0  0
   -2.0168    0.5953    2.3206 H   0  0  0  0  0  0  0  0  0  0  0  0
   -0.8319    0.7034    4.0877 C   0  0  0  0  0  0  0  0  0  0  0  0
   -0.0192    1.4288    4.1710 H   0  0  0  0  0  0  0  0  0  0  0  0
   -1.7255    1.1088    4.5641 H   0  0  0  0  0  0  0  0  0  0  0  0
   -0.5319   -0.2118    4.6011 H   0  0  0  0  0  0  0  0  0  0  0  0
  5  6  2  0  0  0  0
  5  7  1  0  0  0  0
  2  3  1  0  0  0  0
  2  4  1  0  0  0  0
  2  5  1  0  0  0  0
  1  2  1  0  0  0  0
 22 23  2  0  0  0  0
 22 24  1  0  0  0  0
 18 19  1  0  0  0  0
 18 20  1  0  0  0  0
 18 21  1  0  0  0  0
 17 18  1  0  0  0  0
 14 15  1  0  0  0  0
 14 16  1  0  0  0  0
 14 17  1  0  0  0  0
 11 12  1  0  0  0  0
 11 13  1  0  0  0  0
 11 14  1  0  0  0  0
  9 10  1  0  0  0  0
  9 11  1  0  0  0  0
  9 22  1  0  0  0  0
  7  8  1  0  0  0  0
  7  9  1  0  0  0  0
 26 27  1  0  0  0  0
 26 28  1  0  0  0  0
 26 29  1  0  0  0  0
 24 25  1  0  0  0  0
 24 26  1  0  0  0  0
M  END
$$$$
default_name
  -OEChem-02102213163D

 29 28  0     1  0  0  0  0  0999 V2000
   -3.5781   -3.7296    1.2702 H   0  0  0  0  0  0  0  0  0  0  0  0
   -3.5311   -2.7616    0.7732 C   0  0  0  0  0  0  0  0  0  0  0  0
   -4.2371   -2.0766    1.2382 H   0  0  0  0  0  0  0  0  0  0  0  0
   -3.7681   -2.8816   -0.2818 H   0  0  0  0  0  0  0  0  0  0  0  0
   -2.1321   -2.2086    0.9112 C   0  0  0  0  0  0  0  0  0  0  0  0
   -1.2751   -2.8426    1.5112 O   0  0  0  0  0  0  0  0  0  0  0  0
   -1.9041   -1.0186    0.3602 N   0  0  0  0  0  0  0  0  0  0  0  0
   -2.6671   -0.5416   -0.0988 H   0  0  0  0  0  0  0  0  0  0  0  0
   -0.6131   -0.3236    0.3832 C   0  0  1  0  0  0  0  0  0  0  0  0
    0.1346   -0.9625   -0.0894 H   0  0  0  0  0  0  0  0  0  0  0  0
   -0.7253    0.9751   -0.4365 C   0  0  0  0  0  0  0  0  0  0  0  0
   -1.7822    1.2006   -0.5939 H   0  0  0  0  0  0  0  0  0  0  0  0
   -0.2819    1.7964    0.1282 H   0  0  0  0  0  0  0  0  0  0  0  0
   -0.0404    0.8961   -1.8057 C   0  0  0  0  0  0  0  0  0  0  0  0
   -0.5558    1.5570   -2.5019 H   0  0  0  0  0  0  0  0  0  0  0  0
    0.9916    1.2330   -1.7011 H   0  0  0  0  0  0  0  0  0  0  0  0
   -0.0286   -0.7696   -2.5164 S   0  0  0  0  0  0  0  0  0  0  0  0
    1.1207   -1.5842   -1.3774 C   0  0  0  0  0  0  0  0  0  0  0  0
    0.7236   -1.5432   -0.3627 H   0  0  0  0  0  0  0  0  0  0  0  0
    1.2443   -2.6265   -1.6727 H   0  0  0  0  0  0  0  0  0  0  0  0
    2.0891   -1.0843   -1.4120 H   0  0  0  0  0  0  0  0  0  0  0  0
   -0.1711   -0.0594    1.8296 C   0  0  0  0  0  0  0  0  0  0  0  0
    0.9865   -0.2908    2.1726 O   0  0  0  0  0  0  0  0  0  0  0  0
   -1.0921    0.4156    2.6780 N   0  0  0  0  0  0  0  0  0  0  0  0
   -2.0168    0.5953    2.3206 H   0  0  0  0  0  0  0  0  0  0  0  0
   -0.8319    0.7034    4.0877 C   0  0  0  0  0  0  0  0  0  0  0  0
   -0.0192    1.4288    4.1710 H   0  0  0  0  0  0  0  0  0  0  0  0
   -1.7255    1.1088    4.5641 H   0  0  0  0  0  0  0  0  0  0  0  0
   -0.5319   -0.2118    4.6011 H   0  0  0  0  0  0  0  0  0  0  0  0
  5  6  2  0  0  0  0
  5  7  1  0  0  0  0
  2  3  1  0  0  0  0
  2  4  1  0  0  0  0
  2  5  1  0  0  0  0
  1  2  1  0  0  0  0
 22 23  2  0  0  0  0
 22 24  1  0  0  0  0
 18 19  1  0  0  0  0
 18 20  1  0  0  0  0
 18 21  1  0  0  0  0
 17 18  1  0  0  0  0
 14 15  1  0  0  0  0
 14 16  1  0  0  0  0
 14 17  1  0  0  0  0
 11 12  1  0  0  0  0
 11 13  1  0  0  0  0
 11 14  1  0  0  0  0
  9 10  1  0  0  0  0
  9 11  1  0  0  0  0
  9 22  1  0  0  0  0
  7  8  1  0  0  0  0
  7  9  1  0  0  0  0
 26 27  1  0  0  0  0
 26 28  1  0  0  0  0
 26 29  1  0  0  0  0
 24 25  1  0  0  0  0
 24 26  1  0  0  0  0
M  END
$$$$
default_name
  -OEChem-02102213163D

 29 28  0     1  0  0  0  0  0999 V2000
   -3.5781   -3.7296    1.2702 H   0  0  0  0  0  0  0  0  0  0  0  0
   -3.5311   -2.7616    0.7732 C   0  0  0  0  0  0  0  0  0  0  0  0
   -4.2371   -2.0766    1.2382 H   0  0  0  0  0  0  0  0  0  0  0  0
   -3.7681   -2.8816   -0.2818 H   0  0  0  0  0  0  0  0  0  0  0  0
   -2.1321   -2.2086    0.9112 C   0  0  0  0  0  0  0  0  0  0  0  0
   -1.2751   -2.8426    1.5112 O   0  0  0  0  0  0  0  0  0  0  0  0
   -1.9041   -1.0186    0.3602 N   0  0  0  0  0  0  0  0  0  0  0  0
   -2.6671   -0.5416   -0.0988 H   0  0  0  0  0  0  0  0  0  0  0  0
   -0.6131   -0.3236    0.3832 C   0  0  1  0  0  0  0  0  0  0  0  0
    0.1346   -0.9625   -0.0894 H   0  0  0  0  0  0  0  0  0  0  0  0
   -0.7253    0.9751   -0.4365 C   0  0  0  0  0  0  0  0  0  0  0  0
   -1.7822    1.2006   -0.5939 H   0  0  0  0  0  0  0  0  0  0  0  0
   -0.2819    1.7964    0.1282 H   0  0  0  0  0  0  0  0  0  0  0  0
   -0.0404    0.8961   -1.8057 C   0  0  0  0  0  0  0  0  0  0  0  0
   -0.3708    1.7335   -2.4195 H   0  0  0  0  0  0  0  0  0  0  0  0
    1.0382    0.9703   -1.6626 H   0  0  0  0  0  0  0  0  0  0  0  0
   -0.3935   -0.6347   -2.7068 S   0  0  0  0  0  0  0  0  0  0  0  0
    0.5061   -1.8181   -1.6713 C   0  0  0  0  0  0  0  0  0  0  0  0
    0.1019   -1.8021   -0.6587 H   0  0  0  0  0  0  0  0  0  0  0  0
    0.3941   -2.8199   -2.0868 H   0  0  0  0  0  0  0  0  0  0  0  0
    1.5642   -1.5559   -1.6474 H   0  0  0  0  0  0  0  0  0  0  0  0
   -0.1711   -0.0594    1.8296 C   0  0  0  0  0  0  0  0  0  0  0  0
    0.9865   -0.2908    2.1726 O   0  0  0  0  0  0  0  0  0  0  0  0
   -1.0921    0.4156    2.6780 N   0  0  0  0  0  0  0  0  0  0  0  0
   -2.0168    0.5953    2.3206 H   0  0  0  0  0  0  0  0  0  0  0  0
   -0.8319    0.7034    4.0877 C   0  0  0  0  0  0  0  0  0  0  0  0
   -0.0192    1.4288    4.1710 H   0  0  0  0  0  0  0  0  0  0  0  0
   -1.7255    1.1088    4.5641 H   0  0  0  0  0  0  0  0  0  0  0  0
   -0.5319   -0.2118    4.6011 H   0  0  0  0  0  0  0  0  0  0  0  0
  5  6  2  0  0  0  0
  5  7  1  0  0  0  0
  2  3  1  0  0  0  0
  2  4  1  0  0  0  0
  2  5  1  0  0  0  0
  1  2  1  0  0  0  0
 22 23  2  0  0  0  0
 22 24  1  0  0  0  0
 18 19  1  0  0  0  0
 18 20  1  0  0  0  0
 18 21  1  0  0  0  0
 17 18  1  0  0  0  0
 14 15  1  0  0  0  0
 14 16  1  0  0  0  0
 14 17  1  0  0  0  0
 11 12  1  0  0  0  0
 11 13  1  0  0  0  0
 11 14  1  0  0  0  0
  9 10  1  0  0  0  0
  9 11  1  0  0  0  0
  9 22  1  0  0  0  0
  7  8  1  0  0  0  0
  7  9  1  0  0  0  0
 26 27  1  0  0  0  0
 26 28  1  0  0  0  0
 26 29  1  0  0  0  0
 24 25  1  0  0  0  0
 24 26  1  0  0  0  0
M  END
$$$$
default_name
  -OEChem-02102213163D

 29 28  0     1  0  0  0  0  0999 V2000
   -3.5781   -3.7296    1.2702 H   0  0  0  0  0  0  0  0  0  0  0  0
   -3.5311   -2.7616    0.7732 C   0  0  0  0  0  0  0  0  0  0  0  0
   -4.2371   -2.0766    1.2382 H   0  0  0  0  0  0  0  0  0  0  0  0
   -3.7681   -2.8816   -0.2818 H   0  0  0  0  0  0  0  0  0  0  0  0
   -2.1321   -2.2086    0.9112 C   0  0  0  0  0  0  0  0  0  0  0  0
   -1.2751   -2.8426    1.5112 O   0  0  0  0  0  0  0  0  0  0  0  0
   -1.9041   -1.0186    0.3602 N   0  0  0  0  0  0  0  0  0  0  0  0
   -2.6671   -0.5416   -0.0988 H   0  0  0  0  0  0  0  0  0  0  0  0
   -0.6131   -0.3236    0.3832 C   0  0  1  0  0  0  0  0  0  0  0  0
    0.1346   -0.9625   -0.0894 H   0  0  0  0  0  0  0  0  0  0  0  0
   -0.7253    0.9751   -0.4365 C   0  0  0  0  0  0  0  0  0  0  0  0
   -1.7822    1.2006   -0.5939 H   0  0  0  0  0  0  0  0  0  0  0  0
   -0.2819    1.7964    0.1282 H   0  0  0  0  0  0  0  0  0  0  0  0
   -0.0404    0.8961   -1.8057 C   0  0  0  0  0  0  0  0  0  0  0  0
   -0.1523    1.8517   -2.3170 H   0  0  0  0  0  0  0  0  0  0  0  0
    1.0221    0.7012   -1.6552 H   0  0  0  0  0  0  0  0  0  0  0  0
   -0.7123   -0.3980   -2.8799 S   0  0  0  0  0  0  0  0  0  0  0  0
   -0.1377   -1.8679   -1.9905 C   0  0  0  0  0  0  0  0  0  0  0  0
   -0.5544   -1.8743   -0.9829 H   0  0  0  0  0  0  0  0  0  0  0  0
   -0.4663   -2.7624   -2.5205 H   0  0  0  0  0  0  0  0  0  0  0  0
    0.9512   -1.8628   -1.9363 H   0  0  0  0  0  0  0  0  0  0  0  0
   -0.1711   -0.0594    1.8296 C   0  0  0  0  0  0  0  0  0  0  0  0
    0.9865   -0.2908    2.1726 O   0  0  0  0  0  0  0  0  0  0  0  0
   -1.0921    0.4156    2.6780 N   0  0  0  0  0  0  0  0  0  0  0  0
   -2.0168    0.5953    2.3206 H   0  0  0  0  0  0  0  0  0  0  0  0
   -0.8319    0.7034    4.0877 C   0  0  0  0  0  0  0  0  0  0  0  0
   -0.0192    1.4288    4.1710 H   0  0  0  0  0  0  0  0  0  0  0  0
   -1.7255    1.1088    4.5641 H   0  0  0  0  0  0  0  0  0  0  0  0
   -0.5319   -0.2118    4.6011 H   0  0  0  0  0  0  0  0  0  0  0  0
  5  6  2  0  0  0  0
  5  7  1  0  0  0  0
  2  3  1  0  0  0  0
  2  4  1  0  0  0  0
  2  5  1  0  0  0  0
  1  2  1  0  0  0  0
 22 23  2  0  0  0  0
 22 24  1  0  0  0  0
 18 19  1  0  0  0  0
 18 20  1  0  0  0  0
 18 21  1  0  0  0  0
 17 18  1  0  0  0  0
 14 15  1  0  0  0  0
 14 16  1  0  0  0  0
 14 17  1  0  0  0  0
 11 12  1  0  0  0  0
 11 13  1  0  0  0  0
 11 14  1  0  0  0  0
  9 10  1  0  0  0  0
  9 11  1  0  0  0  0
  9 22  1  0  0  0  0
  7  8  1  0  0  0  0
  7  9  1  0  0  0  0
 26 27  1  0  0  0  0
 26 28  1  0  0  0  0
 26 29  1  0  0  0  0
 24 25  1  0  0  0  0
 24 26  1  0  0  0  0
M  END
$$$$
default_name
  -OEChem-02102213163D

 29 28  0     1  0  0  0  0  0999 V2000
   -3.5781   -3.7296    1.2702 H   0  0  0  0  0  0  0  0  0  0  0  0
   -3.5311   -2.7616    0.7732 C   0  0  0  0  0  0  0  0  0  0  0  0
   -4.2371   -2.0766    1.2382 H   0  0  0  0  0  0  0  0  0  0  0  0
   -3.7681   -2.8816   -0.2818 H   0  0  0  0  0  0  0  0  0  0  0  0
   -2.1321   -2.2086    0.9112 C   0  0  0  0  0  0  0  0  0  0  0  0
   -1.2751   -2.8426    1.5112 O   0  0  0  0  0  0  0  0  0  0  0  0
   -1.9041   -1.0186    0.3602 N   0  0  0  0  0  0  0  0  0  0  0  0
   -2.6671   -0.5416   -0.0988 H   0  0  0  0  0  0  0  0  0  0  0  0
   -0.6131   -0.3236    0.3832 C   0  0  1  0  0  0  0  0  0  0  0  0
    0.1346   -0.9625   -0.0894 H   0  0  0  0  0  0  0  0  0  0  0  0
   -0.7253    0.9751   -0.4365 C   0  0  0  0  0  0  0  0  0  0  0  0
   -1.7822    1.2006   -0.5939 H   0  0  0  0  0  0  0  0  0  0  0  0
   -0.2819    1.7964    0.1282 H   0  0  0  0  0  0  0  0  0  0  0  0
   -0.0404    0.8961   -1.8057 C   0  0  0  0  0  0  0  0  0  0  0  0
    0.0847    1.9035   -2.2015 H   0  0  0  0  0  0  0  0  0  0  0  0
    0.9441    0.4442   -1.6793 H   0  0  0  0  0  0  0  0  0  0  0  0
   -0.9631   -0.0756   -3.0239 S   0  0  0  0  0  0  0  0  0  0  0  0
   -0.7669   -1.7303   -2.3132 C   0  0  0  0  0  0  0  0  0  0  0  0
   -1.2008   -1.7548   -1.3131 H   0  0  0  0  0  0  0  0  0  0  0  0
   -1.2782   -2.4577   -2.9442 H   0  0  0  0  0  0  0  0  0  0  0  0
    0.2921   -1.9841   -2.2590 H   0  0  0  0  0  0  0  0  0  0  0  0
   -0.1711   -0.0594    1.8296 C   0  0  0  0  0  0  0  0  0  0  0  0
    0.9865   -0.2908    2.1726 O   0  0  0  0  0  0  0  0  0  0  0  0
   -1.0921    0.4156    2.6780 N   0  0  0  0  0  0  0  0  0  0  0  0
   -2.0168    0.5953    2.3206 H   0  0  0  0  0  0  0  0  0  0  0  0
   -0.8319    0.7034    4.0877 C   0  0  0  0  0  0  0  0  0  0  0  0
   -0.0192    1.4288    4.1710 H   0  0  0  0  0  0  0  0  0  0  0  0
   -1.7255    1.1088    4.5641 H   0  0  0  0  0  0  0  0  0  0  0  0
   -0.5319   -0.2118    4.6011 H   0  0  0  0  0  0  0  0  0  0  0  0
  5  6  2  0  0  0  0
  5  7  1  0  0  0  0
  2  3  1  0  0  0  0
  2  4  1  0  0  0  0
  2  5  1  0  0  0  0
  1  2  1  0  0  0  0
 22 23  2  0  0  0  0
 22 24  1  0  0  0  0
 18 19  1  0  0  0  0
 18 20  1  0  0  0  0
 18 21  1  0  0  0  0
 17 18  1  0  0  0  0
 14 15  1  0  0  0  0
 14 16  1  0  0  0  0
 14 17  1  0  0  0  0
 11 12  1  0  0  0  0
 11 13  1  0  0  0  0
 11 14  1  0  0  0  0
  9 10  1  0  0  0  0
  9 11  1  0  0  0  0
  9 22  1  0  0  0  0
  7  8  1  0  0  0  0
  7  9  1  0  0  0  0
 26 27  1  0  0  0  0
 26 28  1  0  0  0  0
 26 29  1  0  0  0  0
 24 25  1  0  0  0  0
 24 26  1  0  0  0  0
M  END
$$$$
default_name
  -OEChem-02102213163D

 29 28  0     1  0  0  0  0  0999 V2000
   -3.5781   -3.7296    1.2702 H   0  0  0  0  0  0  0  0  0  0  0  0
   -3.5311   -2.7616    0.7732 C   0  0  0  0  0  0  0  0  0  0  0  0
   -4.2371   -2.0766    1.2382 H   0  0  0  0  0  0  0  0  0  0  0  0
   -3.7681   -2.8816   -0.2818 H   0  0  0  0  0  0  0  0  0  0  0  0
   -2.1321   -2.2086    0.9112 C   0  0  0  0  0  0  0  0  0  0  0  0
   -1.2751   -2.8426    1.5112 O   0  0  0  0  0  0  0  0  0  0  0  0
   -1.9041   -1.0186    0.3602 N   0  0  0  0  0  0  0  0  0  0  0  0
   -2.6671   -0.5416   -0.0988 H   0  0  0  0  0  0  0  0  0  0  0  0
   -0.6131   -0.3236    0.3832 C   0  0  1  0  0  0  0  0  0  0  0  0
    0.1346   -0.9625   -0.0894 H   0  0  0  0  0  0  0  0  0  0  0  0
   -0.7253    0.9751   -0.4365 C   0  0  0  0  0  0  0  0  0  0  0  0
   -1.7822    1.2006   -0.5939 H   0  0  0  0  0  0  0  0  0  0  0  0
   -0.2819    1.7964    0.1282 H   0  0  0  0  0  0  0  0  0  0  0  0
   -0.0404    0.8961   -1.8057 C   0  0  0  0  0  0  0  0  0  0  0  0
    0.3240    1.8854   -2.0807 H   0  0  0  0  0  0  0  0  0  0  0  0
    0.8098    0.2168   -1.7334 H   0  0  0  0  0  0  0  0  0  0  0  0
   -1.1290    0.3104   -3.1292 S   0  0  0  0  0  0  0  0  0  0  0  0
   -1.3385   -1.4147   -2.6173 C   0  0  0  0  0  0  0  0  0  0  0  0
   -1.7931   -1.4517   -1.6269 H   0  0  0  0  0  0  0  0  0  0  0  0
   -1.9865   -1.9268   -3.3291 H   0  0  0  0  0  0  0  0  0  0  0  0
   -0.3683   -1.9117   -2.5935 H   0  0  0  0  0  0  0  0  0  0  0  0
   -0.1711   -0.0594    1.8296 C   0  0  0  0  0  0  0  0  0  0  0  0
    0.9865   -0.2908    2.1726 O   0  0  0  0  0  0  0  0  0  0  0  0
   -1.0921    0.4156    2.6780 N   0  0  0  0  0  0  0  0  0  0  0  0
   -2.0168    0.5953    2.3206 H   0  0  0  0  0  0  0  0  0  0  0  0
   -0.8319    0.7034    4.0877 C   0  0  0  0  0  0  0  0  0  0  0  0
   -0.0192    1.4288    4.1710 H   0  0  0  0  0  0  0  0  0  0  0  0
   -1.7255    1.1088    4.5641 H   0  0  0  0  0  0  0  0  0  0  0  0
   -0.5319   -0.2118    4.6011 H   0  0  0  0  0  0  0  0  0  0  0  0
  5  6  2  0  0  0  0
  5  7  1  0  0  0  0
  2  3  1  0  0  0  0
  2  4  1  0  0  0  0
  2  5  1  0  0  0  0
  1  2  1  0  0  0  0
 22 23  2  0  0  0  0
 22 24  1  0  0  0  0
 18 19  1  0  0  0  0
 18 20  1  0  0  0  0
 18 21  1  0  0  0  0
 17 18  1  0  0  0  0
 14 15  1  0  0  0  0
 14 16  1  0  0  0  0
 14 17  1  0  0  0  0
 11 12  1  0  0  0  0
 11 13  1  0  0  0  0
 11 14  1  0  0  0  0
  9 10  1  0  0  0  0
  9 11  1  0  0  0  0
  9 22  1  0  0  0  0
  7  8  1  0  0  0  0
  7  9  1  0  0  0  0
 26 27  1  0  0  0  0
 26 28  1  0  0  0  0
 26 29  1  0  0  0  0
 24 25  1  0  0  0  0
 24 26  1  0  0  0  0
M  END
$$$$
default_name
  -OEChem-02102213163D

 29 28  0     1  0  0  0  0  0999 V2000
   -3.5781   -3.7296    1.2702 H   0  0  0  0  0  0  0  0  0  0  0  0
   -3.5311   -2.7616    0.7732 C   0  0  0  0  0  0  0  0  0  0  0  0
   -4.2371   -2.0766    1.2382 H   0  0  0  0  0  0  0  0  0  0  0  0
   -3.7681   -2.8816   -0.2818 H   0  0  0  0  0  0  0  0  0  0  0  0
   -2.1321   -2.2086    0.9112 C   0  0  0  0  0  0  0  0  0  0  0  0
   -1.2751   -2.8426    1.5112 O   0  0  0  0  0  0  0  0  0  0  0  0
   -1.9041   -1.0186    0.3602 N   0  0  0  0  0  0  0  0  0  0  0  0
   -2.6671   -0.5416   -0.0988 H   0  0  0  0  0  0  0  0  0  0  0  0
   -0.6131   -0.3236    0.3832 C   0  0  1  0  0  0  0  0  0  0  0  0
    0.1346   -0.9625   -0.0894 H   0  0  0  0  0  0  0  0  0  0  0  0
   -0.7253    0.9751   -0.4365 C   0  0  0  0  0  0  0  0  0  0  0  0
   -1.7822    1.2006   -0.5939 H   0  0  0  0  0  0  0  0  0  0  0  0
   -0.2819    1.7964    0.1282 H   0  0  0  0  0  0  0  0  0  0  0  0
   -0.0404    0.8961   -1.8057 C   0  0  0  0  0  0  0  0  0  0  0  0
    0.5494    1.7986   -1.9629 H   0  0  0  0  0  0  0  0  0  0  0  0
    0.6282    0.0344   -1.8138 H   0  0  0  0  0  0  0  0  0  0  0  0
   -1.1986    0.7338   -3.1884 S   0  0  0  0  0  0  0  0  0  0  0  0
   -1.8136   -0.9425   -2.8822 C   0  0  0  0  0  0  0  0  0  0  0  0
   -2.2910   -0.9858   -1.9028 H   0  0  0  0  0  0  0  0  0  0  0  0
   -2.5427   -1.2057   -3.6490 H   0  0  0  0  0  0  0  0  0  0  0  0
   -0.9850   -1.6504   -2.9171 H   0  0  0  0  0  0  0  0  0  0  0  0
   -0.1711   -0.0594    1.8296 C   0  0  0  0  0  0  0  0  0  0  0  0
    0.9865   -0.2908    2.1726 O   0  0  0  0  0  0  0  0  0  0  0  0
   -1.0921    0.4156    2.6780 N   0  0  0  0  0  0  0  0  0  0  0  0
   -2.0168    0.5953    2.3206 H   0  0  0  0  0  0  0  0  0  0  0  0
   -0.8319    0.7034    4.0877 C   0  0  0  0  0  0  0  0  0  0  0  0
   -0.0192    1.4288    4.1710 H   0  0  0  0  0  0  0  0  0  0  0  0
   -1.7255    1.1088    4.5641 H   0  0  0  0  0  0  0  0  0  0  0  0
   -0.5319   -0.2118    4.6011 H   0  0  0  0  0  0  0  0  0  0  0  0
  5  6  2  0  0  0  0
  5  7  1  0  0  0  0
  2  3  1  0  0  0  0
  2  4  1  0  0  0  0
  2  5  1  0  0  0  0
  1  2  1  0  0  0  0
 22 23  2  0  0  0  0
 22 24  1  0  0  0  0
 18 19  1  0  0  0  0
 18 20  1  0  0  0  0
 18 21  1  0  0  0  0
 17 18  1  0  0  0  0
 14 15  1  0  0  0  0
 14 16  1  0  0  0  0
 14 17  1  0  0  0  0
 11 12  1  0  0  0  0
 11 13  1  0  0  0  0
 11 14  1  0  0  0  0
  9 10  1  0  0  0  0
  9 11  1  0  0  0  0
  9 22  1  0  0  0  0
  7  8  1  0  0  0  0
  7  9  1  0  0  0  0
 26 27  1  0  0  0  0
 26 28  1  0  0  0  0
 26 29  1  0  0  0  0
 24 25  1  0  0  0  0
 24 26  1  0  0  0  0
M  END
$$$$
default_name
  -OEChem-02102213163D

 29 28  0     1  0  0  0  0  0999 V2000
   -3.5781   -3.7296    1.2702 H   0  0  0  0  0  0  0  0  0  0  0  0
   -3.5311   -2.7616    0.7732 C   0  0  0  0  0  0  0  0  0  0  0  0
   -4.2371   -2.0766    1.2382 H   0  0  0  0  0  0  0  0  0  0  0  0
   -3.7681   -2.8816   -0.2818 H   0  0  0  0  0  0  0  0  0  0  0  0
   -2.1321   -2.2086    0.9112 C   0  0  0  0  0  0  0  0  0  0  0  0
   -1.2751   -2.8426    1.5112 O   0  0  0  0  0  0  0  0  0  0  0  0
   -1.9041   -1.0186    0.3602 N   0  0  0  0  0  0  0  0  0  0  0  0
   -2.6671   -0.5416   -0.0988 H   0  0  0  0  0  0  0  0  0  0  0  0
   -0.6131   -0.3236    0.3832 C   0  0  1  0  0  0  0  0  0  0  0  0
    0.1346   -0.9625   -0.0894 H   0  0  0  0  0  0  0  0  0  0  0  0
   -0.7253    0.9751   -0.4365 C   0  0  0  0  0  0  0  0  0  0  0  0
   -1.7822    1.2006   -0.5939 H   0  0  0  0  0  0  0  0  0  0  0  0
   -0.2819    1.7964    0.1282 H   0  0  0  0  0  0  0  0  0  0  0  0
   -0.0404    0.8961   -1.8057 C   0  0  0  0  0  0  0  0  0  0  0  0
    0.7455    1.6491   -1.8562 H   0  0  0  0  0  0  0  0  0  0  0  0
    0.4117   -0.0904   -1.9149 H   0  0  0  0  0  0  0  0  0  0  0  0
   -1.1672    1.1657   -3.1976 S   0  0  0  0  0  0  0  0  0  0  0  0
   -2.1598   -0.3459   -3.0898 C   0  0  0  0  0  0  0  0  0  0  0  0
   -2.6606   -0.3887   -2.1221 H   0  0  0  0  0  0  0  0  0  0  0  0
   -2.9090   -0.3436   -3.8819 H   0  0  0  0  0  0  0  0  0  0  0  0
   -1.5159   -1.2180   -3.2076 H   0  0  0  0  0  0  0  0  0  0  0  0
   -0.1711   -0.0594    1.8296 C   0  0  0  0  0  0  0  0  0  0  0  0
    0.9865   -0.2908    2.1726 O   0  0  0  0  0  0  0  0  0  0  0  0
   -1.0921    0.4156    2.6780 N   0  0  0  0  0  0  0  0  0  0  0  0
   -2.0168    0.5953    2.3206 H   0  0  0  0  0  0  0  0  0  0  0  0
   -0.8319    0.7034    4.0877 C   0  0  0  0  0  0  0  0  0  0  0  0
   -0.0192    1.4288    4.1710 H   0  0  0  0  0  0  0  0  0  0  0  0
   -1.7255    1.1088    4.5641 H   0  0  0  0  0  0  0  0  0  0  0  0
   -0.5319   -0.2118    4.6011 H   0  0  0  0  0  0  0  0  0  0  0  0
  5  6  2  0  0  0  0
  5  7  1  0  0  0  0
  2  3  1  0  0  0  0
  2  4  1  0  0  0  0
  2  5  1  0  0  0  0
  1  2  1  0  0  0  0
 22 23  2  0  0  0  0
 22 24  1  0  0  0  0
 18 19  1  0  0  0  0
 18 20  1  0  0  0  0
 18 21  1  0  0  0  0
 17 18  1  0  0  0  0
 14 15  1  0  0  0  0
 14 16  1  0  0  0  0
 14 17  1  0  0  0  0
 11 12  1  0  0  0  0
 11 13  1  0  0  0  0
 11 14  1  0  0  0  0
  9 10  1  0  0  0  0
  9 11  1  0  0  0  0
  9 22  1  0  0  0  0
  7  8  1  0  0  0  0
  7  9  1  0  0  0  0
 26 27  1  0  0  0  0
 26 28  1  0  0  0  0
 26 29  1  0  0  0  0
 24 25  1  0  0  0  0
 24 26  1  0  0  0  0
M  END
$$$$
default_name
  -OEChem-02102213163D

 29 28  0     1  0  0  0  0  0999 V2000
   -3.5781   -3.7296    1.2702 H   0  0  0  0  0  0  0  0  0  0  0  0
   -3.5311   -2.7616    0.7732 C   0  0  0  0  0  0  0  0  0  0  0  0
   -4.2371   -2.0766    1.2382 H   0  0  0  0  0  0  0  0  0  0  0  0
   -3.7681   -2.8816   -0.2818 H   0  0  0  0  0  0  0  0  0  0  0  0
   -2.1321   -2.2086    0.9112 C   0  0  0  0  0  0  0  0  0  0  0  0
   -1.2751   -2.8426    1.5112 O   0  0  0  0  0  0  0  0  0  0  0  0
   -1.9041   -1.0186    0.3602 N   0  0  0  0  0  0  0  0  0  0  0  0
   -2.6671   -0.5416   -0.0988 H   0  0  0  0  0  0  0  0  0  0  0  0
   -0.6131   -0.3236    0.3832 C   0  0  1  0  0  0  0  0  0  0  0  0
    0.1346   -0.9625   -0.0894 H   0  0  0  0  0  0  0  0  0  0  0  0
   -0.7253    0.9751   -0.4365 C   0  0  0  0  0  0  0  0  0  0  0  0
   -1.7822    1.2006   -0.5939 H   0  0  0  0  0  0  0  0  0  0  0  0
   -0.2819    1.7964    0.1282 H   0  0  0  0  0  0  0  0  0  0  0  0
   -0.0404    0.8961   -1.8057 C   0  0  0  0  0  0  0  0  0  0  0  0
    0.8989    1.4469   -1.7678 H   0  0  0  0  0  0  0  0  0  0  0  0
    0.1750   -0.1493   -2.0298 H   0  0  0  0  0  0  0  0  0  0  0  0
   -1.0368    1.5766   -3.1561 S   0  0  0  0  0  0  0  0  0  0  0  0
   -2.3535    0.3344   -3.2259 C   0  0  0  0  0  0  0  0  0  0  0  0
   -2.8766    0.2988   -2.2698 H   0  0  0  0  0  0  0  0  0  0  0  0
   -3.0604    0.6007   -4.0122 H   0  0  0  0  0  0  0  0  0  0  0  0
   -1.9250   -0.6440   -3.4453 H   0  0  0  0  0  0  0  0  0  0  0  0
   -0.1711   -0.0594    1.8296 C   0  0  0  0  0  0  0  0  0  0  0  0
    0.9865   -0.2908    2.1726 O   0  0  0  0  0  0  0  0  0  0  0  0
   -1.0921    0.4156    2.6780 N   0  0  0  0  0  0  0  0  0  0  0  0
   -2.0168    0.5953    2.3206 H   0  0  0  0  0  0  0  0  0  0  0  0
   -0.8319    0.7034    4.0877 C   0  0  0  0  0  0  0  0  0  0  0  0
   -0.0192    1.4288    4.1710 H   0  0  0  0  0  0  0  0  0  0  0  0
   -1.7255    1.1088    4.5641 H   0  0  0  0  0  0  0  0  0  0  0  0
   -0.5319   -0.2118    4.6011 H   0  0  0  0  0  0  0  0  0  0  0  0
  5  6  2  0  0  0  0
  5  7  1  0  0  0  0
  2  3  1  0  0  0  0
  2  4  1  0  0  0  0
  2  5  1  0  0  0  0
  1  2  1  0  0  0  0
 22 23  2  0  0  0  0
 22 24  1  0  0  0  0
 18 19  1  0  0  0  0
 18 20  1  0  0  0  0
 18 21  1  0  0  0  0
 17 18  1  0  0  0  0
 14 15  1  0  0  0  0
 14 16  1  0  0  0  0
 14 17  1  0  0  0  0
 11 12  1  0  0  0  0
 11 13  1  0  0  0  0
 11 14  1  0  0  0  0
  9 10  1  0  0  0  0
  9 11  1  0  0  0  0
  9 22  1  0  0  0  0
  7  8  1  0  0  0  0
  7  9  1  0  0  0  0
 26 27  1  0  0  0  0
 26 28  1  0  0  0  0
 26 29  1  0  0  0  0
 24 25  1  0  0  0  0
 24 26  1  0  0  0  0
M  END
$$$$
default_name
  -OEChem-02102213163D

 29 28  0     1  0  0  0  0  0999 V2000
   -3.5781   -3.7296    1.2702 H   0  0  0  0  0  0  0  0  0  0  0  0
   -3.5311   -2.7616    0.7732 C   0  0  0  0  0  0  0  0  0  0  0  0
   -4.2371   -2.0766    1.2382 H   0  0  0  0  0  0  0  0  0  0  0  0
   -3.7681   -2.8816   -0.2818 H   0  0  0  0  0  0  0  0  0  0  0  0
   -2.1321   -2.2086    0.9112 C   0  0  0  0  0  0  0  0  0  0  0  0
   -1.2751   -2.8426    1.5112 O   0  0  0  0  0  0  0  0  0  0  0  0
   -1.9041   -1.0186    0.3602 N   0  0  0  0  0  0  0  0  0  0  0  0
   -2.6671   -0.5416   -0.0988 H   0  0  0  0  0  0  0  0  0  0  0  0
   -0.6131   -0.3236    0.3832 C   0  0  1  0  0  0  0  0  0  0  0  0
    0.1346   -0.9625   -0.0894 H   0  0  0  0  0  0  0  0  0  0  0  0
   -0.7253    0.9751   -0.4365 C   0  0  0  0  0  0  0  0  0  0  0  0
   -1.7822    1.2006   -0.5939 H   0  0  0  0  0  0  0  0  0  0  0  0
   -0.2819    1.7964    0.1282 H   0  0  0  0  0  0  0  0  0  0  0  0
   -0.0404    0.8961   -1.8057 C   0  0  0  0  0  0  0  0  0  0  0  0
    0.9992    1.2060   -1.7038 H   0  0  0  0  0  0  0  0  0  0  0  0
   -0.0657   -0.1382   -2.1509 H   0  0  0  0  0  0  0  0  0  0  0  0
   -0.8165    1.9387   -3.0668 S   0  0  0  0  0  0  0  0  0  0  0  0
   -2.3816    1.0520   -3.2814 C   0  0  0  0  0  0  0  0  0  0  0  0
   -2.9243    1.0299   -2.3359 H   0  0  0  0  0  0  0  0  0  0  0  0
   -2.9867    1.5630   -4.0308 H   0  0  0  0  0  0  0  0  0  0  0  0
   -2.1842    0.0325   -3.6140 H   0  0  0  0  0  0  0  0  0  0  0  0
   -0.1711   -0.0594    1.8296 C   0  0  0  0  0  0  0  0  0  0  0  0
    0.9865   -0.2908    2.1726 O   0  0  0  0  0  0  0  0  0  0  0  0
   -1.0921    0.4156    2.6780 N   0  0  0  0  0  0  0  0  0  0  0  0
   -2.0168    0.5953    2.3206 H   0  0  0  0  0  0  0  0  0  0  0  0
   -0.8319    0.7034    4.0877 C   0  0  0  0  0  0  0  0  0  0  0  0
   -0.0192    1.4288    4.1710 H   0  0  0  0  0  0  0  0  0  0  0  0
   -1.7255    1.1088    4.5641 H   0  0  0  0  0  0  0  0  0  0  0  0
   -0.5319   -0.2118    4.6011 H   0  0  0  0  0  0  0  0  0  0  0  0
  5  6  2  0  0  0  0
  5  7  1  0  0  0  0
  2  3  1  0  0  0  0
  2  4  1  0  0  0  0
  2  5  1  0  0  0  0
  1  2  1  0  0  0  0
 22 23  2  0  0  0  0
 22 24  1  0  0  0  0
 18 19  1  0  0  0  0
 18 20  1  0  0  0  0
 18 21  1  0  0  0  0
 17 18  1  0  0  0  0
 14 15  1  0  0  0  0
 14 16  1  0  0  0  0
 14 17  1  0  0  0  0
 11 12  1  0  0  0  0
 11 13  1  0  0  0  0
 11 14  1  0  0  0  0
  9 10  1  0  0  0  0
  9 11  1  0  0  0  0
  9 22  1  0  0  0  0
  7  8  1  0  0  0  0
  7  9  1  0  0  0  0
 26 27  1  0  0  0  0
 26 28  1  0  0  0  0
 26 29  1  0  0  0  0
 24 25  1  0  0  0  0
 24 26  1  0  0  0  0
M  END
$$$$
default_name
  -OEChem-02102213163D

 29 28  0     1  0  0  0  0  0999 V2000
   -3.5781   -3.7296    1.2702 H   0  0  0  0  0  0  0  0  0  0  0  0
   -3.5311   -2.7616    0.7732 C   0  0  0  0  0  0  0  0  0  0  0  0
   -4.2371   -2.0766    1.2382 H   0  0  0  0  0  0  0  0  0  0  0  0
   -3.7681   -2.8816   -0.2818 H   0  0  0  0  0  0  0  0  0  0  0  0
   -2.1321   -2.2086    0.9112 C   0  0  0  0  0  0  0  0  0  0  0  0
   -1.2751   -2.8426    1.5112 O   0  0  0  0  0  0  0  0  0  0  0  0
   -1.9041   -1.0186    0.3602 N   0  0  0  0  0  0  0  0  0  0  0  0
   -2.6671   -0.5416   -0.0988 H   0  0  0  0  0  0  0  0  0  0  0  0
   -0.6131   -0.3236    0.3832 C   0  0  1  0  0  0  0  0  0  0  0  0
    0.1346   -0.9625   -0.0894 H   0  0  0  0  0  0  0  0  0  0  0  0
   -0.7253    0.9751   -0.4365 C   0  0  0  0  0  0  0  0  0  0  0  0
   -1.7822    1.2006   -0.5939 H   0  0  0  0  0  0  0  0  0  0  0  0
   -0.2819    1.7964    0.1282 H   0  0  0  0  0  0  0  0  0  0  0  0
   -0.0404    0.8961   -1.8057 C   0  0  0  0  0  0  0  0  0  0  0  0
    1.0395    0.9427   -1.6684 H   0  0  0  0  0  0  0  0  0  0  0  0
   -0.2940   -0.0578   -2.2697 H   0  0  0  0  0  0  0  0  0  0  0  0
   -0.5212    2.2271   -2.9357 S   0  0  0  0  0  0  0  0  0  0  0  0
   -2.2421    1.7581   -3.2523 C   0  0  0  0  0  0  0  0  0  0  0  0
   -2.8005    1.7548   -2.3158 H   0  0  0  0  0  0  0  0  0  0  0  0
   -2.6928    2.4775   -3.9365 H   0  0  0  0  0  0  0  0  0  0  0  0
   -2.2760    0.7654   -3.7022 H   0  0  0  0  0  0  0  0  0  0  0  0
   -0.1711   -0.0594    1.8296 C   0  0  0  0  0  0  0  0  0  0  0  0
    0.9865   -0.2908    2.1726 O   0  0  0  0  0  0  0  0  0  0  0  0
   -1.0921    0.4156    2.6780 N   0  0  0  0  0  0  0  0  0  0  0  0
   -2.0168    0.5953    2.3206 H   0  0  0  0  0  0  0  0  0  0  0  0
   -0.8319    0.7034    4.0877 C   0  0  0  0  0  0  0  0  0  0  0  0
   -0.0192    1.4288    4.1710 H   0  0  0  0  0  0  0  0  0  0  0  0
   -1.7255    1.1088    4.5641 H   0  0  0  0  0  0  0  0  0  0  0  0
   -0.5319   -0.2118    4.6011 H   0  0  0  0  0  0  0  0  0  0  0  0
  5  6  2  0  0  0  0
  5  7  1  0  0  0  0
  2  3  1  0  0  0  0
  2  4  1  0  0  0  0
  2  5  1  0  0  0  0
  1  2  1  0  0  0  0
 22 23  2  0  0  0  0
 22 24  1  0  0  0  0
 18 19  1  0  0  0  0
 18 20  1  0  0  0  0
 18 21  1  0  0  0  0
 17 18  1  0  0  0  0
 14 15  1  0  0  0  0
 14 16  1  0  0  0  0
 14 17  1  0  0  0  0
 11 12  1  0  0  0  0
 11 13  1  0  0  0  0
 11 14  1  0  0  0  0
  9 10  1  0  0  0  0
  9 11  1  0  0  0  0
  9 22  1  0  0  0  0
  7  8  1  0  0  0  0
  7  9  1  0  0  0  0
 26 27  1  0  0  0  0
 26 28  1  0  0  0  0
 26 29  1  0  0  0  0
 24 25  1  0  0  0  0
 24 26  1  0  0  0  0
M  END
$$$$
default_name
  -OEChem-02102213163D

 29 28  0     1  0  0  0  0  0999 V2000
   -3.5781   -3.7296    1.2702 H   0  0  0  0  0  0  0  0  0  0  0  0
   -3.5311   -2.7616    0.7732 C   0  0  0  0  0  0  0  0  0  0  0  0
   -4.2371   -2.0766    1.2382 H   0  0  0  0  0  0  0  0  0  0  0  0
   -3.7681   -2.8816   -0.2818 H   0  0  0  0  0  0  0  0  0  0  0  0
   -2.1321   -2.2086    0.9112 C   0  0  0  0  0  0  0  0  0  0  0  0
   -1.2751   -2.8426    1.5112 O   0  0  0  0  0  0  0  0  0  0  0  0
   -1.9041   -1.0186    0.3602 N   0  0  0  0  0  0  0  0  0  0  0  0
   -2.6671   -0.5416   -0.0988 H   0  0  0  0  0  0  0  0  0  0  0  0
   -0.6131   -0.3236    0.3832 C   0  0  1  0  0  0  0  0  0  0  0  0
    0.1346   -0.9625   -0.0894 H   0  0  0  0  0  0  0  0  0  0  0  0
   -0.7253    0.9751   -0.4365 C   0  0  0  0  0  0  0  0  0  0  0  0
   -1.7503    1.3456   -0.3685 H   0  0  0  0  0  0  0  0  0  0  0  0
   -0.0615    1.7284   -0.0098 H   0  0  0  0  0  0  0  0  0  0  0  0
   -0.3750    0.7962   -1.9182 C   0  0  0  0  0  0  0  0  0  0  0  0
    0.6477    0.4299   -2.0020 H   0  0  0  0  0  0  0  0  0  0  0  0
   -1.0491    0.0559   -2.3506 H   0  0  0  0  0  0  0  0  0  0  0  0
   -0.5063    2.3222   -2.8845 S   0  0  0  0  0  0  0  0  0  0  0  0
   -2.3031    2.5513   -2.8590 C   0  0  0  0  0  0  0  0  0  0  0  0
   -2.6462    2.6536   -1.8291 H   0  0  0  0  0  0  0  0  0  0  0  0
   -2.5603    3.4537   -3.4144 H   0  0  0  0  0  0  0  0  0  0  0  0
   -2.7899    1.6933   -3.3235 H   0  0  0  0  0  0  0  0  0  0  0  0
   -0.1711   -0.0594    1.8296 C   0  0  0  0  0  0  0  0  0  0  0  0
    0.9865   -0.2908    2.1726 O   0  0  0  0  0  0  0  0  0  0  0  0
   -1.0921    0.4156    2.6780 N   0  0  0  0  0  0  0  0  0  0  0  0
   -2.0168    0.5953    2.3206 H   0  0  0  0  0  0  0  0  0  0  0  0
   -0.8319    0.7034    4.0877 C   0  0  0  0  0  0  0  0  0  0  0  0
   -0.0192    1.4288    4.1710 H   0  0  0  0  0  0  0  0  0  0  0  0
   -1.7255    1.1088    4.5641 H   0  0  0  0  0  0  0  0  0  0  0  0
   -0.5319   -0.2118    4.6011 H   0  0  0  0  0  0  0  0  0  0  0  0
  5  6  2  0  0  0  0
  5  7  1  0  0  0  0
  2  3  1  0  0  0  0
  2  4  1  0  0  0  0
  2  5  1  0  0  0  0
  1  2  1  0  0  0  0
 22 23  2  0  0  0  0
 22 24  1  0  0  0  0
 18 19  1  0  0  0  0
 18 20  1  0  0  0  0
 18 21  1  0  0  0  0
 17 18  1  0  0  0  0
 14 15  1  0  0  0  0
 14 16  1  0  0  0  0
 14 17  1  0  0  0  0
 11 12  1  0  0  0  0
 11 13  1  0  0  0  0
 11 14  1  0  0  0  0
  9 10  1  0  0  0  0
  9 11  1  0  0  0  0
  9 22  1  0  0  0  0
  7  8  1  0  0  0  0
  7  9  1  0  0  0  0
 26 27  1  0  0  0  0
 26 28  1  0  0  0  0
 26 29  1  0  0  0  0
 24 25  1  0  0  0  0
 24 26  1  0  0  0  0
M  END
$$$$
default_name
  -OEChem-02102213163D

 29 28  0     1  0  0  0  0  0999 V2000
   -3.5781   -3.7296    1.2702 H   0  0  0  0  0  0  0  0  0  0  0  0
   -3.5311   -2.7616    0.7732 C   0  0  0  0  0  0  0  0  0  0  0  0
   -4.2371   -2.0766    1.2382 H   0  0  0  0  0  0  0  0  0  0  0  0
   -3.7681   -2.8816   -0.2818 H   0  0  0  0  0  0  0  0  0  0  0  0
   -2.1321   -2.2086    0.9112 C   0  0  0  0  0  0  0  0  0  0  0  0
   -1.2751   -2.8426    1.5112 O   0  0  0  0  0  0  0  0  0  0  0  0
   -1.9041   -1.0186    0.3602 N   0  0  0  0  0  0  0  0  0  0  0  0
   -2.6671   -0.5416   -0.0988 H   0  0  0  0  0  0  0  0  0  0  0  0
   -0.6131   -0.3236    0.3832 C   0  0  1  0  0  0  0  0  0  0  0  0
    0.1346   -0.9625   -0.0894 H   0  0  0  0  0  0  0  0  0  0  0  0
   -0.7253    0.9751   -0.4365 C   0  0  0  0  0  0  0  0  0  0  0  0
   -1.7503    1.3456   -0.3685 H   0  0  0  0  0  0  0  0  0  0  0  0
   -0.0615    1.7284   -0.0098 H   0  0  0  0  0  0  0  0  0  0  0  0
   -0.3750    0.7962   -1.9182 C   0  0  0  0  0  0  0  0  0  0  0  0
    0.5266    0.1900   -2.0017 H   0  0  0  0  0  0  0  0  0  0  0  0
   -1.1956    0.2739   -2.4115 H   0  0  0  0  0  0  0  0  0  0  0  0
   -0.0852    2.3573   -2.7892 S   0  0  0  0  0  0  0  0  0  0  0  0
   -1.7679    3.0284   -2.7901 C   0  0  0  0  0  0  0  0  0  0  0  0
   -2.1132    3.1564   -1.7638 H   0  0  0  0  0  0  0  0  0  0  0  0
   -1.7709    3.9957   -3.2932 H   0  0  0  0  0  0  0  0  0  0  0  0
   -2.4353    2.3471   -3.3186 H   0  0  0  0  0  0  0  0  0  0  0  0
   -0.1711   -0.0594    1.8296 C   0  0  0  0  0  0  0  0  0  0  0  0
    0.9865   -0.2908    2.1726 O   0  0  0  0  0  0  0  0  0  0  0  0
   -1.0921    0.4156    2.6780 N   0  0  0  0  0  0  0  0  0  0  0  0
   -2.0168    0.5953    2.3206 H   0  0  0  0  0  0  0  0  0  0  0  0
   -0.8319    0.7034    4.0877 C   0  0  0  0  0  0  0  0  0  0  0  0
   -0.0192    1.4288    4.1710 H   0  0  0  0  0  0  0  0  0  0  0  0
   -1.7255    1.1088    4.5641 H   0  0  0  0  0  0  0  0  0  0  0  0
   -0.5319   -0.2118    4.6011 H   0  0  0  0  0  0  0  0  0  0  0  0
  5  6  2  0  0  0  0
  5  7  1  0  0  0  0
  2  3  1  0  0  0  0
  2  4  1  0  0  0  0
  2  5  1  0  0  0  0
  1  2  1  0  0  0  0
 22 23  2  0  0  0  0
 22 24  1  0  0  0  0
 18 19  1  0  0  0  0
 18 20  1  0  0  0  0
 18 21  1  0  0  0  0
 17 18  1  0  0  0  0
 14 15  1  0  0  0  0
 14 16  1  0  0  0  0
 14 17  1  0  0  0  0
 11 12  1  0  0  0  0
 11 13  1  0  0  0  0
 11 14  1  0  0  0  0
  9 10  1  0  0  0  0
  9 11  1  0  0  0  0
  9 22  1  0  0  0  0
  7  8  1  0  0  0  0
  7  9  1  0  0  0  0
 26 27  1  0  0  0  0
 26 28  1  0  0  0  0
 26 29  1  0  0  0  0
 24 25  1  0  0  0  0
 24 26  1  0  0  0  0
M  END
$$$$
default_name
  -OEChem-02102213163D

 29 28  0     1  0  0  0  0  0999 V2000
   -3.5781   -3.7296    1.2702 H   0  0  0  0  0  0  0  0  0  0  0  0
   -3.5311   -2.7616    0.7732 C   0  0  0  0  0  0  0  0  0  0  0  0
   -4.2371   -2.0766    1.2382 H   0  0  0  0  0  0  0  0  0  0  0  0
   -3.7681   -2.8816   -0.2818 H   0  0  0  0  0  0  0  0  0  0  0  0
   -2.1321   -2.2086    0.9112 C   0  0  0  0  0  0  0  0  0  0  0  0
   -1.2751   -2.8426    1.5112 O   0  0  0  0  0  0  0  0  0  0  0  0
   -1.9041   -1.0186    0.3602 N   0  0  0  0  0  0  0  0  0  0  0  0
   -2.6671   -0.5416   -0.0988 H   0  0  0  0  0  0  0  0  0  0  0  0
   -0.6131   -0.3236    0.3832 C   0  0  1  0  0  0  0  0  0  0  0  0
    0.1346   -0.9625   -0.0894 H   0  0  0  0  0  0  0  0  0  0  0  0
   -0.7253    0.9751   -0.4365 C   0  0  0  0  0  0  0  0  0  0  0  0
   -1.7503    1.3456   -0.3685 H   0  0  0  0  0  0  0  0  0  0  0  0
   -0.0615    1.7284   -0.0098 H   0  0  0  0  0  0  0  0  0  0  0  0
   -0.3750    0.7962   -1.9182 C   0  0  0  0  0  0  0  0  0  0  0  0
    0.3495   -0.0113   -2.0192 H   0  0  0  0  0  0  0  0  0  0  0  0
   -1.2806    0.5247   -2.4619 H   0  0  0  0  0  0  0  0  0  0  0  0
    0.3274    2.2802   -2.6823 S   0  0  0  0  0  0  0  0  0  0  0  0
   -1.1336    3.3513   -2.6792 C   0  0  0  0  0  0  0  0  0  0  0  0
   -1.4746    3.5050   -1.6549 H   0  0  0  0  0  0  0  0  0  0  0  0
   -0.8764    4.3147   -3.1203 H   0  0  0  0  0  0  0  0  0  0  0  0
   -1.9293    2.8897   -3.2645 H   0  0  0  0  0  0  0  0  0  0  0  0
   -0.1711   -0.0594    1.8296 C   0  0  0  0  0  0  0  0  0  0  0  0
    0.9865   -0.2908    2.1726 O   0  0  0  0  0  0  0  0  0  0  0  0
   -1.0921    0.4156    2.6780 N   0  0  0  0  0  0  0  0  0  0  0  0
   -2.0168    0.5953    2.3206 H   0  0  0  0  0  0  0  0  0  0  0  0
   -0.8319    0.7034    4.0877 C   0  0  0  0  0  0  0  0  0  0  0  0
   -0.0192    1.4288    4.1710 H   0  0  0  0  0  0  0  0  0  0  0  0
   -1.7255    1.1088    4.5641 H   0  0  0  0  0  0  0  0  0  0  0  0
   -0.5319   -0.2118    4.6011 H   0  0  0  0  0  0  0  0  0  0  0  0
  5  6  2  0  0  0  0
  5  7  1  0  0  0  0
  2  3  1  0  0  0  0
  2  4  1  0  0  0  0
  2  5  1  0  0  0  0
  1  2  1  0  0  0  0
 22 23  2  0  0  0  0
 22 24  1  0  0  0  0
 18 19  1  0  0  0  0
 18 20  1  0  0  0  0
 18 21  1  0  0  0  0
 17 18  1  0  0  0  0
 14 15  1  0  0  0  0
 14 16  1  0  0  0  0
 14 17  1  0  0  0  0
 11 12  1  0  0  0  0
 11 13  1  0  0  0  0
 11 14  1  0  0  0  0
  9 10  1  0  0  0  0
  9 11  1  0  0  0  0
  9 22  1  0  0  0  0
  7  8  1  0  0  0  0
  7  9  1  0  0  0  0
 26 27  1  0  0  0  0
 26 28  1  0  0  0  0
 26 29  1  0  0  0  0
 24 25  1  0  0  0  0
 24 26  1  0  0  0  0
M  END
$$$$
default_name
  -OEChem-02102213163D

 29 28  0     1  0  0  0  0  0999 V2000
   -3.5781   -3.7296    1.2702 H   0  0  0  0  0  0  0  0  0  0  0  0
   -3.5311   -2.7616    0.7732 C   0  0  0  0  0  0  0  0  0  0  0  0
   -4.2371   -2.0766    1.2382 H   0  0  0  0  0  0  0  0  0  0  0  0
   -3.7681   -2.8816   -0.2818 H   0  0  0  0  0  0  0  0  0  0  0  0
   -2.1321   -2.2086    0.9112 C   0  0  0  0  0  0  0  0  0  0  0  0
   -1.2751   -2.8426    1.5112 O   0  0  0  0  0  0  0  0  0  0  0  0
   -1.9041   -1.0186    0.3602 N   0  0  0  0  0  0  0  0  0  0  0  0
   -2.6671   -0.5416   -0.0988 H   0  0  0  0  0  0  0  0  0  0  0  0
   -0.6131   -0.3236    0.3832 C   0  0  1  0  0  0  0  0  0  0  0  0
    0.1346   -0.9625   -0.0894 H   0  0  0  0  0  0  0  0  0  0  0  0
   -0.7253    0.9751   -0.4365 C   0  0  0  0  0  0  0  0  0  0  0  0
   -1.7503    1.3456   -0.3685 H   0  0  0  0  0  0  0  0  0  0  0  0
   -0.0615    1.7284   -0.0098 H   0  0  0  0  0  0  0  0  0  0  0  0
   -0.3750    0.7962   -1.9182 C   0  0  0  0  0  0  0  0  0  0  0  0
    0.1287   -0.1605   -2.0534 H   0  0  0  0  0  0  0  0  0  0  0  0
   -1.2985    0.7913   -2.4983 H   0  0  0  0  0  0  0  0  0  0  0  0
    0.7034    2.0962   -2.5712 S   0  0  0  0  0  0  0  0  0  0  0  0
   -0.4435    3.4979   -2.5337 C   0  0  0  0  0  0  0  0  0  0  0  0
   -0.7739    3.6754   -1.5098 H   0  0  0  0  0  0  0  0  0  0  0  0
    0.0621    4.3888   -2.9073 H   0  0  0  0  0  0  0  0  0  0  0  0
   -1.3065    3.2840   -3.1649 H   0  0  0  0  0  0  0  0  0  0  0  0
   -0.1711   -0.0594    1.8296 C   0  0  0  0  0  0  0  0  0  0  0  0
    0.9865   -0.2908    2.1726 O   0  0  0  0  0  0  0  0  0  0  0  0
   -1.0921    0.4156    2.6780 N   0  0  0  0  0  0  0  0  0  0  0  0
   -2.0168    0.5953    2.3206 H   0  0  0  0  0  0  0  0  0  0  0  0
   -0.8319    0.7034    4.0877 C   0  0  0  0  0  0  0  0  0  0  0  0
   -0.0192    1.4288    4.1710 H   0  0  0  0  0  0  0  0  0  0  0  0
   -1.7255    1.1088    4.5641 H   0  0  0  0  0  0  0  0  0  0  0  0
   -0.5319   -0.2118    4.6011 H   0  0  0  0  0  0  0  0  0  0  0  0
  5  6  2  0  0  0  0
  5  7  1  0  0  0  0
  2  3  1  0  0  0  0
  2  4  1  0  0  0  0
  2  5  1  0  0  0  0
  1  2  1  0  0  0  0
 22 23  2  0  0  0  0
 22 24  1  0  0  0  0
 18 19  1  0  0  0  0
 18 20  1  0  0  0  0
 18 21  1  0  0  0  0
 17 18  1  0  0  0  0
 14 15  1  0  0  0  0
 14 16  1  0  0  0  0
 14 17  1  0  0  0  0
 11 12  1  0  0  0  0
 11 13  1  0  0  0  0
 11 14  1  0  0  0  0
  9 10  1  0  0  0  0
  9 11  1  0  0  0  0
  9 22  1  0  0  0  0
  7  8  1  0  0  0  0
  7  9  1  0  0  0  0
 26 27  1  0  0  0  0
 26 28  1  0  0  0  0
 26 29  1  0  0  0  0
 24 25  1  0  0  0  0
 24 26  1  0  0  0  0
M  END
$$$$
default_name
  -OEChem-02102213163D

 29 28  0     1  0  0  0  0  0999 V2000
   -3.5781   -3.7296    1.2702 H   0  0  0  0  0  0  0  0  0  0  0  0
   -3.5311   -2.7616    0.7732 C   0  0  0  0  0  0  0  0  0  0  0  0
   -4.2371   -2.0766    1.2382 H   0  0  0  0  0  0  0  0  0  0  0  0
   -3.7681   -2.8816   -0.2818 H   0  0  0  0  0  0  0  0  0  0  0  0
   -2.1321   -2.2086    0.9112 C   0  0  0  0  0  0  0  0  0  0  0  0
   -1.2751   -2.8426    1.5112 O   0  0  0  0  0  0  0  0  0  0  0  0
   -1.9041   -1.0186    0.3602 N   0  0  0  0  0  0  0  0  0  0  0  0
   -2.6671   -0.5416   -0.0988 H   0  0  0  0  0  0  0  0  0  0  0  0
   -0.6131   -0.3236    0.3832 C   0  0  1  0  0  0  0  0  0  0  0  0
    0.1346   -0.9625   -0.0894 H   0  0  0  0  0  0  0  0  0  0  0  0
   -0.7253    0.9751   -0.4365 C   0  0  0  0  0  0  0  0  0  0  0  0
   -1.7503    1.3456   -0.3685 H   0  0  0  0  0  0  0  0  0  0  0  0
   -0.0615    1.7284   -0.0098 H   0  0  0  0  0  0  0  0  0  0  0  0
   -0.3750    0.7962   -1.9182 C   0  0  0  0  0  0  0  0  0  0  0  0
   -0.1209   -0.2473   -2.1019 H   0  0  0  0  0  0  0  0  0  0  0  0
   -1.2480    1.0554   -2.5183 H   0  0  0  0  0  0  0  0  0  0  0  0
    1.0173    1.8179   -2.4634 S   0  0  0  0  0  0  0  0  0  0  0  0
    0.2553    3.4584   -2.3637 C   0  0  0  0  0  0  0  0  0  0  0  0
   -0.0588    3.6562   -1.3385 H   0  0  0  0  0  0  0  0  0  0  0  0
    0.9807    4.2130   -2.6689 H   0  0  0  0  0  0  0  0  0  0  0  0
   -0.6093    3.5032   -3.0265 H   0  0  0  0  0  0  0  0  0  0  0  0
   -0.1711   -0.0594    1.8296 C   0  0  0  0  0  0  0  0  0  0  0  0
    0.9865   -0.2908    2.1726 O   0  0  0  0  0  0  0  0  0  0  0  0
   -1.0921    0.4156    2.6780 N   0  0  0  0  0  0  0  0  0  0  0  0
   -2.0168    0.5953    2.3206 H   0  0  0  0  0  0  0  0  0  0  0  0
   -0.8319    0.7034    4.0877 C   0  0  0  0  0  0  0  0  0  0  0  0
   -0.0192    1.4288    4.1710 H   0  0  0  0  0  0  0  0  0  0  0  0
   -1.7255    1.1088    4.5641 H   0  0  0  0  0  0  0  0  0  0  0  0
   -0.5319   -0.2118    4.6011 H   0  0  0  0  0  0  0  0  0  0  0  0
  5  6  2  0  0  0  0
  5  7  1  0  0  0  0
  2  3  1  0  0  0  0
  2  4  1  0  0  0  0
  2  5  1  0  0  0  0
  1  2  1  0  0  0  0
 22 23  2  0  0  0  0
 22 24  1  0  0  0  0
 18 19  1  0  0  0  0
 18 20  1  0  0  0  0
 18 21  1  0  0  0  0
 17 18  1  0  0  0  0
 14 15  1  0  0  0  0
 14 16  1  0  0  0  0
 14 17  1  0  0  0  0
 11 12  1  0  0  0  0
 11 13  1  0  0  0  0
 11 14  1  0  0  0  0
  9 10  1  0  0  0  0
  9 11  1  0  0  0  0
  9 22  1  0  0  0  0
  7  8  1  0  0  0  0
  7  9  1  0  0  0  0
 26 27  1  0  0  0  0
 26 28  1  0  0  0  0
 26 29  1  0  0  0  0
 24 25  1  0  0  0  0
 24 26  1  0  0  0  0
M  END
$$$$
default_name
  -OEChem-02102213163D

 29 28  0     1  0  0  0  0  0999 V2000
   -3.5781   -3.7296    1.2702 H   0  0  0  0  0  0  0  0  0  0  0  0
   -3.5311   -2.7616    0.7732 C   0  0  0  0  0  0  0  0  0  0  0  0
   -4.2371   -2.0766    1.2382 H   0  0  0  0  0  0  0  0  0  0  0  0
   -3.7681   -2.8816   -0.2818 H   0  0  0  0  0  0  0  0  0  0  0  0
   -2.1321   -2.2086    0.9112 C   0  0  0  0  0  0  0  0  0  0  0  0
   -1.2751   -2.8426    1.5112 O   0  0  0  0  0  0  0  0  0  0  0  0
   -1.9041   -1.0186    0.3602 N   0  0  0  0  0  0  0  0  0  0  0  0
   -2.6671   -0.5416   -0.0988 H   0  0  0  0  0  0  0  0  0  0  0  0
   -0.6131   -0.3236    0.3832 C   0  0  1  0  0  0  0  0  0  0  0  0
    0.1346   -0.9625   -0.0894 H   0  0  0  0  0  0  0  0  0  0  0  0
   -0.7253    0.9751   -0.4365 C   0  0  0  0  0  0  0  0  0  0  0  0
   -1.7503    1.3456   -0.3685 H   0  0  0  0  0  0  0  0  0  0  0  0
   -0.0615    1.7284   -0.0098 H   0  0  0  0  0  0  0  0  0  0  0  0
   -0.3750    0.7962   -1.9182 C   0  0  0  0  0  0  0  0  0  0  0  0
   -0.3823   -0.2659   -2.1615 H   0  0  0  0  0  0  0  0  0  0  0  0
   -1.1325    1.2990   -2.5204 H   0  0  0  0  0  0  0  0  0  0  0  0
    1.2476    1.4641   -2.3663 S   0  0  0  0  0  0  0  0  0  0  0  0
    0.9153    3.2353   -2.1808 C   0  0  0  0  0  0  0  0  0  0  0  0
    0.6220    3.4486   -1.1524 H   0  0  0  0  0  0  0  0  0  0  0  0
    1.8169    3.7993   -2.4213 H   0  0  0  0  0  0  0  0  0  0  0  0
    0.1148    3.5324   -2.8589 H   0  0  0  0  0  0  0  0  0  0  0  0
   -0.1711   -0.0594    1.8296 C   0  0  0  0  0  0  0  0  0  0  0  0
    0.9865   -0.2908    2.1726 O   0  0  0  0  0  0  0  0  0  0  0  0
   -1.0921    0.4156    2.6780 N   0  0  0  0  0  0  0  0  0  0  0  0
   -2.0168    0.5953    2.3206 H   0  0  0  0  0  0  0  0  0  0  0  0
   -0.8319    0.7034    4.0877 C   0  0  0  0  0  0  0  0  0  0  0  0
   -0.0192    1.4288    4.1710 H   0  0  0  0  0  0  0  0  0  0  0  0
   -1.7255    1.1088    4.5641 H   0  0  0  0  0  0  0  0  0  0  0  0
   -0.5319   -0.2118    4.6011 H   0  0  0  0  0  0  0  0  0  0  0  0
  5  6  2  0  0  0  0
  5  7  1  0  0  0  0
  2  3  1  0  0  0  0
  2  4  1  0  0  0  0
  2  5  1  0  0  0  0
  1  2  1  0  0  0  0
 22 23  2  0  0  0  0
 22 24  1  0  0  0  0
 18 19  1  0  0  0  0
 18 20  1  0  0  0  0
 18 21  1  0  0  0  0
 17 18  1  0  0  0  0
 14 15  1  0  0  0  0
 14 16  1  0  0  0  0
 14 17  1  0  0  0  0
 11 12  1  0  0  0  0
 11 13  1  0  0  0  0
 11 14  1  0  0  0  0
  9 10  1  0  0  0  0
  9 11  1  0  0  0  0
  9 22  1  0  0  0  0
  7  8  1  0  0  0  0
  7  9  1  0  0  0  0
 26 27  1  0  0  0  0
 26 28  1  0  0  0  0
 26 29  1  0  0  0  0
 24 25  1  0  0  0  0
 24 26  1  0  0  0  0
M  END
$$$$
default_name
  -OEChem-02102213163D

 29 28  0     1  0  0  0  0  0999 V2000
   -3.5781   -3.7296    1.2702 H   0  0  0  0  0  0  0  0  0  0  0  0
   -3.5311   -2.7616    0.7732 C   0  0  0  0  0  0  0  0  0  0  0  0
   -4.2371   -2.0766    1.2382 H   0  0  0  0  0  0  0  0  0  0  0  0
   -3.7681   -2.8816   -0.2818 H   0  0  0  0  0  0  0  0  0  0  0  0
   -2.1321   -2.2086    0.9112 C   0  0  0  0  0  0  0  0  0  0  0  0
   -1.2751   -2.8426    1.5112 O   0  0  0  0  0  0  0  0  0  0  0  0
   -1.9041   -1.0186    0.3602 N   0  0  0  0  0  0  0  0  0  0  0  0
   -2.6671   -0.5416   -0.0988 H   0  0  0  0  0  0  0  0  0  0  0  0
   -0.6131   -0.3236    0.3832 C   0  0  1  0  0  0  0  0  0  0  0  0
    0.1346   -0.9625   -0.0894 H   0  0  0  0  0  0  0  0  0  0  0  0
   -0.7253    0.9751   -0.4365 C   0  0  0  0  0  0  0  0  0  0  0  0
   -1.7503    1.3456   -0.3685 H   0  0  0  0  0  0  0  0  0  0  0  0
   -0.0615    1.7284   -0.0098 H   0  0  0  0  0  0  0  0  0  0  0  0
   -0.3750    0.7962   -1.9182 C   0  0  0  0  0  0  0  0  0  0  0  0
   -0.6376   -0.2149   -2.2280 H   0  0  0  0  0  0  0  0  0  0  0  0
   -0.9600    1.5056   -2.5046 H   0  0  0  0  0  0  0  0  0  0  0  0
    1.3786    1.0591   -2.2864 S   0  0  0  0  0  0  0  0  0  0  0  0
    1.4915    2.8439   -1.9973 C   0  0  0  0  0  0  0  0  0  0  0  0
    1.2220    3.0668   -0.9645 H   0  0  0  0  0  0  0  0  0  0  0  0
    2.5136    3.1759   -2.1813 H   0  0  0  0  0  0  0  0  0  0  0  0
    0.8165    3.3694   -2.6733 H   0  0  0  0  0  0  0  0  0  0  0  0
   -0.1711   -0.0594    1.8296 C   0  0  0  0  0  0  0  0  0  0  0  0
    0.9865   -0.2908    2.1726 O   0  0  0  0  0  0  0  0  0  0  0  0
   -1.0921    0.4156    2.6780 N   0  0  0  0  0  0  0  0  0  0  0  0
   -2.0168    0.5953    2.3206 H   0  0  0  0  0  0  0  0  0  0  0  0
   -0.8319    0.7034    4.0877 C   0  0  0  0  0  0  0  0  0  0  0  0
   -0.0192    1.4288    4.1710 H   0  0  0  0  0  0  0  0  0  0  0  0
   -1.7255    1.1088    4.5641 H   0  0  0  0  0  0  0  0  0  0  0  0
   -0.5319   -0.2118    4.6011 H   0  0  0  0  0  0  0  0  0  0  0  0
  5  6  2  0  0  0  0
  5  7  1  0  0  0  0
  2  3  1  0  0  0  0
  2  4  1  0  0  0  0
  2  5  1  0  0  0  0
  1  2  1  0  0  0  0
 22 23  2  0  0  0  0
 22 24  1  0  0  0  0
 18 19  1  0  0  0  0
 18 20  1  0  0  0  0
 18 21  1  0  0  0  0
 17 18  1  0  0  0  0
 14 15  1  0  0  0  0
 14 16  1  0  0  0  0
 14 17  1  0  0  0  0
 11 12  1  0  0  0  0
 11 13  1  0  0  0  0
 11 14  1  0  0  0  0
  9 10  1  0  0  0  0
  9 11  1  0  0  0  0
  9 22  1  0  0  0  0
  7  8  1  0  0  0  0
  7  9  1  0  0  0  0
 26 27  1  0  0  0  0
 26 28  1  0  0  0  0
 26 29  1  0  0  0  0
 24 25  1  0  0  0  0
 24 26  1  0  0  0  0
M  END
$$$$
default_name
  -OEChem-02102213163D

 29 28  0     1  0  0  0  0  0999 V2000
   -3.5781   -3.7296    1.2702 H   0  0  0  0  0  0  0  0  0  0  0  0
   -3.5311   -2.7616    0.7732 C   0  0  0  0  0  0  0  0  0  0  0  0
   -4.2371   -2.0766    1.2382 H   0  0  0  0  0  0  0  0  0  0  0  0
   -3.7681   -2.8816   -0.2818 H   0  0  0  0  0  0  0  0  0  0  0  0
   -2.1321   -2.2086    0.9112 C   0  0  0  0  0  0  0  0  0  0  0  0
   -1.2751   -2.8426    1.5112 O   0  0  0  0  0  0  0  0  0  0  0  0
   -1.9041   -1.0186    0.3602 N   0  0  0  0  0  0  0  0  0  0  0  0
   -2.6671   -0.5416   -0.0988 H   0  0  0  0  0  0  0  0  0  0  0  0
   -0.6131   -0.3236    0.3832 C   0  0  1  0  0  0  0  0  0  0  0  0
    0.1346   -0.9625   -0.0894 H   0  0  0  0  0  0  0  0  0  0  0  0
   -0.7253    0.9751   -0.4365 C   0  0  0  0  0  0  0  0  0  0  0  0
   -1.7503    1.3456   -0.3685 H   0  0  0  0  0  0  0  0  0  0  0  0
   -0.0615    1.7284   -0.0098 H   0  0  0  0  0  0  0  0  0  0  0  0
   -0.3750    0.7962   -1.9182 C   0  0  0  0  0  0  0  0  0  0  0  0
   -0.8694   -0.0979   -2.2969 H   0  0  0  0  0  0  0  0  0  0  0  0
   -0.7422    1.6611   -2.4718 H   0  0  0  0  0  0  0  0  0  0  0  0
    1.4013    0.6304   -2.2292 S   0  0  0  0  0  0  0  0  0  0  0  0
    1.9446    2.3108   -1.8258 C   0  0  0  0  0  0  0  0  0  0  0  0
    1.7004    2.5368   -0.7874 H   0  0  0  0  0  0  0  0  0  0  0  0
    3.0234    2.3852   -1.9653 H   0  0  0  0  0  0  0  0  0  0  0  0
    1.4479    3.0256   -2.4825 H   0  0  0  0  0  0  0  0  0  0  0  0
   -0.1711   -0.0594    1.8296 C   0  0  0  0  0  0  0  0  0  0  0  0
    0.9865   -0.2908    2.1726 O   0  0  0  0  0  0  0  0  0  0  0  0
   -1.0921    0.4156    2.6780 N   0  0  0  0  0  0  0  0  0  0  0  0
   -2.0168    0.5953    2.3206 H   0  0  0  0  0  0  0  0  0  0  0  0
   -0.8319    0.7034    4.0877 C   0  0  0  0  0  0  0  0  0  0  0  0
   -0.0192    1.4288    4.1710 H   0  0  0  0  0  0  0  0  0  0  0  0
   -1.7255    1.1088    4.5641 H   0  0  0  0  0  0  0  0  0  0  0  0
   -0.5319   -0.2118    4.6011 H   0  0  0  0  0  0  0  0  0  0  0  0
  5  6  2  0  0  0  0
  5  7  1  0  0  0  0
  2  3  1  0  0  0  0
  2  4  1  0  0  0  0
  2  5  1  0  0  0  0
  1  2  1  0  0  0  0
 22 23  2  0  0  0  0
 22 24  1  0  0  0  0
 18 19  1  0  0  0  0
 18 20  1  0  0  0  0
 18 21  1  0  0  0  0
 17 18  1  0  0  0  0
 14 15  1  0  0  0  0
 14 16  1  0  0  0  0
 14 17  1  0  0  0  0
 11 12  1  0  0  0  0
 11 13  1  0  0  0  0
 11 14  1  0  0  0  0
  9 10  1  0  0  0  0
  9 11  1  0  0  0  0
  9 22  1  0  0  0  0
  7  8  1  0  0  0  0
  7  9  1  0  0  0  0
 26 27  1  0  0  0  0
 26 28  1  0  0  0  0
 26 29  1  0  0  0  0
 24 25  1  0  0  0  0
 24 26  1  0  0  0  0
M  END
$$$$
default_name
  -OEChem-02102213163D

 29 28  0     1  0  0  0  0  0999 V2000
   -3.5781   -3.7296    1.2702 H   0  0  0  0  0  0  0  0  0  0  0  0
   -3.5311   -2.7616    0.7732 C   0  0  0  0  0  0  0  0  0  0  0  0
   -4.2371   -2.0766    1.2382 H   0  0  0  0  0  0  0  0  0  0  0  0
   -3.7681   -2.8816   -0.2818 H   0  0  0  0  0  0  0  0  0  0  0  0
   -2.1321   -2.2086    0.9112 C   0  0  0  0  0  0  0  0  0  0  0  0
   -1.2751   -2.8426    1.5112 O   0  0  0  0  0  0  0  0  0  0  0  0
   -1.9041   -1.0186    0.3602 N   0  0  0  0  0  0  0  0  0  0  0  0
   -2.6671   -0.5416   -0.0988 H   0  0  0  0  0  0  0  0  0  0  0  0
   -0.6131   -0.3236    0.3832 C   0  0  1  0  0  0  0  0  0  0  0  0
    0.1346   -0.9625   -0.0894 H   0  0  0  0  0  0  0  0  0  0  0  0
   -0.7253    0.9751   -0.4365 C   0  0  0  0  0  0  0  0  0  0  0  0
   -1.7503    1.3456   -0.3685 H   0  0  0  0  0  0  0  0  0  0  0  0
   -0.0615    1.7284   -0.0098 H   0  0  0  0  0  0  0  0  0  0  0  0
   -0.3750    0.7962   -1.9182 C   0  0  0  0  0  0  0  0  0  0  0  0
   -1.0620    0.0772   -2.3636 H   0  0  0  0  0  0  0  0  0  0  0  0
   -0.4938    1.7548   -2.4244 H   0  0  0  0  0  0  0  0  0  0  0  0
    1.3144    0.2071   -2.1987 S   0  0  0  0  0  0  0  0  0  0  0  0
    2.2437    1.6724   -1.6780 C   0  0  0  0  0  0  0  0  0  0  0  0
    2.0246    1.8947   -0.6332 H   0  0  0  0  0  0  0  0  0  0  0  0
    3.3115    1.4812   -1.7881 H   0  0  0  0  0  0  0  0  0  0  0  0
    1.9660    2.5242   -2.2995 H   0  0  0  0  0  0  0  0  0  0  0  0
   -0.1711   -0.0594    1.8296 C   0  0  0  0  0  0  0  0  0  0  0  0
    0.9865   -0.2908    2.1726 O   0  0  0  0  0  0  0  0  0  0  0  0
   -1.0921    0.4156    2.6780 N   0  0  0  0  0  0  0  0  0  0  0  0
   -2.0168    0.5953    2.3206 H   0  0  0  0  0  0  0  0  0  0  0  0
   -0.8319    0.7034    4.0877 C   0  0  0  0  0  0  0  0  0  0  0  0
   -0.0192    1.4288    4.1710 H   0  0  0  0  0  0  0  0  0  0  0  0
   -1.7255    1.1088    4.5641 H   0  0  0  0  0  0  0  0  0  0  0  0
   -0.5319   -0.2118    4.6011 H   0  0  0  0  0  0  0  0  0  0  0  0
  5  6  2  0  0  0  0
  5  7  1  0  0  0  0
  2  3  1  0  0  0  0
  2  4  1  0  0  0  0
  2  5  1  0  0  0  0
  1  2  1  0  0  0  0
 22 23  2  0  0  0  0
 22 24  1  0  0  0  0
 18 19  1  0  0  0  0
 18 20  1  0  0  0  0
 18 21  1  0  0  0  0
 17 18  1  0  0  0  0
 14 15  1  0  0  0  0
 14 16  1  0  0  0  0
 14 17  1  0  0  0  0
 11 12  1  0  0  0  0
 11 13  1  0  0  0  0
 11 14  1  0  0  0  0
  9 10  1  0  0  0  0
  9 11  1  0  0  0  0
  9 22  1  0  0  0  0
  7  8  1  0  0  0  0
  7  9  1  0  0  0  0
 26 27  1  0  0  0  0
 26 28  1  0  0  0  0
 26 29  1  0  0  0  0
 24 25  1  0  0  0  0
 24 26  1  0  0  0  0
M  END
$$$$
default_name
  -OEChem-02102213163D

 29 28  0     1  0  0  0  0  0999 V2000
   -3.5781   -3.7296    1.2702 H   0  0  0  0  0  0  0  0  0  0  0  0
   -3.5311   -2.7616    0.7732 C   0  0  0  0  0  0  0  0  0  0  0  0
   -4.2371   -2.0766    1.2382 H   0  0  0  0  0  0  0  0  0  0  0  0
   -3.7681   -2.8816   -0.2818 H   0  0  0  0  0  0  0  0  0  0  0  0
   -2.1321   -2.2086    0.9112 C   0  0  0  0  0  0  0  0  0  0  0  0
   -1.2751   -2.8426    1.5112 O   0  0  0  0  0  0  0  0  0  0  0  0
   -1.9041   -1.0186    0.3602 N   0  0  0  0  0  0  0  0  0  0  0  0
   -2.6671   -0.5416   -0.0988 H   0  0  0  0  0  0  0  0  0  0  0  0
   -0.6131   -0.3236    0.3832 C   0  0  1  0  0  0  0  0  0  0  0  0
    0.1346   -0.9625   -0.0894 H   0  0  0  0  0  0  0  0  0  0  0  0
   -0.7253    0.9751   -0.4365 C   0  0  0  0  0  0  0  0  0  0  0  0
   -1.7503    1.3456   -0.3685 H   0  0  0  0  0  0  0  0  0  0  0  0
   -0.0615    1.7284   -0.0098 H   0  0  0  0  0  0  0  0  0  0  0  0
   -0.3750    0.7962   -1.9182 C   0  0  0  0  0  0  0  0  0  0  0  0
   -1.2022    0.2985   -2.4235 H   0  0  0  0  0  0  0  0  0  0  0  0
   -0.2320    1.7804   -2.3656 H   0  0  0  0  0  0  0  0  0  0  0  0
    1.1236   -0.1817   -2.1968 S   0  0  0  0  0  0  0  0  0  0  0  0
    2.3685    0.9722   -1.5640 C   0  0  0  0  0  0  0  0  0  0  0  0
    2.1724    1.1843   -0.5125 H   0  0  0  0  0  0  0  0  0  0  0  0
    3.3583    0.5254   -1.6616 H   0  0  0  0  0  0  0  0  0  0  0  0
    2.3354    1.8995   -2.1367 H   0  0  0  0  0  0  0  0  0  0  0  0
   -0.1711   -0.0594    1.8296 C   0  0  0  0  0  0  0  0  0  0  0  0
    0.9865   -0.2908    2.1726 O   0  0  0  0  0  0  0  0  0  0  0  0
   -1.0921    0.4156    2.6780 N   0  0  0  0  0  0  0  0  0  0  0  0
   -2.0168    0.5953    2.3206 H   0  0  0  0  0  0  0  0  0  0  0  0
   -0.8319    0.7034    4.0877 C   0  0  0  0  0  0  0  0  0  0  0  0
   -0.0192    1.4288    4.1710 H   0  0  0  0  0  0  0  0  0  0  0  0
   -1.7255    1.1088    4.5641 H   0  0  0  0  0  0  0  0  0  0  0  0
   -0.5319   -0.2118    4.6011 H   0  0  0  0  0  0  0  0  0  0  0  0
  5  6  2  0  0  0  0
  5  7  1  0  0  0  0
  2  3  1  0  0  0  0
  2  4  1  0  0  0  0
  2  5  1  0  0  0  0
  1  2  1  0  0  0  0
 22 23  2  0  0  0  0
 22 24  1  0  0  0  0
 18 19  1  0  0  0  0
 18 20  1  0  0  0  0
 18 21  1  0  0  0  0
 17 18  1  0  0  0  0
 14 15  1  0  0  0  0
 14 16  1  0  0  0  0
 14 17  1  0  0  0  0
 11 12  1  0  0  0  0
 11 13  1  0  0  0  0
 11 14  1  0  0  0  0
  9 10  1  0  0  0  0
  9 11  1  0  0  0  0
  9 22  1  0  0  0  0
  7  8  1  0  0  0  0
  7  9  1  0  0  0  0
 26 27  1  0  0  0  0
 26 28  1  0  0  0  0
 26 29  1  0  0  0  0
 24 25  1  0  0  0  0
 24 26  1  0  0  0  0
M  END
$$$$
default_name
  -OEChem-02102213163D

 29 28  0     1  0  0  0  0  0999 V2000
   -3.5781   -3.7296    1.2702 H   0  0  0  0  0  0  0  0  0  0  0  0
   -3.5311   -2.7616    0.7732 C   0  0  0  0  0  0  0  0  0  0  0  0
   -4.2371   -2.0766    1.2382 H   0  0  0  0  0  0  0  0  0  0  0  0
   -3.7681   -2.8816   -0.2818 H   0  0  0  0  0  0  0  0  0  0  0  0
   -2.1321   -2.2086    0.9112 C   0  0  0  0  0  0  0  0  0  0  0  0
   -1.2751   -2.8426    1.5112 O   0  0  0  0  0  0  0  0  0  0  0  0
   -1.9041   -1.0186    0.3602 N   0  0  0  0  0  0  0  0  0  0  0  0
   -2.6671   -0.5416   -0.0988 H   0  0  0  0  0  0  0  0  0  0  0  0
   -0.6131   -0.3236    0.3832 C   0  0  1  0  0  0  0  0  0  0  0  0
    0.1346   -0.9625   -0.0894 H   0  0  0  0  0  0  0  0  0  0  0  0
   -0.7253    0.9751   -0.4365 C   0  0  0  0  0  0  0  0  0  0  0  0
   -1.7503    1.3456   -0.3685 H   0  0  0  0  0  0  0  0  0  0  0  0
   -0.0615    1.7284   -0.0098 H   0  0  0  0  0  0  0  0  0  0  0  0
   -0.3750    0.7962   -1.9182 C   0  0  0  0  0  0  0  0  0  0  0  0
   -1.2804    0.5509   -2.4724 H   0  0  0  0  0  0  0  0  0  0  0  0
    0.0256    1.7362   -2.2994 H   0  0  0  0  0  0  0  0  0  0  0  0
    0.8420   -0.5097   -2.2238 S   0  0  0  0  0  0  0  0  0  0  0  0
    2.3104    0.2579   -1.4915 C   0  0  0  0  0  0  0  0  0  0  0  0
    2.1339    0.4539   -0.4334 H   0  0  0  0  0  0  0  0  0  0  0  0
    3.1605   -0.4170   -1.5946 H   0  0  0  0  0  0  0  0  0  0  0  0
    2.5311    1.1940   -2.0053 H   0  0  0  0  0  0  0  0  0  0  0  0
   -0.1711   -0.0594    1.8296 C   0  0  0  0  0  0  0  0  0  0  0  0
    0.9865   -0.2908    2.1726 O   0  0  0  0  0  0  0  0  0  0  0  0
   -1.0921    0.4156    2.6780 N   0  0  0  0  0  0  0  0  0  0  0  0
   -2.0168    0.5953    2.3206 H   0  0  0  0  0  0  0  0  0  0  0  0
   -0.8319    0.7034    4.0877 C   0  0  0  0  0  0  0  0  0  0  0  0
   -0.0192    1.4288    4.1710 H   0  0  0  0  0  0  0  0  0  0  0  0
   -1.7255    1.1088    4.5641 H   0  0  0  0  0  0  0  0  0  0  0  0
   -0.5319   -0.2118    4.6011 H   0  0  0  0  0  0  0  0  0  0  0  0
  5  6  2  0  0  0  0
  5  7  1  0  0  0  0
  2  3  1  0  0  0  0
  2  4  1  0  0  0  0
  2  5  1  0  0  0  0
  1  2  1  0  0  0  0
 22 23  2  0  0  0  0
 22 24  1  0  0  0  0
 18 19  1  0  0  0  0
 18 20  1  0  0  0  0
 18 21  1  0  0  0  0
 17 18  1  0  0  0  0
 14 15  1  0  0  0  0
 14 16  1  0  0  0  0
 14 17  1  0  0  0  0
 11 12  1  0  0  0  0
 11 13  1  0  0  0  0
 11 14  1  0  0  0  0
  9 10  1  0  0  0  0
  9 11  1  0  0  0  0
  9 22  1  0  0  0  0
  7  8  1  0  0  0  0
  7  9  1  0  0  0  0
 26 27  1  0  0  0  0
 26 28  1  0  0  0  0
 26 29  1  0  0  0  0
 24 25  1  0  0  0  0
 24 26  1  0  0  0  0
M  END
$$$$
default_name
  -OEChem-02102213163D

 29 28  0     1  0  0  0  0  0999 V2000
   -3.5781   -3.7296    1.2702 H   0  0  0  0  0  0  0  0  0  0  0  0
   -3.5311   -2.7616    0.7732 C   0  0  0  0  0  0  0  0  0  0  0  0
   -4.2371   -2.0766    1.2382 H   0  0  0  0  0  0  0  0  0  0  0  0
   -3.7681   -2.8816   -0.2818 H   0  0  0  0  0  0  0  0  0  0  0  0
   -2.1321   -2.2086    0.9112 C   0  0  0  0  0  0  0  0  0  0  0  0
   -1.2751   -2.8426    1.5112 O   0  0  0  0  0  0  0  0  0  0  0  0
   -1.9041   -1.0186    0.3602 N   0  0  0  0  0  0  0  0  0  0  0  0
   -2.6671   -0.5416   -0.0988 H   0  0  0  0  0  0  0  0  0  0  0  0
   -0.6131   -0.3236    0.3832 C   0  0  1  0  0  0  0  0  0  0  0  0
    0.1346   -0.9625   -0.0894 H   0  0  0  0  0  0  0  0  0  0  0  0
   -0.7253    0.9751   -0.4365 C   0  0  0  0  0  0  0  0  0  0  0  0
   -1.7503    1.3456   -0.3685 H   0  0  0  0  0  0  0  0  0  0  0  0
   -0.0615    1.7284   -0.0098 H   0  0  0  0  0  0  0  0  0  0  0  0
   -0.3750    0.7962   -1.9182 C   0  0  0  0  0  0  0  0  0  0  0  0
   -1.2914    0.8171   -2.5072 H   0  0  0  0  0  0  0  0  0  0  0  0
    0.2614    1.6251   -2.2302 H   0  0  0  0  0  0  0  0  0  0  0  0
    0.4888   -0.7544   -2.2778 S   0  0  0  0  0  0  0  0  0  0  0  0
    2.0734   -0.4218   -1.4654 C   0  0  0  0  0  0  0  0  0  0  0  0
    1.9115   -0.2466   -0.4014 H   0  0  0  0  0  0  0  0  0  0  0  0
    2.7318   -1.2817   -1.5915 H   0  0  0  0  0  0  0  0  0  0  0  0
    2.5397    0.4558   -1.9141 H   0  0  0  0  0  0  0  0  0  0  0  0
   -0.1711   -0.0594    1.8296 C   0  0  0  0  0  0  0  0  0  0  0  0
    0.9865   -0.2908    2.1726 O   0  0  0  0  0  0  0  0  0  0  0  0
   -1.0921    0.4156    2.6780 N   0  0  0  0  0  0  0  0  0  0  0  0
   -2.0168    0.5953    2.3206 H   0  0  0  0  0  0  0  0  0  0  0  0
   -0.8319    0.7034    4.0877 C   0  0  0  0  0  0  0  0  0  0  0  0
   -0.0192    1.4288    4.1710 H   0  0  0  0  0  0  0  0  0  0  0  0
   -1.7255    1.1088    4.5641 H   0  0  0  0  0  0  0  0  0  0  0  0
   -0.5319   -0.2118    4.6011 H   0  0  0  0  0  0  0  0  0  0  0  0
  5  6  2  0  0  0  0
  5  7  1  0  0  0  0
  2  3  1  0  0  0  0
  2  4  1  0  0  0  0
  2  5  1  0  0  0  0
  1  2  1  0  0  0  0
 22 23  2  0  0  0  0
 22 24  1  0  0  0  0
 18 19  1  0  0  0  0
 18 20  1  0  0  0  0
 18 21  1  0  0  0  0
 17 18  1  0  0  0  0
 14 15  1  0  0  0  0
 14 16  1  0  0  0  0
 14 17  1  0  0  0  0
 11 12  1  0  0  0  0
 11 13  1  0  0  0  0
 11 14  1  0  0  0  0
  9 10  1  0  0  0  0
  9 11  1  0  0  0  0
  9 22  1  0  0  0  0
  7  8  1  0  0  0  0
  7  9  1  0  0  0  0
 26 27  1  0  0  0  0
 26 28  1  0  0  0  0
 26 29  1  0  0  0  0
 24 25  1  0  0  0  0
 24 26  1  0  0  0  0
M  END
$$$$
default_name
  -OEChem-02102213163D

 29 28  0     1  0  0  0  0  0999 V2000
   -3.5781   -3.7296    1.2702 H   0  0  0  0  0  0  0  0  0  0  0  0
   -3.5311   -2.7616    0.7732 C   0  0  0  0  0  0  0  0  0  0  0  0
   -4.2371   -2.0766    1.2382 H   0  0  0  0  0  0  0  0  0  0  0  0
   -3.7681   -2.8816   -0.2818 H   0  0  0  0  0  0  0  0  0  0  0  0
   -2.1321   -2.2086    0.9112 C   0  0  0  0  0  0  0  0  0  0  0  0
   -1.2751   -2.8426    1.5112 O   0  0  0  0  0  0  0  0  0  0  0  0
   -1.9041   -1.0186    0.3602 N   0  0  0  0  0  0  0  0  0  0  0  0
   -2.6671   -0.5416   -0.0988 H   0  0  0  0  0  0  0  0  0  0  0  0
   -0.6131   -0.3236    0.3832 C   0  0  1  0  0  0  0  0  0  0  0  0
    0.1346   -0.9625   -0.0894 H   0  0  0  0  0  0  0  0  0  0  0  0
   -0.7253    0.9751   -0.4365 C   0  0  0  0  0  0  0  0  0  0  0  0
   -1.7503    1.3456   -0.3685 H   0  0  0  0  0  0  0  0  0  0  0  0
   -0.0615    1.7284   -0.0098 H   0  0  0  0  0  0  0  0  0  0  0  0
   -0.3750    0.7962   -1.9182 C   0  0  0  0  0  0  0  0  0  0  0  0
   -1.2344    1.0790   -2.5253 H   0  0  0  0  0  0  0  0  0  0  0  0
    0.4592    1.4547   -2.1629 H   0  0  0  0  0  0  0  0  0  0  0  0
    0.0879   -0.8993   -2.3550 S   0  0  0  0  0  0  0  0  0  0  0  0
    1.6737   -1.0206   -1.4876 C   0  0  0  0  0  0  0  0  0  0  0  0
    1.5206   -0.8695   -0.4186 H   0  0  0  0  0  0  0  0  0  0  0  0
    2.1012   -2.0100   -1.6527 H   0  0  0  0  0  0  0  0  0  0  0  0
    2.3606   -0.2648   -1.8695 H   0  0  0  0  0  0  0  0  0  0  0  0
   -0.1711   -0.0594    1.8296 C   0  0  0  0  0  0  0  0  0  0  0  0
    0.9865   -0.2908    2.1726 O   0  0  0  0  0  0  0  0  0  0  0  0
   -1.0921    0.4156    2.6780 N   0  0  0  0  0  0  0  0  0  0  0  0
   -2.0168    0.5953    2.3206 H   0  0  0  0  0  0  0  0  0  0  0  0
   -0.8319    0.7034    4.0877 C   0  0  0  0  0  0  0  0  0  0  0  0
   -0.0192    1.4288    4.1710 H   0  0  0  0  0  0  0  0  0  0  0  0
   -1.7255    1.1088    4.5641 H   0  0  0  0  0  0  0  0  0  0  0  0
   -0.5319   -0.2118    4.6011 H   0  0  0  0  0  0  0  0  0  0  0  0
  5  6  2  0  0  0  0
  5  7  1  0  0  0  0
  2  3  1  0  0  0  0
  2  4  1  0  0  0  0
  2  5  1  0  0  0  0
  1  2  1  0  0  0  0
 22 23  2  0  0  0  0
 22 24  1  0  0  0  0
 18 19  1  0  0  0  0
 18 20  1  0  0  0  0
 18 21  1  0  0  0  0
 17 18  1  0  0  0  0
 14 15  1  0  0  0  0
 14 16  1  0  0  0  0
 14 17  1  0  0  0  0
 11 12  1  0  0  0  0
 11 13  1  0  0  0  0
 11 14  1  0  0  0  0
  9 10  1  0  0  0  0
  9 11  1  0  0  0  0
  9 22  1  0  0  0  0
  7  8  1  0  0  0  0
  7  9  1  0  0  0  0
 26 27  1  0  0  0  0
 26 28  1  0  0  0  0
 26 29  1  0  0  0  0
 24 25  1  0  0  0  0
 24 26  1  0  0  0  0
M  END
$$$$
default_name
  -OEChem-02102213163D

 29 28  0     1  0  0  0  0  0999 V2000
   -3.5781   -3.7296    1.2702 H   0  0  0  0  0  0  0  0  0  0  0  0
   -3.5311   -2.7616    0.7732 C   0  0  0  0  0  0  0  0  0  0  0  0
   -4.2371   -2.0766    1.2382 H   0  0  0  0  0  0  0  0  0  0  0  0
   -3.7681   -2.8816   -0.2818 H   0  0  0  0  0  0  0  0  0  0  0  0
   -2.1321   -2.2086    0.9112 C   0  0  0  0  0  0  0  0  0  0  0  0
   -1.2751   -2.8426    1.5112 O   0  0  0  0  0  0  0  0  0  0  0  0
   -1.9041   -1.0186    0.3602 N   0  0  0  0  0  0  0  0  0  0  0  0
   -2.6671   -0.5416   -0.0988 H   0  0  0  0  0  0  0  0  0  0  0  0
   -0.6131   -0.3236    0.3832 C   0  0  1  0  0  0  0  0  0  0  0  0
    0.1346   -0.9625   -0.0894 H   0  0  0  0  0  0  0  0  0  0  0  0
   -0.7253    0.9751   -0.4365 C   0  0  0  0  0  0  0  0  0  0  0  0
   -1.7503    1.3456   -0.3685 H   0  0  0  0  0  0  0  0  0  0  0  0
   -0.0615    1.7284   -0.0098 H   0  0  0  0  0  0  0  0  0  0  0  0
   -0.3750    0.7962   -1.9182 C   0  0  0  0  0  0  0  0  0  0  0  0
   -1.1132    1.3188   -2.5256 H   0  0  0  0  0  0  0  0  0  0  0  0
    0.6056    1.2366   -2.1019 H   0  0  0  0  0  0  0  0  0  0  0  0
   -0.3331   -0.9344   -2.4503 S   0  0  0  0  0  0  0  0  0  0  0  0
    1.1385   -1.4977   -1.5565 C   0  0  0  0  0  0  0  0  0  0  0  0
    0.9876   -1.3723   -0.4839 H   0  0  0  0  0  0  0  0  0  0  0  0
    1.3118   -2.5520   -1.7738 H   0  0  0  0  0  0  0  0  0  0  0  0
    2.0060   -0.9186   -1.8743 H   0  0  0  0  0  0  0  0  0  0  0  0
   -0.1711   -0.0594    1.8296 C   0  0  0  0  0  0  0  0  0  0  0  0
    0.9865   -0.2908    2.1726 O   0  0  0  0  0  0  0  0  0  0  0  0
   -1.0921    0.4156    2.6780 N   0  0  0  0  0  0  0  0  0  0  0  0
   -2.0168    0.5953    2.3206 H   0  0  0  0  0  0  0  0  0  0  0  0
   -0.8319    0.7034    4.0877 C   0  0  0  0  0  0  0  0  0  0  0  0
   -0.0192    1.4288    4.1710 H   0  0  0  0  0  0  0  0  0  0  0  0
   -1.7255    1.1088    4.5641 H   0  0  0  0  0  0  0  0  0  0  0  0
   -0.5319   -0.2118    4.6011 H   0  0  0  0  0  0  0  0  0  0  0  0
  5  6  2  0  0  0  0
  5  7  1  0  0  0  0
  2  3  1  0  0  0  0
  2  4  1  0  0  0  0
  2  5  1  0  0  0  0
  1  2  1  0  0  0  0
 22 23  2  0  0  0  0
 22 24  1  0  0  0  0
 18 19  1  0  0  0  0
 18 20  1  0  0  0  0
 18 21  1  0  0  0  0
 17 18  1  0  0  0  0
 14 15  1  0  0  0  0
 14 16  1  0  0  0  0
 14 17  1  0  0  0  0
 11 12  1  0  0  0  0
 11 13  1  0  0  0  0
 11 14  1  0  0  0  0
  9 10  1  0  0  0  0
  9 11  1  0  0  0  0
  9 22  1  0  0  0  0
  7  8  1  0  0  0  0
  7  9  1  0  0  0  0
 26 27  1  0  0  0  0
 26 28  1  0  0  0  0
 26 29  1  0  0  0  0
 24 25  1  0  0  0  0
 24 26  1  0  0  0  0
M  END
$$$$
default_name
  -OEChem-02102213163D

 29 28  0     1  0  0  0  0  0999 V2000
   -3.5781   -3.7296    1.2702 H   0  0  0  0  0  0  0  0  0  0  0  0
   -3.5311   -2.7616    0.7732 C   0  0  0  0  0  0  0  0  0  0  0  0
   -4.2371   -2.0766    1.2382 H   0  0  0  0  0  0  0  0  0  0  0  0
   -3.7681   -2.8816   -0.2818 H   0  0  0  0  0  0  0  0  0  0  0  0
   -2.1321   -2.2086    0.9112 C   0  0  0  0  0  0  0  0  0  0  0  0
   -1.2751   -2.8426    1.5112 O   0  0  0  0  0  0  0  0  0  0  0  0
   -1.9041   -1.0186    0.3602 N   0  0  0  0  0  0  0  0  0  0  0  0
   -2.6671   -0.5416   -0.0988 H   0  0  0  0  0  0  0  0  0  0  0  0
   -0.6131   -0.3236    0.3832 C   0  0  1  0  0  0  0  0  0  0  0  0
    0.1346   -0.9625   -0.0894 H   0  0  0  0  0  0  0  0  0  0  0  0
   -0.7253    0.9751   -0.4365 C   0  0  0  0  0  0  0  0  0  0  0  0
   -1.7503    1.3456   -0.3685 H   0  0  0  0  0  0  0  0  0  0  0  0
   -0.0615    1.7284   -0.0098 H   0  0  0  0  0  0  0  0  0  0  0  0
   -0.3750    0.7962   -1.9182 C   0  0  0  0  0  0  0  0  0  0  0  0
   -0.9362    1.5202   -2.5081 H   0  0  0  0  0  0  0  0  0  0  0  0
    0.6907    0.9858   -2.0516 H   0  0  0  0  0  0  0  0  0  0  0  0
   -0.7457   -0.8573   -2.5572 S   0  0  0  0  0  0  0  0  0  0  0  0
    0.5042   -1.8206   -1.6675 C   0  0  0  0  0  0  0  0  0  0  0  0
    0.3490   -1.7208   -0.5928 H   0  0  0  0  0  0  0  0  0  0  0  0
    0.4174   -2.8710   -1.9468 H   0  0  0  0  0  0  0  0  0  0  0  0
    1.5000   -1.4612   -1.9285 H   0  0  0  0  0  0  0  0  0  0  0  0
   -0.1711   -0.0594    1.8296 C   0  0  0  0  0  0  0  0  0  0  0  0
    0.9865   -0.2908    2.1726 O   0  0  0  0  0  0  0  0  0  0  0  0
   -1.0921    0.4156    2.6780 N   0  0  0  0  0  0  0  0  0  0  0  0
   -2.0168    0.5953    2.3206 H   0  0  0  0  0  0  0  0  0  0  0  0
   -0.8319    0.7034    4.0877 C   0  0  0  0  0  0  0  0  0  0  0  0
   -0.0192    1.4288    4.1710 H   0  0  0  0  0  0  0  0  0  0  0  0
   -1.7255    1.1088    4.5641 H   0  0  0  0  0  0  0  0  0  0  0  0
   -0.5319   -0.2118    4.6011 H   0  0  0  0  0  0  0  0  0  0  0  0
  5  6  2  0  0  0  0
  5  7  1  0  0  0  0
  2  3  1  0  0  0  0
  2  4  1  0  0  0  0
  2  5  1  0  0  0  0
  1  2  1  0  0  0  0
 22 23  2  0  0  0  0
 22 24  1  0  0  0  0
 18 19  1  0  0  0  0
 18 20  1  0  0  0  0
 18 21  1  0  0  0  0
 17 18  1  0  0  0  0
 14 15  1  0  0  0  0
 14 16  1  0  0  0  0
 14 17  1  0  0  0  0
 11 12  1  0  0  0  0
 11 13  1  0  0  0  0
 11 14  1  0  0  0  0
  9 10  1  0  0  0  0
  9 11  1  0  0  0  0
  9 22  1  0  0  0  0
  7  8  1  0  0  0  0
  7  9  1  0  0  0  0
 26 27  1  0  0  0  0
 26 28  1  0  0  0  0
 26 29  1  0  0  0  0
 24 25  1  0  0  0  0
 24 26  1  0  0  0  0
M  END
$$$$
default_name
  -OEChem-02102213163D

 29 28  0     1  0  0  0  0  0999 V2000
   -3.5781   -3.7296    1.2702 H   0  0  0  0  0  0  0  0  0  0  0  0
   -3.5311   -2.7616    0.7732 C   0  0  0  0  0  0  0  0  0  0  0  0
   -4.2371   -2.0766    1.2382 H   0  0  0  0  0  0  0  0  0  0  0  0
   -3.7681   -2.8816   -0.2818 H   0  0  0  0  0  0  0  0  0  0  0  0
   -2.1321   -2.2086    0.9112 C   0  0  0  0  0  0  0  0  0  0  0  0
   -1.2751   -2.8426    1.5112 O   0  0  0  0  0  0  0  0  0  0  0  0
   -1.9041   -1.0186    0.3602 N   0  0  0  0  0  0  0  0  0  0  0  0
   -2.6671   -0.5416   -0.0988 H   0  0  0  0  0  0  0  0  0  0  0  0
   -0.6131   -0.3236    0.3832 C   0  0  1  0  0  0  0  0  0  0  0  0
    0.1346   -0.9625   -0.0894 H   0  0  0  0  0  0  0  0  0  0  0  0
   -0.7253    0.9751   -0.4365 C   0  0  0  0  0  0  0  0  0  0  0  0
   -1.7503    1.3456   -0.3685 H   0  0  0  0  0  0  0  0  0  0  0  0
   -0.0615    1.7284   -0.0098 H   0  0  0  0  0  0  0  0  0  0  0  0
   -0.3750    0.7962   -1.9182 C   0  0  0  0  0  0  0  0  0  0  0  0
   -0.7154    1.6694   -2.4739 H   0  0  0  0  0  0  0  0  0  0  0  0
    0.7085    0.7193   -2.0151 H   0  0  0  0  0  0  0  0  0  0  0  0
   -1.1217   -0.6733   -2.6683 S   0  0  0  0  0  0  0  0  0  0  0  0
   -0.1858   -1.9672   -1.8129 C   0  0  0  0  0  0  0  0  0  0  0  0
   -0.3517   -1.8913   -0.7379 H   0  0  0  0  0  0  0  0  0  0  0  0
   -0.5212   -2.9451   -2.1597 H   0  0  0  0  0  0  0  0  0  0  0  0
    0.8772   -1.8555   -2.0281 H   0  0  0  0  0  0  0  0  0  0  0  0
   -0.1711   -0.0594    1.8296 C   0  0  0  0  0  0  0  0  0  0  0  0
    0.9865   -0.2908    2.1726 O   0  0  0  0  0  0  0  0  0  0  0  0
   -1.0921    0.4156    2.6780 N   0  0  0  0  0  0  0  0  0  0  0  0
   -2.0168    0.5953    2.3206 H   0  0  0  0  0  0  0  0  0  0  0  0
   -0.8319    0.7034    4.0877 C   0  0  0  0  0  0  0  0  0  0  0  0
   -0.0192    1.4288    4.1710 H   0  0  0  0  0  0  0  0  0  0  0  0
   -1.7255    1.1088    4.5641 H   0  0  0  0  0  0  0  0  0  0  0  0
   -0.5319   -0.2118    4.6011 H   0  0  0  0  0  0  0  0  0  0  0  0
  5  6  2  0  0  0  0
  5  7  1  0  0  0  0
  2  3  1  0  0  0  0
  2  4  1  0  0  0  0
  2  5  1  0  0  0  0
  1  2  1  0  0  0  0
 22 23  2  0  0  0  0
 22 24  1  0  0  0  0
 18 19  1  0  0  0  0
 18 20  1  0  0  0  0
 18 21  1  0  0  0  0
 17 18  1  0  0  0  0
 14 15  1  0  0  0  0
 14 16  1  0  0  0  0
 14 17  1  0  0  0  0
 11 12  1  0  0  0  0
 11 13  1  0  0  0  0
 11 14  1  0  0  0  0
  9 10  1  0  0  0  0
  9 11  1  0  0  0  0
  9 22  1  0  0  0  0
  7  8  1  0  0  0  0
  7  9  1  0  0  0  0
 26 27  1  0  0  0  0
 26 28  1  0  0  0  0
 26 29  1  0  0  0  0
 24 25  1  0  0  0  0
 24 26  1  0  0  0  0
M  END
$$$$
default_name
  -OEChem-02102213163D

 29 28  0     1  0  0  0  0  0999 V2000
   -3.5781   -3.7296    1.2702 H   0  0  0  0  0  0  0  0  0  0  0  0
   -3.5311   -2.7616    0.7732 C   0  0  0  0  0  0  0  0  0  0  0  0
   -4.2371   -2.0766    1.2382 H   0  0  0  0  0  0  0  0  0  0  0  0
   -3.7681   -2.8816   -0.2818 H   0  0  0  0  0  0  0  0  0  0  0  0
   -2.1321   -2.2086    0.9112 C   0  0  0  0  0  0  0  0  0  0  0  0
   -1.2751   -2.8426    1.5112 O   0  0  0  0  0  0  0  0  0  0  0  0
   -1.9041   -1.0186    0.3602 N   0  0  0  0  0  0  0  0  0  0  0  0
   -2.6671   -0.5416   -0.0988 H   0  0  0  0  0  0  0  0  0  0  0  0
   -0.6131   -0.3236    0.3832 C   0  0  1  0  0  0  0  0  0  0  0  0
    0.1346   -0.9625   -0.0894 H   0  0  0  0  0  0  0  0  0  0  0  0
   -0.7253    0.9751   -0.4365 C   0  0  0  0  0  0  0  0  0  0  0  0
   -1.7503    1.3456   -0.3685 H   0  0  0  0  0  0  0  0  0  0  0  0
   -0.0615    1.7284   -0.0098 H   0  0  0  0  0  0  0  0  0  0  0  0
   -0.3750    0.7962   -1.9182 C   0  0  0  0  0  0  0  0  0  0  0  0
   -0.4657    1.7562   -2.4254 H   0  0  0  0  0  0  0  0  0  0  0  0
    0.6580    0.4552   -1.9952 H   0  0  0  0  0  0  0  0  0  0  0  0
   -1.4356   -0.3950   -2.7761 S   0  0  0  0  0  0  0  0  0  0  0  0
   -0.8847   -1.9277   -1.9829 C   0  0  0  0  0  0  0  0  0  0  0  0
   -1.0668   -1.8721   -0.9093 H   0  0  0  0  0  0  0  0  0  0  0  0
   -1.4398   -2.7693   -2.3981 H   0  0  0  0  0  0  0  0  0  0  0  0
    0.1800   -2.0747   -2.1664 H   0  0  0  0  0  0  0  0  0  0  0  0
   -0.1711   -0.0594    1.8296 C   0  0  0  0  0  0  0  0  0  0  0  0
    0.9865   -0.2908    2.1726 O   0  0  0  0  0  0  0  0  0  0  0  0
   -1.0921    0.4156    2.6780 N   0  0  0  0  0  0  0  0  0  0  0  0
   -2.0168    0.5953    2.3206 H   0  0  0  0  0  0  0  0  0  0  0  0
   -0.8319    0.7034    4.0877 C   0  0  0  0  0  0  0  0  0  0  0  0
   -0.0192    1.4288    4.1710 H   0  0  0  0  0  0  0  0  0  0  0  0
   -1.7255    1.1088    4.5641 H   0  0  0  0  0  0  0  0  0  0  0  0
   -0.5319   -0.2118    4.6011 H   0  0  0  0  0  0  0  0  0  0  0  0
  5  6  2  0  0  0  0
  5  7  1  0  0  0  0
  2  3  1  0  0  0  0
  2  4  1  0  0  0  0
  2  5  1  0  0  0  0
  1  2  1  0  0  0  0
 22 23  2  0  0  0  0
 22 24  1  0  0  0  0
 18 19  1  0  0  0  0
 18 20  1  0  0  0  0
 18 21  1  0  0  0  0
 17 18  1  0  0  0  0
 14 15  1  0  0  0  0
 14 16  1  0  0  0  0
 14 17  1  0  0  0  0
 11 12  1  0  0  0  0
 11 13  1  0  0  0  0
 11 14  1  0  0  0  0
  9 10  1  0  0  0  0
  9 11  1  0  0  0  0
  9 22  1  0  0  0  0
  7  8  1  0  0  0  0
  7  9  1  0  0  0  0
 26 27  1  0  0  0  0
 26 28  1  0  0  0  0
 26 29  1  0  0  0  0
 24 25  1  0  0  0  0
 24 26  1  0  0  0  0
M  END
$$$$
default_name
  -OEChem-02102213163D

 29 28  0     1  0  0  0  0  0999 V2000
   -3.5781   -3.7296    1.2702 H   0  0  0  0  0  0  0  0  0  0  0  0
   -3.5311   -2.7616    0.7732 C   0  0  0  0  0  0  0  0  0  0  0  0
   -4.2371   -2.0766    1.2382 H   0  0  0  0  0  0  0  0  0  0  0  0
   -3.7681   -2.8816   -0.2818 H   0  0  0  0  0  0  0  0  0  0  0  0
   -2.1321   -2.2086    0.9112 C   0  0  0  0  0  0  0  0  0  0  0  0
   -1.2751   -2.8426    1.5112 O   0  0  0  0  0  0  0  0  0  0  0  0
   -1.9041   -1.0186    0.3602 N   0  0  0  0  0  0  0  0  0  0  0  0
   -2.6671   -0.5416   -0.0988 H   0  0  0  0  0  0  0  0  0  0  0  0
   -0.6131   -0.3236    0.3832 C   0  0  1  0  0  0  0  0  0  0  0  0
    0.1346   -0.9625   -0.0894 H   0  0  0  0  0  0  0  0  0  0  0  0
   -0.7253    0.9751   -0.4365 C   0  0  0  0  0  0  0  0  0  0  0  0
   -1.7503    1.3456   -0.3685 H   0  0  0  0  0  0  0  0  0  0  0  0
   -0.0615    1.7284   -0.0098 H   0  0  0  0  0  0  0  0  0  0  0  0
   -0.3750    0.7962   -1.9182 C   0  0  0  0  0  0  0  0  0  0  0  0
   -0.2044    1.7748   -2.3658 H   0  0  0  0  0  0  0  0  0  0  0  0
    0.5426    0.2115   -1.9931 H   0  0  0  0  0  0  0  0  0  0  0  0
   -1.6659   -0.0412   -2.8733 S   0  0  0  0  0  0  0  0  0  0  0  0
   -1.5447   -1.7046   -2.1659 C   0  0  0  0  0  0  0  0  0  0  0  0
   -1.7476   -1.6645   -1.0953 H   0  0  0  0  0  0  0  0  0  0  0  0
   -2.2760   -2.3556   -2.6458 H   0  0  0  0  0  0  0  0  0  0  0  0
   -0.5441   -2.1039   -2.3341 H   0  0  0  0  0  0  0  0  0  0  0  0
   -0.1711   -0.0594    1.8296 C   0  0  0  0  0  0  0  0  0  0  0  0
    0.9865   -0.2908    2.1726 O   0  0  0  0  0  0  0  0  0  0  0  0
   -1.0921    0.4156    2.6780 N   0  0  0  0  0  0  0  0  0  0  0  0
   -2.0168    0.5953    2.3206 H   0  0  0  0  0  0  0  0  0  0  0  0
   -0.8319    0.7034    4.0877 C   0  0  0  0  0  0  0  0  0  0  0  0
   -0.0192    1.4288    4.1710 H   0  0  0  0  0  0  0  0  0  0  0  0
   -1.7255    1.1088    4.5641 H   0  0  0  0  0  0  0  0  0  0  0  0
   -0.5319   -0.2118    4.6011 H   0  0  0  0  0  0  0  0  0  0  0  0
  5  6  2  0  0  0  0
  5  7  1  0  0  0  0
  2  3  1  0  0  0  0
  2  4  1  0  0  0  0
  2  5  1  0  0  0  0
  1  2  1  0  0  0  0
 22 23  2  0  0  0  0
 22 24  1  0  0  0  0
 18 19  1  0  0  0  0
 18 20  1  0  0  0  0
 18 21  1  0  0  0  0
 17 18  1  0  0  0  0
 14 15  1  0  0  0  0
 14 16  1  0  0  0  0
 14 17  1  0  0  0  0
 11 12  1  0  0  0  0
 11 13  1  0  0  0  0
 11 14  1  0  0  0  0
  9 10  1  0  0  0  0
  9 11  1  0  0  0  0
  9 22  1  0  0  0  0
  7  8  1  0  0  0  0
  7  9  1  0  0  0  0
 26 27  1  0  0  0  0
 26 28  1  0  0  0  0
 26 29  1  0  0  0  0
 24 25  1  0  0  0  0
 24 26  1  0  0  0  0
M  END
$$$$
default_name
  -OEChem-02102213163D

 29 28  0     1  0  0  0  0  0999 V2000
   -3.5781   -3.7296    1.2702 H   0  0  0  0  0  0  0  0  0  0  0  0
   -3.5311   -2.7616    0.7732 C   0  0  0  0  0  0  0  0  0  0  0  0
   -4.2371   -2.0766    1.2382 H   0  0  0  0  0  0  0  0  0  0  0  0
   -3.7681   -2.8816   -0.2818 H   0  0  0  0  0  0  0  0  0  0  0  0
   -2.1321   -2.2086    0.9112 C   0  0  0  0  0  0  0  0  0  0  0  0
   -1.2751   -2.8426    1.5112 O   0  0  0  0  0  0  0  0  0  0  0  0
   -1.9041   -1.0186    0.3602 N   0  0  0  0  0  0  0  0  0  0  0  0
   -2.6671   -0.5416   -0.0988 H   0  0  0  0  0  0  0  0  0  0  0  0
   -0.6131   -0.3236    0.3832 C   0  0  1  0  0  0  0  0  0  0  0  0
    0.1346   -0.9625   -0.0894 H   0  0  0  0  0  0  0  0  0  0  0  0
   -0.7253    0.9751   -0.4365 C   0  0  0  0  0  0  0  0  0  0  0  0
   -1.7503    1.3456   -0.3685 H   0  0  0  0  0  0  0  0  0  0  0  0
   -0.0615    1.7284   -0.0098 H   0  0  0  0  0  0  0  0  0  0  0  0
   -0.3750    0.7962   -1.9182 C   0  0  0  0  0  0  0  0  0  0  0  0
    0.0509    1.7238   -2.2993 H   0  0  0  0  0  0  0  0  0  0  0  0
    0.3701    0.0049   -2.0089 H   0  0  0  0  0  0  0  0  0  0  0  0
   -1.7969    0.3638   -2.9531 S   0  0  0  0  0  0  0  0  0  0  0  0
   -2.1209   -1.3132   -2.3494 C   0  0  0  0  0  0  0  0  0  0  0  0
   -2.3476   -1.2827   -1.2832 H   0  0  0  0  0  0  0  0  0  0  0  0
   -2.9727   -1.7321   -2.8857 H   0  0  0  0  0  0  0  0  0  0  0  0
   -1.2458   -1.9409   -2.5197 H   0  0  0  0  0  0  0  0  0  0  0  0
   -0.1711   -0.0594    1.8296 C   0  0  0  0  0  0  0  0  0  0  0  0
    0.9865   -0.2908    2.1726 O   0  0  0  0  0  0  0  0  0  0  0  0
   -1.0921    0.4156    2.6780 N   0  0  0  0  0  0  0  0  0  0  0  0
   -2.0168    0.5953    2.3206 H   0  0  0  0  0  0  0  0  0  0  0  0
   -0.8319    0.7034    4.0877 C   0  0  0  0  0  0  0  0  0  0  0  0
   -0.0192    1.4288    4.1710 H   0  0  0  0  0  0  0  0  0  0  0  0
   -1.7255    1.1088    4.5641 H   0  0  0  0  0  0  0  0  0  0  0  0
   -0.5319   -0.2118    4.6011 H   0  0  0  0  0  0  0  0  0  0  0  0
  5  6  2  0  0  0  0
  5  7  1  0  0  0  0
  2  3  1  0  0  0  0
  2  4  1  0  0  0  0
  2  5  1  0  0  0  0
  1  2  1  0  0  0  0
 22 23  2  0  0  0  0
 22 24  1  0  0  0  0
 18 19  1  0  0  0  0
 18 20  1  0  0  0  0
 18 21  1  0  0  0  0
 17 18  1  0  0  0  0
 14 15  1  0  0  0  0
 14 16  1  0  0  0  0
 14 17  1  0  0  0  0
 11 12  1  0  0  0  0
 11 13  1  0  0  0  0
 11 14  1  0  0  0  0
  9 10  1  0  0  0  0
  9 11  1  0  0  0  0
  9 22  1  0  0  0  0
  7  8  1  0  0  0  0
  7  9  1  0  0  0  0
 26 27  1  0  0  0  0
 26 28  1  0  0  0  0
 26 29  1  0  0  0  0
 24 25  1  0  0  0  0
 24 26  1  0  0  0  0
M  END
$$$$
default_name
  -OEChem-02102213163D

 29 28  0     1  0  0  0  0  0999 V2000
   -3.5781   -3.7296    1.2702 H   0  0  0  0  0  0  0  0  0  0  0  0
   -3.5311   -2.7616    0.7732 C   0  0  0  0  0  0  0  0  0  0  0  0
   -4.2371   -2.0766    1.2382 H   0  0  0  0  0  0  0  0  0  0  0  0
   -3.7681   -2.8816   -0.2818 H   0  0  0  0  0  0  0  0  0  0  0  0
   -2.1321   -2.2086    0.9112 C   0  0  0  0  0  0  0  0  0  0  0  0
   -1.2751   -2.8426    1.5112 O   0  0  0  0  0  0  0  0  0  0  0  0
   -1.9041   -1.0186    0.3602 N   0  0  0  0  0  0  0  0  0  0  0  0
   -2.6671   -0.5416   -0.0988 H   0  0  0  0  0  0  0  0  0  0  0  0
   -0.6131   -0.3236    0.3832 C   0  0  1  0  0  0  0  0  0  0  0  0
    0.1346   -0.9625   -0.0894 H   0  0  0  0  0  0  0  0  0  0  0  0
   -0.7253    0.9751   -0.4365 C   0  0  0  0  0  0  0  0  0  0  0  0
   -1.7503    1.3456   -0.3685 H   0  0  0  0  0  0  0  0  0  0  0  0
   -0.0615    1.7284   -0.0098 H   0  0  0  0  0  0  0  0  0  0  0  0
   -0.3750    0.7962   -1.9182 C   0  0  0  0  0  0  0  0  0  0  0  0
    0.2827    1.6068   -2.2304 H   0  0  0  0  0  0  0  0  0  0  0  0
    0.1522   -0.1505   -2.0416 H   0  0  0  0  0  0  0  0  0  0  0  0
   -1.8197    0.7925   -3.0103 S   0  0  0  0  0  0  0  0  0  0  0  0
   -2.5740   -0.7801   -2.5208 C   0  0  0  0  0  0  0  0  0  0  0  0
   -2.8260   -0.7527   -1.4603 H   0  0  0  0  0  0  0  0  0  0  0  0
   -3.4825   -0.9415   -3.1017 H   0  0  0  0  0  0  0  0  0  0  0  0
   -1.8772   -1.5971   -2.7105 H   0  0  0  0  0  0  0  0  0  0  0  0
   -0.1711   -0.0594    1.8296 C   0  0  0  0  0  0  0  0  0  0  0  0
    0.9865   -0.2908    2.1726 O   0  0  0  0  0  0  0  0  0  0  0  0
   -1.0921    0.4156    2.6780 N   0  0  0  0  0  0  0  0  0  0  0  0
   -2.0168    0.5953    2.3206 H   0  0  0  0  0  0  0  0  0  0  0  0
   -0.8319    0.7034    4.0877 C   0  0  0  0  0  0  0  0  0  0  0  0
   -0.0192    1.4288    4.1710 H   0  0  0  0  0  0  0  0  0  0  0  0
   -1.7255    1.1088    4.5641 H   0  0  0  0  0  0  0  0  0  0  0  0
   -0.5319   -0.2118    4.6011 H   0  0  0  0  0  0  0  0  0  0  0  0
  5  6  2  0  0  0  0
  5  7  1  0  0  0  0
  2  3  1  0  0  0  0
  2  4  1  0  0  0  0
  2  5  1  0  0  0  0
  1  2  1  0  0  0  0
 22 23  2  0  0  0  0
 22 24  1  0  0  0  0
 18 19  1  0  0  0  0
 18 20  1  0  0  0  0
 18 21  1  0  0  0  0
 17 18  1  0  0  0  0
 14 15  1  0  0  0  0
 14 16  1  0  0  0  0
 14 17  1  0  0  0  0
 11 12  1  0  0  0  0
 11 13  1  0  0  0  0
 11 14  1  0  0  0  0
  9 10  1  0  0  0  0
  9 11  1  0  0  0  0
  9 22  1  0  0  0  0
  7  8  1  0  0  0  0
  7  9  1  0  0  0  0
 26 27  1  0  0  0  0
 26 28  1  0  0  0  0
 26 29  1  0  0  0  0
 24 25  1  0  0  0  0
 24 26  1  0  0  0  0
M  END
$$$$
default_name
  -OEChem-02102213163D

 29 28  0     1  0  0  0  0  0999 V2000
   -3.5781   -3.7296    1.2702 H   0  0  0  0  0  0  0  0  0  0  0  0
   -3.5311   -2.7616    0.7732 C   0  0  0  0  0  0  0  0  0  0  0  0
   -4.2371   -2.0766    1.2382 H   0  0  0  0  0  0  0  0  0  0  0  0
   -3.7681   -2.8816   -0.2818 H   0  0  0  0  0  0  0  0  0  0  0  0
   -2.1321   -2.2086    0.9112 C   0  0  0  0  0  0  0  0  0  0  0  0
   -1.2751   -2.8426    1.5112 O   0  0  0  0  0  0  0  0  0  0  0  0
   -1.9041   -1.0186    0.3602 N   0  0  0  0  0  0  0  0  0  0  0  0
   -2.6671   -0.5416   -0.0988 H   0  0  0  0  0  0  0  0  0  0  0  0
   -0.6131   -0.3236    0.3832 C   0  0  1  0  0  0  0  0  0  0  0  0
    0.1346   -0.9625   -0.0894 H   0  0  0  0  0  0  0  0  0  0  0  0
   -0.7253    0.9751   -0.4365 C   0  0  0  0  0  0  0  0  0  0  0  0
   -1.7503    1.3456   -0.3685 H   0  0  0  0  0  0  0  0  0  0  0  0
   -0.0615    1.7284   -0.0098 H   0  0  0  0  0  0  0  0  0  0  0  0
   -0.3750    0.7962   -1.9182 C   0  0  0  0  0  0  0  0  0  0  0  0
    0.4753    1.4316   -2.1637 H   0  0  0  0  0  0  0  0  0  0  0  0
   -0.0961   -0.2443   -2.0890 H   0  0  0  0  0  0  0  0  0  0  0  0
   -1.7327    1.2157   -3.0408 S   0  0  0  0  0  0  0  0  0  0  0  0
   -2.8731   -0.1417   -2.6686 C   0  0  0  0  0  0  0  0  0  0  0  0
   -3.1502   -0.1106   -1.6145 H   0  0  0  0  0  0  0  0  0  0  0  0
   -3.7706   -0.0375   -3.2790 H   0  0  0  0  0  0  0  0  0  0  0  0
   -2.3953   -1.0957   -2.8935 H   0  0  0  0  0  0  0  0  0  0  0  0
   -0.1711   -0.0594    1.8296 C   0  0  0  0  0  0  0  0  0  0  0  0
    0.9865   -0.2908    2.1726 O   0  0  0  0  0  0  0  0  0  0  0  0
   -1.0921    0.4156    2.6780 N   0  0  0  0  0  0  0  0  0  0  0  0
   -2.0168    0.5953    2.3206 H   0  0  0  0  0  0  0  0  0  0  0  0
   -0.8319    0.7034    4.0877 C   0  0  0  0  0  0  0  0  0  0  0  0
   -0.0192    1.4288    4.1710 H   0  0  0  0  0  0  0  0  0  0  0  0
   -1.7255    1.1088    4.5641 H   0  0  0  0  0  0  0  0  0  0  0  0
   -0.5319   -0.2118    4.6011 H   0  0  0  0  0  0  0  0  0  0  0  0
  5  6  2  0  0  0  0
  5  7  1  0  0  0  0
  2  3  1  0  0  0  0
  2  4  1  0  0  0  0
  2  5  1  0  0  0  0
  1  2  1  0  0  0  0
 22 23  2  0  0  0  0
 22 24  1  0  0  0  0
 18 19  1  0  0  0  0
 18 20  1  0  0  0  0
 18 21  1  0  0  0  0
 17 18  1  0  0  0  0
 14 15  1  0  0  0  0
 14 16  1  0  0  0  0
 14 17  1  0  0  0  0
 11 12  1  0  0  0  0
 11 13  1  0  0  0  0
 11 14  1  0  0  0  0
  9 10  1  0  0  0  0
  9 11  1  0  0  0  0
  9 22  1  0  0  0  0
  7  8  1  0  0  0  0
  7  9  1  0  0  0  0
 26 27  1  0  0  0  0
 26 28  1  0  0  0  0
 26 29  1  0  0  0  0
 24 25  1  0  0  0  0
 24 26  1  0  0  0  0
M  END
$$$$
default_name
  -OEChem-02102213163D

 29 28  0     1  0  0  0  0  0999 V2000
   -3.5781   -3.7296    1.2702 H   0  0  0  0  0  0  0  0  0  0  0  0
   -3.5311   -2.7616    0.7732 C   0  0  0  0  0  0  0  0  0  0  0  0
   -4.2371   -2.0766    1.2382 H   0  0  0  0  0  0  0  0  0  0  0  0
   -3.7681   -2.8816   -0.2818 H   0  0  0  0  0  0  0  0  0  0  0  0
   -2.1321   -2.2086    0.9112 C   0  0  0  0  0  0  0  0  0  0  0  0
   -1.2751   -2.8426    1.5112 O   0  0  0  0  0  0  0  0  0  0  0  0
   -1.9041   -1.0186    0.3602 N   0  0  0  0  0  0  0  0  0  0  0  0
   -2.6671   -0.5416   -0.0988 H   0  0  0  0  0  0  0  0  0  0  0  0
   -0.6131   -0.3236    0.3832 C   0  0  1  0  0  0  0  0  0  0  0  0
    0.1346   -0.9625   -0.0894 H   0  0  0  0  0  0  0  0  0  0  0  0
   -0.7253    0.9751   -0.4365 C   0  0  0  0  0  0  0  0  0  0  0  0
   -1.7503    1.3456   -0.3685 H   0  0  0  0  0  0  0  0  0  0  0  0
   -0.0615    1.7284   -0.0098 H   0  0  0  0  0  0  0  0  0  0  0  0
   -0.3750    0.7962   -1.9182 C   0  0  0  0  0  0  0  0  0  0  0  0
    0.6155    1.2104   -2.1038 H   0  0  0  0  0  0  0  0  0  0  0  0
   -0.3580   -0.2699   -2.1479 H   0  0  0  0  0  0  0  0  0  0  0  0
   -1.5419    1.6046   -3.0427 S   0  0  0  0  0  0  0  0  0  0  0  0
   -2.9979    0.5585   -2.7827 C   0  0  0  0  0  0  0  0  0  0  0  0
   -3.2980    0.5998   -1.7352 H   0  0  0  0  0  0  0  0  0  0  0  0
   -3.8173    0.9183   -3.4054 H   0  0  0  0  0  0  0  0  0  0  0  0
   -2.7647   -0.4710   -3.0563 H   0  0  0  0  0  0  0  0  0  0  0  0
   -0.1711   -0.0594    1.8296 C   0  0  0  0  0  0  0  0  0  0  0  0
    0.9865   -0.2908    2.1726 O   0  0  0  0  0  0  0  0  0  0  0  0
   -1.0921    0.4156    2.6780 N   0  0  0  0  0  0  0  0  0  0  0  0
   -2.0168    0.5953    2.3206 H   0  0  0  0  0  0  0  0  0  0  0  0
   -0.8319    0.7034    4.0877 C   0  0  0  0  0  0  0  0  0  0  0  0
   -0.0192    1.4288    4.1710 H   0  0  0  0  0  0  0  0  0  0  0  0
   -1.7255    1.1088    4.5641 H   0  0  0  0  0  0  0  0  0  0  0  0
   -0.5319   -0.2118    4.6011 H   0  0  0  0  0  0  0  0  0  0  0  0
  5  6  2  0  0  0  0
  5  7  1  0  0  0  0
  2  3  1  0  0  0  0
  2  4  1  0  0  0  0
  2  5  1  0  0  0  0
  1  2  1  0  0  0  0
 22 23  2  0  0  0  0
 22 24  1  0  0  0  0
 18 19  1  0  0  0  0
 18 20  1  0  0  0  0
 18 21  1  0  0  0  0
 17 18  1  0  0  0  0
 14 15  1  0  0  0  0
 14 16  1  0  0  0  0
 14 17  1  0  0  0  0
 11 12  1  0  0  0  0
 11 13  1  0  0  0  0
 11 14  1  0  0  0  0
  9 10  1  0  0  0  0
  9 11  1  0  0  0  0
  9 22  1  0  0  0  0
  7  8  1  0  0  0  0
  7  9  1  0  0  0  0
 26 27  1  0  0  0  0
 26 28  1  0  0  0  0
 26 29  1  0  0  0  0
 24 25  1  0  0  0  0
 24 26  1  0  0  0  0
M  END
$$$$
default_name
  -OEChem-02102213163D

 29 28  0     1  0  0  0  0  0999 V2000
   -3.5781   -3.7296    1.2702 H   0  0  0  0  0  0  0  0  0  0  0  0
   -3.5311   -2.7616    0.7732 C   0  0  0  0  0  0  0  0  0  0  0  0
   -4.2371   -2.0766    1.2382 H   0  0  0  0  0  0  0  0  0  0  0  0
   -3.7681   -2.8816   -0.2818 H   0  0  0  0  0  0  0  0  0  0  0  0
   -2.1321   -2.2086    0.9112 C   0  0  0  0  0  0  0  0  0  0  0  0
   -1.2751   -2.8426    1.5112 O   0  0  0  0  0  0  0  0  0  0  0  0
   -1.9041   -1.0186    0.3602 N   0  0  0  0  0  0  0  0  0  0  0  0
   -2.6671   -0.5416   -0.0988 H   0  0  0  0  0  0  0  0  0  0  0  0
   -0.6131   -0.3236    0.3832 C   0  0  1  0  0  0  0  0  0  0  0  0
    0.1346   -0.9625   -0.0894 H   0  0  0  0  0  0  0  0  0  0  0  0
   -0.7253    0.9751   -0.4365 C   0  0  0  0  0  0  0  0  0  0  0  0
   -1.7503    1.3456   -0.3685 H   0  0  0  0  0  0  0  0  0  0  0  0
   -0.0615    1.7284   -0.0098 H   0  0  0  0  0  0  0  0  0  0  0  0
   -0.3750    0.7962   -1.9182 C   0  0  0  0  0  0  0  0  0  0  0  0
    0.6938    0.9580   -2.0549 H   0  0  0  0  0  0  0  0  0  0  0  0
   -0.6156   -0.2256   -2.2141 H   0  0  0  0  0  0  0  0  0  0  0  0
   -1.2603    1.9326   -3.0157 S   0  0  0  0  0  0  0  0  0  0  0  0
   -2.9398    1.2727   -2.8552 C   0  0  0  0  0  0  0  0  0  0  0  0
   -3.2595    1.3302   -1.8143 H   0  0  0  0  0  0  0  0  0  0  0  0
   -3.6196    1.8607   -3.4725 H   0  0  0  0  0  0  0  0  0  0  0  0
   -2.9605    0.2345   -3.1877 H   0  0  0  0  0  0  0  0  0  0  0  0
   -0.1711   -0.0594    1.8296 C   0  0  0  0  0  0  0  0  0  0  0  0
    0.9865   -0.2908    2.1726 O   0  0  0  0  0  0  0  0  0  0  0  0
   -1.0921    0.4156    2.6780 N   0  0  0  0  0  0  0  0  0  0  0  0
   -2.0168    0.5953    2.3206 H   0  0  0  0  0  0  0  0  0  0  0  0
   -0.8319    0.7034    4.0877 C   0  0  0  0  0  0  0  0  0  0  0  0
   -0.0192    1.4288    4.1710 H   0  0  0  0  0  0  0  0  0  0  0  0
   -1.7255    1.1088    4.5641 H   0  0  0  0  0  0  0  0  0  0  0  0
   -0.5319   -0.2118    4.6011 H   0  0  0  0  0  0  0  0  0  0  0  0
  5  6  2  0  0  0  0
  5  7  1  0  0  0  0
  2  3  1  0  0  0  0
  2  4  1  0  0  0  0
  2  5  1  0  0  0  0
  1  2  1  0  0  0  0
 22 23  2  0  0  0  0
 22 24  1  0  0  0  0
 18 19  1  0  0  0  0
 18 20  1  0  0  0  0
 18 21  1  0  0  0  0
 17 18  1  0  0  0  0
 14 15  1  0  0  0  0
 14 16  1  0  0  0  0
 14 17  1  0  0  0  0
 11 12  1  0  0  0  0
 11 13  1  0  0  0  0
 11 14  1  0  0  0  0
  9 10  1  0  0  0  0
  9 11  1  0  0  0  0
  9 22  1  0  0  0  0
  7  8  1  0  0  0  0
  7  9  1  0  0  0  0
 26 27  1  0  0  0  0
 26 28  1  0  0  0  0
 26 29  1  0  0  0  0
 24 25  1  0  0  0  0
 24 26  1  0  0  0  0
M  END
$$$$
default_name
  -OEChem-02102213163D

 29 28  0     1  0  0  0  0  0999 V2000
   -3.5781   -3.7296    1.2702 H   0  0  0  0  0  0  0  0  0  0  0  0
   -3.5311   -2.7616    0.7732 C   0  0  0  0  0  0  0  0  0  0  0  0
   -4.2371   -2.0766    1.2382 H   0  0  0  0  0  0  0  0  0  0  0  0
   -3.7681   -2.8816   -0.2818 H   0  0  0  0  0  0  0  0  0  0  0  0
   -2.1321   -2.2086    0.9112 C   0  0  0  0  0  0  0  0  0  0  0  0
   -1.2751   -2.8426    1.5112 O   0  0  0  0  0  0  0  0  0  0  0  0
   -1.9041   -1.0186    0.3602 N   0  0  0  0  0  0  0  0  0  0  0  0
   -2.6671   -0.5416   -0.0988 H   0  0  0  0  0  0  0  0  0  0  0  0
   -0.6131   -0.3236    0.3832 C   0  0  1  0  0  0  0  0  0  0  0  0
    0.1346   -0.9625   -0.0894 H   0  0  0  0  0  0  0  0  0  0  0  0
   -0.7253    0.9751   -0.4365 C   0  0  0  0  0  0  0  0  0  0  0  0
   -1.7503    1.3456   -0.3685 H   0  0  0  0  0  0  0  0  0  0  0  0
   -0.0615    1.7284   -0.0098 H   0  0  0  0  0  0  0  0  0  0  0  0
   -0.3750    0.7962   -1.9182 C   0  0  0  0  0  0  0  0  0  0  0  0
    0.7047    0.6918   -2.0201 H   0  0  0  0  0  0  0  0  0  0  0  0
   -0.8513   -0.1145   -2.2832 H   0  0  0  0  0  0  0  0  0  0  0  0
   -0.9071    2.1773   -2.9617 S   0  0  0  0  0  0  0  0  0  0  0  0
   -2.7028    1.9525   -2.8812 C   0  0  0  0  0  0  0  0  0  0  0  0
   -3.0371    2.0307   -1.8463 H   0  0  0  0  0  0  0  0  0  0  0  0
   -3.1908    2.7254   -3.4755 H   0  0  0  0  0  0  0  0  0  0  0  0
   -2.9690    0.9727   -3.2789 H   0  0  0  0  0  0  0  0  0  0  0  0
   -0.1711   -0.0594    1.8296 C   0  0  0  0  0  0  0  0  0  0  0  0
    0.9865   -0.2908    2.1726 O   0  0  0  0  0  0  0  0  0  0  0  0
   -1.0921    0.4156    2.6780 N   0  0  0  0  0  0  0  0  0  0  0  0
   -2.0168    0.5953    2.3206 H   0  0  0  0  0  0  0  0  0  0  0  0
   -0.8319    0.7034    4.0877 C   0  0  0  0  0  0  0  0  0  0  0  0
   -0.0192    1.4288    4.1710 H   0  0  0  0  0  0  0  0  0  0  0  0
   -1.7255    1.1088    4.5641 H   0  0  0  0  0  0  0  0  0  0  0  0
   -0.5319   -0.2118    4.6011 H   0  0  0  0  0  0  0  0  0  0  0  0
  5  6  2  0  0  0  0
  5  7  1  0  0  0  0
  2  3  1  0  0  0  0
  2  4  1  0  0  0  0
  2  5  1  0  0  0  0
  1  2  1  0  0  0  0
 22 23  2  0  0  0  0
 22 24  1  0  0  0  0
 18 19  1  0  0  0  0
 18 20  1  0  0  0  0
 18 21  1  0  0  0  0
 17 18  1  0  0  0  0
 14 15  1  0  0  0  0
 14 16  1  0  0  0  0
 14 17  1  0  0  0  0
 11 12  1  0  0  0  0
 11 13  1  0  0  0  0
 11 14  1  0  0  0  0
  9 10  1  0  0  0  0
  9 11  1  0  0  0  0
  9 22  1  0  0  0  0
  7  8  1  0  0  0  0
  7  9  1  0  0  0  0
 26 27  1  0  0  0  0
 26 28  1  0  0  0  0
 26 29  1  0  0  0  0
 24 25  1  0  0  0  0
 24 26  1  0  0  0  0
M  END
$$$$
default_name
  -OEChem-02102213163D

 29 28  0     1  0  0  0  0  0999 V2000
   -3.5781   -3.7296    1.2702 H   0  0  0  0  0  0  0  0  0  0  0  0
   -3.5311   -2.7616    0.7732 C   0  0  0  0  0  0  0  0  0  0  0  0
   -4.2371   -2.0766    1.2382 H   0  0  0  0  0  0  0  0  0  0  0  0
   -3.7681   -2.8816   -0.2818 H   0  0  0  0  0  0  0  0  0  0  0  0
   -2.1321   -2.2086    0.9112 C   0  0  0  0  0  0  0  0  0  0  0  0
   -1.2751   -2.8426    1.5112 O   0  0  0  0  0  0  0  0  0  0  0  0
   -1.9041   -1.0186    0.3602 N   0  0  0  0  0  0  0  0  0  0  0  0
   -2.6671   -0.5416   -0.0988 H   0  0  0  0  0  0  0  0  0  0  0  0
   -0.6131   -0.3236    0.3832 C   0  0  1  0  0  0  0  0  0  0  0  0
    0.1346   -0.9625   -0.0894 H   0  0  0  0  0  0  0  0  0  0  0  0
   -0.7253    0.9751   -0.4365 C   0  0  0  0  0  0  0  0  0  0  0  0
   -1.6504    1.4856   -0.1604 H   0  0  0  0  0  0  0  0  0  0  0  0
    0.1119    1.6296   -0.1900 H   0  0  0  0  0  0  0  0  0  0  0  0
   -0.7366    0.7436   -1.9519 C   0  0  0  0  0  0  0  0  0  0  0  0
    0.1834    0.2376   -2.2430 H   0  0  0  0  0  0  0  0  0  0  0  0
   -1.5832    0.1034   -2.2022 H   0  0  0  0  0  0  0  0  0  0  0  0
   -0.8685    2.2696   -2.9183 S   0  0  0  0  0  0  0  0  0  0  0  0
   -2.5678    2.7478   -2.5114 C   0  0  0  0  0  0  0  0  0  0  0  0
   -2.6591    2.9008   -1.4357 H   0  0  0  0  0  0  0  0  0  0  0  0
   -2.8158    3.6753   -3.0282 H   0  0  0  0  0  0  0  0  0  0  0  0
   -3.2565    1.9647   -2.8296 H   0  0  0  0  0  0  0  0  0  0  0  0
   -0.1711   -0.0594    1.8296 C   0  0  0  0  0  0  0  0  0  0  0  0
    0.9865   -0.2908    2.1726 O   0  0  0  0  0  0  0  0  0  0  0  0
   -1.0921    0.4156    2.6780 N   0  0  0  0  0  0  0  0  0  0  0  0
   -2.0168    0.5953    2.3206 H   0  0  0  0  0  0  0  0  0  0  0  0
   -0.8319    0.7034    4.0877 C   0  0  0  0  0  0  0  0  0  0  0  0
   -0.0192    1.4288    4.1710 H   0  0  0  0  0  0  0  0  0  0  0  0
   -1.7255    1.1088    4.5641 H   0  0  0  0  0  0  0  0  0  0  0  0
   -0.5319   -0.2118    4.6011 H   0  0  0  0  0  0  0  0  0  0  0  0
  5  6  2  0  0  0  0
  5  7  1  0  0  0  0
  2  3  1  0  0  0  0
  2  4  1  0  0  0  0
  2  5  1  0  0  0  0
  1  2  1  0  0  0  0
 22 23  2  0  0  0  0
 22 24  1  0  0  0  0
 18 19  1  0  0  0  0
 18 20  1  0  0  0  0
 18 21  1  0  0  0  0
 17 18  1  0  0  0  0
 14 15  1  0  0  0  0
 14 16  1  0  0  0  0
 14 17  1  0  0  0  0
 11 12  1  0  0  0  0
 11 13  1  0  0  0  0
 11 14  1  0  0  0  0
  9 10  1  0  0  0  0
  9 11  1  0  0  0  0
  9 22  1  0  0  0  0
  7  8  1  0  0  0  0
  7  9  1  0  0  0  0
 26 27  1  0  0  0  0
 26 28  1  0  0  0  0
 26 29  1  0  0  0  0
 24 25  1  0  0  0  0
 24 26  1  0  0  0  0
M  END
$$$$
default_name
  -OEChem-02102213163D

 29 28  0     1  0  0  0  0  0999 V2000
   -3.5781   -3.7296    1.2702 H   0  0  0  0  0  0  0  0  0  0  0  0
   -3.5311   -2.7616    0.7732 C   0  0  0  0  0  0  0  0  0  0  0  0
   -4.2371   -2.0766    1.2382 H   0  0  0  0  0  0  0  0  0  0  0  0
   -3.7681   -2.8816   -0.2818 H   0  0  0  0  0  0  0  0  0  0  0  0
   -2.1321   -2.2086    0.9112 C   0  0  0  0  0  0  0  0  0  0  0  0
   -1.2751   -2.8426    1.5112 O   0  0  0  0  0  0  0  0  0  0  0  0
   -1.9041   -1.0186    0.3602 N   0  0  0  0  0  0  0  0  0  0  0  0
   -2.6671   -0.5416   -0.0988 H   0  0  0  0  0  0  0  0  0  0  0  0
   -0.6131   -0.3236    0.3832 C   0  0  1  0  0  0  0  0  0  0  0  0
    0.1346   -0.9625   -0.0894 H   0  0  0  0  0  0  0  0  0  0  0  0
   -0.7253    0.9751   -0.4365 C   0  0  0  0  0  0  0  0  0  0  0  0
   -1.6504    1.4856   -0.1604 H   0  0  0  0  0  0  0  0  0  0  0  0
    0.1119    1.6296   -0.1900 H   0  0  0  0  0  0  0  0  0  0  0  0
   -0.7366    0.7436   -1.9519 C   0  0  0  0  0  0  0  0  0  0  0  0
    0.0339    0.0171   -2.2082 H   0  0  0  0  0  0  0  0  0  0  0  0
   -1.7085    0.3395   -2.2373 H   0  0  0  0  0  0  0  0  0  0  0  0
   -0.4360    2.2457   -2.9178 S   0  0  0  0  0  0  0  0  0  0  0  0
   -1.9708    3.1456   -2.5766 C   0  0  0  0  0  0  0  0  0  0  0  0
   -2.0617    3.3244   -1.5048 H   0  0  0  0  0  0  0  0  0  0  0  0
   -1.9529    4.1021   -3.0998 H   0  0  0  0  0  0  0  0  0  0  0  0
   -2.8241    2.5626   -2.9241 H   0  0  0  0  0  0  0  0  0  0  0  0
   -0.1711   -0.0594    1.8296 C   0  0  0  0  0  0  0  0  0  0  0  0
    0.9865   -0.2908    2.1726 O   0  0  0  0  0  0  0  0  0  0  0  0
   -1.0921    0.4156    2.6780 N   0  0  0  0  0  0  0  0  0  0  0  0
   -2.0168    0.5953    2.3206 H   0  0  0  0  0  0  0  0  0  0  0  0
   -0.8319    0.7034    4.0877 C   0  0  0  0  0  0  0  0  0  0  0  0
   -0.0192    1.4288    4.1710 H   0  0  0  0  0  0  0  0  0  0  0  0
   -1.7255    1.1088    4.5641 H   0  0  0  0  0  0  0  0  0  0  0  0
   -0.5319   -0.2118    4.6011 H   0  0  0  0  0  0  0  0  0  0  0  0
  5  6  2  0  0  0  0
  5  7  1  0  0  0  0
  2  3  1  0  0  0  0
  2  4  1  0  0  0  0
  2  5  1  0  0  0  0
  1  2  1  0  0  0  0
 22 23  2  0  0  0  0
 22 24  1  0  0  0  0
 18 19  1  0  0  0  0
 18 20  1  0  0  0  0
 18 21  1  0  0  0  0
 17 18  1  0  0  0  0
 14 15  1  0  0  0  0
 14 16  1  0  0  0  0
 14 17  1  0  0  0  0
 11 12  1  0  0  0  0
 11 13  1  0  0  0  0
 11 14  1  0  0  0  0
  9 10  1  0  0  0  0
  9 11  1  0  0  0  0
  9 22  1  0  0  0  0
  7  8  1  0  0  0  0
  7  9  1  0  0  0  0
 26 27  1  0  0  0  0
 26 28  1  0  0  0  0
 26 29  1  0  0  0  0
 24 25  1  0  0  0  0
 24 26  1  0  0  0  0
M  END
$$$$
default_name
  -OEChem-02102213163D

 29 28  0     1  0  0  0  0  0999 V2000
   -3.5781   -3.7296    1.2702 H   0  0  0  0  0  0  0  0  0  0  0  0
   -3.5311   -2.7616    0.7732 C   0  0  0  0  0  0  0  0  0  0  0  0
   -4.2371   -2.0766    1.2382 H   0  0  0  0  0  0  0  0  0  0  0  0
   -3.7681   -2.8816   -0.2818 H   0  0  0  0  0  0  0  0  0  0  0  0
   -2.1321   -2.2086    0.9112 C   0  0  0  0  0  0  0  0  0  0  0  0
   -1.2751   -2.8426    1.5112 O   0  0  0  0  0  0  0  0  0  0  0  0
   -1.9041   -1.0186    0.3602 N   0  0  0  0  0  0  0  0  0  0  0  0
   -2.6671   -0.5416   -0.0988 H   0  0  0  0  0  0  0  0  0  0  0  0
   -0.6131   -0.3236    0.3832 C   0  0  1  0  0  0  0  0  0  0  0  0
    0.1346   -0.9625   -0.0894 H   0  0  0  0  0  0  0  0  0  0  0  0
   -0.7253    0.9751   -0.4365 C   0  0  0  0  0  0  0  0  0  0  0  0
   -1.6504    1.4856   -0.1604 H   0  0  0  0  0  0  0  0  0  0  0  0
    0.1119    1.6296   -0.1900 H   0  0  0  0  0  0  0  0  0  0  0  0
   -0.7366    0.7436   -1.9519 C   0  0  0  0  0  0  0  0  0  0  0  0
   -0.1683   -0.1576   -2.1801 H   0  0  0  0  0  0  0  0  0  0  0  0
   -1.7677    0.5996   -2.2766 H   0  0  0  0  0  0  0  0  0  0  0  0
   -0.0244    2.1121   -2.9005 S   0  0  0  0  0  0  0  0  0  0  0  0
   -1.2899    3.3770   -2.6170 C   0  0  0  0  0  0  0  0  0  0  0  0
   -1.3735    3.5805   -1.5490 H   0  0  0  0  0  0  0  0  0  0  0  0
   -1.0076    4.2934   -3.1360 H   0  0  0  0  0  0  0  0  0  0  0  0
   -2.2498    3.0292   -2.9997 H   0  0  0  0  0  0  0  0  0  0  0  0
   -0.1711   -0.0594    1.8296 C   0  0  0  0  0  0  0  0  0  0  0  0
    0.9865   -0.2908    2.1726 O   0  0  0  0  0  0  0  0  0  0  0  0
   -1.0921    0.4156    2.6780 N   0  0  0  0  0  0  0  0  0  0  0  0
   -2.0168    0.5953    2.3206 H   0  0  0  0  0  0  0  0  0  0  0  0
   -0.8319    0.7034    4.0877 C   0  0  0  0  0  0  0  0  0  0  0  0
   -0.0192    1.4288    4.1710 H   0  0  0  0  0  0  0  0  0  0  0  0
   -1.7255    1.1088    4.5641 H   0  0  0  0  0  0  0  0  0  0  0  0
   -0.5319   -0.2118    4.6011 H   0  0  0  0  0  0  0  0  0  0  0  0
  5  6  2  0  0  0  0
  5  7  1  0  0  0  0
  2  3  1  0  0  0  0
  2  4  1  0  0  0  0
  2  5  1  0  0  0  0
  1  2  1  0  0  0  0
 22 23  2  0  0  0  0
 22 24  1  0  0  0  0
 18 19  1  0  0  0  0
 18 20  1  0  0  0  0
 18 21  1  0  0  0  0
 17 18  1  0  0  0  0
 14 15  1  0  0  0  0
 14 16  1  0  0  0  0
 14 17  1  0  0  0  0
 11 12  1  0  0  0  0
 11 13  1  0  0  0  0
 11 14  1  0  0  0  0
  9 10  1  0  0  0  0
  9 11  1  0  0  0  0
  9 22  1  0  0  0  0
  7  8  1  0  0  0  0
  7  9  1  0  0  0  0
 26 27  1  0  0  0  0
 26 28  1  0  0  0  0
 26 29  1  0  0  0  0
 24 25  1  0  0  0  0
 24 26  1  0  0  0  0
M  END
$$$$
default_name
  -OEChem-02102213163D

 29 28  0     1  0  0  0  0  0999 V2000
   -3.5781   -3.7296    1.2702 H   0  0  0  0  0  0  0  0  0  0  0  0
   -3.5311   -2.7616    0.7732 C   0  0  0  0  0  0  0  0  0  0  0  0
   -4.2371   -2.0766    1.2382 H   0  0  0  0  0  0  0  0  0  0  0  0
   -3.7681   -2.8816   -0.2818 H   0  0  0  0  0  0  0  0  0  0  0  0
   -2.1321   -2.2086    0.9112 C   0  0  0  0  0  0  0  0  0  0  0  0
   -1.2751   -2.8426    1.5112 O   0  0  0  0  0  0  0  0  0  0  0  0
   -1.9041   -1.0186    0.3602 N   0  0  0  0  0  0  0  0  0  0  0  0
   -2.6671   -0.5416   -0.0988 H   0  0  0  0  0  0  0  0  0  0  0  0
   -0.6131   -0.3236    0.3832 C   0  0  1  0  0  0  0  0  0  0  0  0
    0.1346   -0.9625   -0.0894 H   0  0  0  0  0  0  0  0  0  0  0  0
   -0.7253    0.9751   -0.4365 C   0  0  0  0  0  0  0  0  0  0  0  0
   -1.6504    1.4856   -0.1604 H   0  0  0  0  0  0  0  0  0  0  0  0
    0.1119    1.6296   -0.1900 H   0  0  0  0  0  0  0  0  0  0  0  0
   -0.7366    0.7436   -1.9519 C   0  0  0  0  0  0  0  0  0  0  0  0
   -0.4094   -0.2745   -2.1604 H   0  0  0  0  0  0  0  0  0  0  0  0
   -1.7568    0.8659   -2.3173 H   0  0  0  0  0  0  0  0  0  0  0  0
    0.3383    1.8777   -2.8674 S   0  0  0  0  0  0  0  0  0  0  0  0
   -0.5714    3.4262   -2.6298 C   0  0  0  0  0  0  0  0  0  0  0  0
   -0.6416    3.6518   -1.5653 H   0  0  0  0  0  0  0  0  0  0  0  0
   -0.0440    4.2362   -3.1345 H   0  0  0  0  0  0  0  0  0  0  0  0
   -1.5727    3.3329   -3.0511 H   0  0  0  0  0  0  0  0  0  0  0  0
   -0.1711   -0.0594    1.8296 C   0  0  0  0  0  0  0  0  0  0  0  0
    0.9865   -0.2908    2.1726 O   0  0  0  0  0  0  0  0  0  0  0  0
   -1.0921    0.4156    2.6780 N   0  0  0  0  0  0  0  0  0  0  0  0
   -2.0168    0.5953    2.3206 H   0  0  0  0  0  0  0  0  0  0  0  0
   -0.8319    0.7034    4.0877 C   0  0  0  0  0  0  0  0  0  0  0  0
   -0.0192    1.4288    4.1710 H   0  0  0  0  0  0  0  0  0  0  0  0
   -1.7255    1.1088    4.5641 H   0  0  0  0  0  0  0  0  0  0  0  0
   -0.5319   -0.2118    4.6011 H   0  0  0  0  0  0  0  0  0  0  0  0
  5  6  2  0  0  0  0
  5  7  1  0  0  0  0
  2  3  1  0  0  0  0
  2  4  1  0  0  0  0
  2  5  1  0  0  0  0
  1  2  1  0  0  0  0
 22 23  2  0  0  0  0
 22 24  1  0  0  0  0
 18 19  1  0  0  0  0
 18 20  1  0  0  0  0
 18 21  1  0  0  0  0
 17 18  1  0  0  0  0
 14 15  1  0  0  0  0
 14 16  1  0  0  0  0
 14 17  1  0  0  0  0
 11 12  1  0  0  0  0
 11 13  1  0  0  0  0
 11 14  1  0  0  0  0
  9 10  1  0  0  0  0
  9 11  1  0  0  0  0
  9 22  1  0  0  0  0
  7  8  1  0  0  0  0
  7  9  1  0  0  0  0
 26 27  1  0  0  0  0
 26 28  1  0  0  0  0
 26 29  1  0  0  0  0
 24 25  1  0  0  0  0
 24 26  1  0  0  0  0
M  END
$$$$
default_name
  -OEChem-02102213163D

 29 28  0     1  0  0  0  0  0999 V2000
   -3.5781   -3.7296    1.2702 H   0  0  0  0  0  0  0  0  0  0  0  0
   -3.5311   -2.7616    0.7732 C   0  0  0  0  0  0  0  0  0  0  0  0
   -4.2371   -2.0766    1.2382 H   0  0  0  0  0  0  0  0  0  0  0  0
   -3.7681   -2.8816   -0.2818 H   0  0  0  0  0  0  0  0  0  0  0  0
   -2.1321   -2.2086    0.9112 C   0  0  0  0  0  0  0  0  0  0  0  0
   -1.2751   -2.8426    1.5112 O   0  0  0  0  0  0  0  0  0  0  0  0
   -1.9041   -1.0186    0.3602 N   0  0  0  0  0  0  0  0  0  0  0  0
   -2.6671   -0.5416   -0.0988 H   0  0  0  0  0  0  0  0  0  0  0  0
   -0.6131   -0.3236    0.3832 C   0  0  1  0  0  0  0  0  0  0  0  0
    0.1346   -0.9625   -0.0894 H   0  0  0  0  0  0  0  0  0  0  0  0
   -0.7253    0.9751   -0.4365 C   0  0  0  0  0  0  0  0  0  0  0  0
   -1.6504    1.4856   -0.1604 H   0  0  0  0  0  0  0  0  0  0  0  0
    0.1119    1.6296   -0.1900 H   0  0  0  0  0  0  0  0  0  0  0  0
   -0.7366    0.7436   -1.9519 C   0  0  0  0  0  0  0  0  0  0  0  0
   -0.6730   -0.3258   -2.1506 H   0  0  0  0  0  0  0  0  0  0  0  0
   -1.6766    1.1203   -2.3568 H   0  0  0  0  0  0  0  0  0  0  0  0
    0.6275    1.5586   -2.8208 S   0  0  0  0  0  0  0  0  0  0  0  0
    0.1358    3.2899   -2.6143 C   0  0  0  0  0  0  0  0  0  0  0  0
    0.0844    3.5334   -1.5526 H   0  0  0  0  0  0  0  0  0  0  0  0
    0.8720    3.9345   -3.0952 H   0  0  0  0  0  0  0  0  0  0  0  0
   -0.8390    3.4529   -3.0748 H   0  0  0  0  0  0  0  0  0  0  0  0
   -0.1711   -0.0594    1.8296 C   0  0  0  0  0  0  0  0  0  0  0  0
    0.9865   -0.2908    2.1726 O   0  0  0  0  0  0  0  0  0  0  0  0
   -1.0921    0.4156    2.6780 N   0  0  0  0  0  0  0  0  0  0  0  0
   -2.0168    0.5953    2.3206 H   0  0  0  0  0  0  0  0  0  0  0  0
   -0.8319    0.7034    4.0877 C   0  0  0  0  0  0  0  0  0  0  0  0
   -0.0192    1.4288    4.1710 H   0  0  0  0  0  0  0  0  0  0  0  0
   -1.7255    1.1088    4.5641 H   0  0  0  0  0  0  0  0  0  0  0  0
   -0.5319   -0.2118    4.6011 H   0  0  0  0  0  0  0  0  0  0  0  0
  5  6  2  0  0  0  0
  5  7  1  0  0  0  0
  2  3  1  0  0  0  0
  2  4  1  0  0  0  0
  2  5  1  0  0  0  0
  1  2  1  0  0  0  0
 22 23  2  0  0  0  0
 22 24  1  0  0  0  0
 18 19  1  0  0  0  0
 18 20  1  0  0  0  0
 18 21  1  0  0  0  0
 17 18  1  0  0  0  0
 14 15  1  0  0  0  0
 14 16  1  0  0  0  0
 14 17  1  0  0  0  0
 11 12  1  0  0  0  0
 11 13  1  0  0  0  0
 11 14  1  0  0  0  0
  9 10  1  0  0  0  0
  9 11  1  0  0  0  0
  9 22  1  0  0  0  0
  7  8  1  0  0  0  0
  7  9  1  0  0  0  0
 26 27  1  0  0  0  0
 26 28  1  0  0  0  0
 26 29  1  0  0  0  0
 24 25  1  0  0  0  0
 24 26  1  0  0  0  0
M  END
$$$$
default_name
  -OEChem-02102213163D

 29 28  0     1  0  0  0  0  0999 V2000
   -3.5781   -3.7296    1.2702 H   0  0  0  0  0  0  0  0  0  0  0  0
   -3.5311   -2.7616    0.7732 C   0  0  0  0  0  0  0  0  0  0  0  0
   -4.2371   -2.0766    1.2382 H   0  0  0  0  0  0  0  0  0  0  0  0
   -3.7681   -2.8816   -0.2818 H   0  0  0  0  0  0  0  0  0  0  0  0
   -2.1321   -2.2086    0.9112 C   0  0  0  0  0  0  0  0  0  0  0  0
   -1.2751   -2.8426    1.5112 O   0  0  0  0  0  0  0  0  0  0  0  0
   -1.9041   -1.0186    0.3602 N   0  0  0  0  0  0  0  0  0  0  0  0
   -2.6671   -0.5416   -0.0988 H   0  0  0  0  0  0  0  0  0  0  0  0
   -0.6131   -0.3236    0.3832 C   0  0  1  0  0  0  0  0  0  0  0  0
    0.1346   -0.9625   -0.0894 H   0  0  0  0  0  0  0  0  0  0  0  0
   -0.7253    0.9751   -0.4365 C   0  0  0  0  0  0  0  0  0  0  0  0
   -1.6504    1.4856   -0.1604 H   0  0  0  0  0  0  0  0  0  0  0  0
    0.1119    1.6296   -0.1900 H   0  0  0  0  0  0  0  0  0  0  0  0
   -0.7366    0.7436   -1.9519 C   0  0  0  0  0  0  0  0  0  0  0  0
   -0.9411   -0.3078   -2.1514 H   0  0  0  0  0  0  0  0  0  0  0  0
   -1.5324    1.3454   -2.3922 H   0  0  0  0  0  0  0  0  0  0  0  0
    0.8233    1.1765   -2.7639 S   0  0  0  0  0  0  0  0  0  0  0  0
    0.7833    2.9773   -2.5713 C   0  0  0  0  0  0  0  0  0  0  0  0
    0.7547    3.2333   -1.5118 H   0  0  0  0  0  0  0  0  0  0  0  0
    1.6781    3.4088   -3.0209 H   0  0  0  0  0  0  0  0  0  0  0  0
   -0.0987    3.3811   -3.0694 H   0  0  0  0  0  0  0  0  0  0  0  0
   -0.1711   -0.0594    1.8296 C   0  0  0  0  0  0  0  0  0  0  0  0
    0.9865   -0.2908    2.1726 O   0  0  0  0  0  0  0  0  0  0  0  0
   -1.0921    0.4156    2.6780 N   0  0  0  0  0  0  0  0  0  0  0  0
   -2.0168    0.5953    2.3206 H   0  0  0  0  0  0  0  0  0  0  0  0
   -0.8319    0.7034    4.0877 C   0  0  0  0  0  0  0  0  0  0  0  0
   -0.0192    1.4288    4.1710 H   0  0  0  0  0  0  0  0  0  0  0  0
   -1.7255    1.1088    4.5641 H   0  0  0  0  0  0  0  0  0  0  0  0
   -0.5319   -0.2118    4.6011 H   0  0  0  0  0  0  0  0  0  0  0  0
  5  6  2  0  0  0  0
  5  7  1  0  0  0  0
  2  3  1  0  0  0  0
  2  4  1  0  0  0  0
  2  5  1  0  0  0  0
  1  2  1  0  0  0  0
 22 23  2  0  0  0  0
 22 24  1  0  0  0  0
 18 19  1  0  0  0  0
 18 20  1  0  0  0  0
 18 21  1  0  0  0  0
 17 18  1  0  0  0  0
 14 15  1  0  0  0  0
 14 16  1  0  0  0  0
 14 17  1  0  0  0  0
 11 12  1  0  0  0  0
 11 13  1  0  0  0  0
 11 14  1  0  0  0  0
  9 10  1  0  0  0  0
  9 11  1  0  0  0  0
  9 22  1  0  0  0  0
  7  8  1  0  0  0  0
  7  9  1  0  0  0  0
 26 27  1  0  0  0  0
 26 28  1  0  0  0  0
 26 29  1  0  0  0  0
 24 25  1  0  0  0  0
 24 26  1  0  0  0  0
M  END
$$$$
default_name
  -OEChem-02102213163D

 29 28  0     1  0  0  0  0  0999 V2000
   -3.5781   -3.7296    1.2702 H   0  0  0  0  0  0  0  0  0  0  0  0
   -3.5311   -2.7616    0.7732 C   0  0  0  0  0  0  0  0  0  0  0  0
   -4.2371   -2.0766    1.2382 H   0  0  0  0  0  0  0  0  0  0  0  0
   -3.7681   -2.8816   -0.2818 H   0  0  0  0  0  0  0  0  0  0  0  0
   -2.1321   -2.2086    0.9112 C   0  0  0  0  0  0  0  0  0  0  0  0
   -1.2751   -2.8426    1.5112 O   0  0  0  0  0  0  0  0  0  0  0  0
   -1.9041   -1.0186    0.3602 N   0  0  0  0  0  0  0  0  0  0  0  0
   -2.6671   -0.5416   -0.0988 H   0  0  0  0  0  0  0  0  0  0  0  0
   -0.6131   -0.3236    0.3832 C   0  0  1  0  0  0  0  0  0  0  0  0
    0.1346   -0.9625   -0.0894 H   0  0  0  0  0  0  0  0  0  0  0  0
   -0.7253    0.9751   -0.4365 C   0  0  0  0  0  0  0  0  0  0  0  0
   -1.6504    1.4856   -0.1604 H   0  0  0  0  0  0  0  0  0  0  0  0
    0.1119    1.6296   -0.1900 H   0  0  0  0  0  0  0  0  0  0  0  0
   -0.7366    0.7436   -1.9519 C   0  0  0  0  0  0  0  0  0  0  0  0
   -1.1954   -0.2219   -2.1626 H   0  0  0  0  0  0  0  0  0  0  0  0
   -1.3342    1.5259   -2.4213 H   0  0  0  0  0  0  0  0  0  0  0  0
    0.9124    0.7574   -2.7005 S   0  0  0  0  0  0  0  0  0  0  0  0
    1.3272    2.5099   -2.5040 C   0  0  0  0  0  0  0  0  0  0  0  0
    1.3239    2.7720   -1.4456 H   0  0  0  0  0  0  0  0  0  0  0  0
    2.3193    2.6949   -2.9166 H   0  0  0  0  0  0  0  0  0  0  0  0
    0.5979    3.1222   -3.0350 H   0  0  0  0  0  0  0  0  0  0  0  0
   -0.1711   -0.0594    1.8296 C   0  0  0  0  0  0  0  0  0  0  0  0
    0.9865   -0.2908    2.1726 O   0  0  0  0  0  0  0  0  0  0  0  0
   -1.0921    0.4156    2.6780 N   0  0  0  0  0  0  0  0  0  0  0  0
   -2.0168    0.5953    2.3206 H   0  0  0  0  0  0  0  0  0  0  0  0
   -0.8319    0.7034    4.0877 C   0  0  0  0  0  0  0  0  0  0  0  0
   -0.0192    1.4288    4.1710 H   0  0  0  0  0  0  0  0  0  0  0  0
   -1.7255    1.1088    4.5641 H   0  0  0  0  0  0  0  0  0  0  0  0
   -0.5319   -0.2118    4.6011 H   0  0  0  0  0  0  0  0  0  0  0  0
  5  6  2  0  0  0  0
  5  7  1  0  0  0  0
  2  3  1  0  0  0  0
  2  4  1  0  0  0  0
  2  5  1  0  0  0  0
  1  2  1  0  0  0  0
 22 23  2  0  0  0  0
 22 24  1  0  0  0  0
 18 19  1  0  0  0  0
 18 20  1  0  0  0  0
 18 21  1  0  0  0  0
 17 18  1  0  0  0  0
 14 15  1  0  0  0  0
 14 16  1  0  0  0  0
 14 17  1  0  0  0  0
 11 12  1  0  0  0  0
 11 13  1  0  0  0  0
 11 14  1  0  0  0  0
  9 10  1  0  0  0  0
  9 11  1  0  0  0  0
  9 22  1  0  0  0  0
  7  8  1  0  0  0  0
  7  9  1  0  0  0  0
 26 27  1  0  0  0  0
 26 28  1  0  0  0  0
 26 29  1  0  0  0  0
 24 25  1  0  0  0  0
 24 26  1  0  0  0  0
M  END
$$$$
default_name
  -OEChem-02102213163D

 29 28  0     1  0  0  0  0  0999 V2000
   -3.5781   -3.7296    1.2702 H   0  0  0  0  0  0  0  0  0  0  0  0
   -3.5311   -2.7616    0.7732 C   0  0  0  0  0  0  0  0  0  0  0  0
   -4.2371   -2.0766    1.2382 H   0  0  0  0  0  0  0  0  0  0  0  0
   -3.7681   -2.8816   -0.2818 H   0  0  0  0  0  0  0  0  0  0  0  0
   -2.1321   -2.2086    0.9112 C   0  0  0  0  0  0  0  0  0  0  0  0
   -1.2751   -2.8426    1.5112 O   0  0  0  0  0  0  0  0  0  0  0  0
   -1.9041   -1.0186    0.3602 N   0  0  0  0  0  0  0  0  0  0  0  0
   -2.6671   -0.5416   -0.0988 H   0  0  0  0  0  0  0  0  0  0  0  0
   -0.6131   -0.3236    0.3832 C   0  0  1  0  0  0  0  0  0  0  0  0
    0.1346   -0.9625   -0.0894 H   0  0  0  0  0  0  0  0  0  0  0  0
   -0.7253    0.9751   -0.4365 C   0  0  0  0  0  0  0  0  0  0  0  0
   -1.6504    1.4856   -0.1604 H   0  0  0  0  0  0  0  0  0  0  0  0
    0.1119    1.6296   -0.1900 H   0  0  0  0  0  0  0  0  0  0  0  0
   -0.7366    0.7436   -1.9519 C   0  0  0  0  0  0  0  0  0  0  0  0
   -1.4187   -0.0738   -2.1836 H   0  0  0  0  0  0  0  0  0  0  0  0
   -1.0955    1.6494   -2.4419 H   0  0  0  0  0  0  0  0  0  0  0  0
    0.8888    0.3299   -2.6351 S   0  0  0  0  0  0  0  0  0  0  0  0
    1.7302    1.9193   -2.4168 C   0  0  0  0  0  0  0  0  0  0  0  0
    1.7531    2.1809   -1.3585 H   0  0  0  0  0  0  0  0  0  0  0  0
    2.7519    1.8415   -2.7895 H   0  0  0  0  0  0  0  0  0  0  0  0
    1.2031    2.6941   -2.9741 H   0  0  0  0  0  0  0  0  0  0  0  0
   -0.1711   -0.0594    1.8296 C   0  0  0  0  0  0  0  0  0  0  0  0
    0.9865   -0.2908    2.1726 O   0  0  0  0  0  0  0  0  0  0  0  0
   -1.0921    0.4156    2.6780 N   0  0  0  0  0  0  0  0  0  0  0  0
   -2.0168    0.5953    2.3206 H   0  0  0  0  0  0  0  0  0  0  0  0
   -0.8319    0.7034    4.0877 C   0  0  0  0  0  0  0  0  0  0  0  0
   -0.0192    1.4288    4.1710 H   0  0  0  0  0  0  0  0  0  0  0  0
   -1.7255    1.1088    4.5641 H   0  0  0  0  0  0  0  0  0  0  0  0
   -0.5319   -0.2118    4.6011 H   0  0  0  0  0  0  0  0  0  0  0  0
  5  6  2  0  0  0  0
  5  7  1  0  0  0  0
  2  3  1  0  0  0  0
  2  4  1  0  0  0  0
  2  5  1  0  0  0  0
  1  2  1  0  0  0  0
 22 23  2  0  0  0  0
 22 24  1  0  0  0  0
 18 19  1  0  0  0  0
 18 20  1  0  0  0  0
 18 21  1  0  0  0  0
 17 18  1  0  0  0  0
 14 15  1  0  0  0  0
 14 16  1  0  0  0  0
 14 17  1  0  0  0  0
 11 12  1  0  0  0  0
 11 13  1  0  0  0  0
 11 14  1  0  0  0  0
  9 10  1  0  0  0  0
  9 11  1  0  0  0  0
  9 22  1  0  0  0  0
  7  8  1  0  0  0  0
  7  9  1  0  0  0  0
 26 27  1  0  0  0  0
 26 28  1  0  0  0  0
 26 29  1  0  0  0  0
 24 25  1  0  0  0  0
 24 26  1  0  0  0  0
M  END
$$$$
default_name
  -OEChem-02102213163D

 29 28  0     1  0  0  0  0  0999 V2000
   -3.5781   -3.7296    1.2702 H   0  0  0  0  0  0  0  0  0  0  0  0
   -3.5311   -2.7616    0.7732 C   0  0  0  0  0  0  0  0  0  0  0  0
   -4.2371   -2.0766    1.2382 H   0  0  0  0  0  0  0  0  0  0  0  0
   -3.7681   -2.8816   -0.2818 H   0  0  0  0  0  0  0  0  0  0  0  0
   -2.1321   -2.2086    0.9112 C   0  0  0  0  0  0  0  0  0  0  0  0
   -1.2751   -2.8426    1.5112 O   0  0  0  0  0  0  0  0  0  0  0  0
   -1.9041   -1.0186    0.3602 N   0  0  0  0  0  0  0  0  0  0  0  0
   -2.6671   -0.5416   -0.0988 H   0  0  0  0  0  0  0  0  0  0  0  0
   -0.6131   -0.3236    0.3832 C   0  0  1  0  0  0  0  0  0  0  0  0
    0.1346   -0.9625   -0.0894 H   0  0  0  0  0  0  0  0  0  0  0  0
   -0.7253    0.9751   -0.4365 C   0  0  0  0  0  0  0  0  0  0  0  0
   -1.6504    1.4856   -0.1604 H   0  0  0  0  0  0  0  0  0  0  0  0
    0.1119    1.6296   -0.1900 H   0  0  0  0  0  0  0  0  0  0  0  0
   -0.7366    0.7436   -1.9519 C   0  0  0  0  0  0  0  0  0  0  0  0
   -1.5956    0.1263   -2.2128 H   0  0  0  0  0  0  0  0  0  0  0  0
   -0.8325    1.7077   -2.4528 H   0  0  0  0  0  0  0  0  0  0  0  0
    0.7541   -0.0769   -2.5720 S   0  0  0  0  0  0  0  0  0  0  0  0
    1.9650    1.2459   -2.3157 C   0  0  0  0  0  0  0  0  0  0  0  0
    2.0130    1.5003   -1.2565 H   0  0  0  0  0  0  0  0  0  0  0  0
    2.9465    0.9067   -2.6482 H   0  0  0  0  0  0  0  0  0  0  0  0
    1.6758    2.1259   -2.8908 H   0  0  0  0  0  0  0  0  0  0  0  0
   -0.1711   -0.0594    1.8296 C   0  0  0  0  0  0  0  0  0  0  0  0
    0.9865   -0.2908    2.1726 O   0  0  0  0  0  0  0  0  0  0  0  0
   -1.0921    0.4156    2.6780 N   0  0  0  0  0  0  0  0  0  0  0  0
   -2.0168    0.5953    2.3206 H   0  0  0  0  0  0  0  0  0  0  0  0
   -0.8319    0.7034    4.0877 C   0  0  0  0  0  0  0  0  0  0  0  0
   -0.0192    1.4288    4.1710 H   0  0  0  0  0  0  0  0  0  0  0  0
   -1.7255    1.1088    4.5641 H   0  0  0  0  0  0  0  0  0  0  0  0
   -0.5319   -0.2118    4.6011 H   0  0  0  0  0  0  0  0  0  0  0  0
  5  6  2  0  0  0  0
  5  7  1  0  0  0  0
  2  3  1  0  0  0  0
  2  4  1  0  0  0  0
  2  5  1  0  0  0  0
  1  2  1  0  0  0  0
 22 23  2  0  0  0  0
 22 24  1  0  0  0  0
 18 19  1  0  0  0  0
 18 20  1  0  0  0  0
 18 21  1  0  0  0  0
 17 18  1  0  0  0  0
 14 15  1  0  0  0  0
 14 16  1  0  0  0  0
 14 17  1  0  0  0  0
 11 12  1  0  0  0  0
 11 13  1  0  0  0  0
 11 14  1  0  0  0  0
  9 10  1  0  0  0  0
  9 11  1  0  0  0  0
  9 22  1  0  0  0  0
  7  8  1  0  0  0  0
  7  9  1  0  0  0  0
 26 27  1  0  0  0  0
 26 28  1  0  0  0  0
 26 29  1  0  0  0  0
 24 25  1  0  0  0  0
 24 26  1  0  0  0  0
M  END
$$$$
default_name
  -OEChem-02102213163D

 29 28  0     1  0  0  0  0  0999 V2000
   -3.5781   -3.7296    1.2702 H   0  0  0  0  0  0  0  0  0  0  0  0
   -3.5311   -2.7616    0.7732 C   0  0  0  0  0  0  0  0  0  0  0  0
   -4.2371   -2.0766    1.2382 H   0  0  0  0  0  0  0  0  0  0  0  0
   -3.7681   -2.8816   -0.2818 H   0  0  0  0  0  0  0  0  0  0  0  0
   -2.1321   -2.2086    0.9112 C   0  0  0  0  0  0  0  0  0  0  0  0
   -1.2751   -2.8426    1.5112 O   0  0  0  0  0  0  0  0  0  0  0  0
   -1.9041   -1.0186    0.3602 N   0  0  0  0  0  0  0  0  0  0  0  0
   -2.6671   -0.5416   -0.0988 H   0  0  0  0  0  0  0  0  0  0  0  0
   -0.6131   -0.3236    0.3832 C   0  0  1  0  0  0  0  0  0  0  0  0
    0.1346   -0.9625   -0.0894 H   0  0  0  0  0  0  0  0  0  0  0  0
   -0.7253    0.9751   -0.4365 C   0  0  0  0  0  0  0  0  0  0  0  0
   -1.6504    1.4856   -0.1604 H   0  0  0  0  0  0  0  0  0  0  0  0
    0.1119    1.6296   -0.1900 H   0  0  0  0  0  0  0  0  0  0  0  0
   -0.7366    0.7436   -1.9519 C   0  0  0  0  0  0  0  0  0  0  0  0
   -1.7142    0.3648   -2.2484 H   0  0  0  0  0  0  0  0  0  0  0  0
   -0.5631    1.6966   -2.4531 H   0  0  0  0  0  0  0  0  0  0  0  0
    0.5174   -0.4352   -2.5155 S   0  0  0  0  0  0  0  0  0  0  0  0
    2.0156    0.5355   -2.2076 C   0  0  0  0  0  0  0  0  0  0  0  0
    2.0859    0.7766   -1.1465 H   0  0  0  0  0  0  0  0  0  0  0  0
    2.8898   -0.0457   -2.5023 H   0  0  0  0  0  0  0  0  0  0  0  0
    1.9837    1.4562   -2.7909 H   0  0  0  0  0  0  0  0  0  0  0  0
   -0.1711   -0.0594    1.8296 C   0  0  0  0  0  0  0  0  0  0  0  0
    0.9865   -0.2908    2.1726 O   0  0  0  0  0  0  0  0  0  0  0  0
   -1.0921    0.4156    2.6780 N   0  0  0  0  0  0  0  0  0  0  0  0
   -2.0168    0.5953    2.3206 H   0  0  0  0  0  0  0  0  0  0  0  0
   -0.8319    0.7034    4.0877 C   0  0  0  0  0  0  0  0  0  0  0  0
   -0.0192    1.4288    4.1710 H   0  0  0  0  0  0  0  0  0  0  0  0
   -1.7255    1.1088    4.5641 H   0  0  0  0  0  0  0  0  0  0  0  0
   -0.5319   -0.2118    4.6011 H   0  0  0  0  0  0  0  0  0  0  0  0
  5  6  2  0  0  0  0
  5  7  1  0  0  0  0
  2  3  1  0  0  0  0
  2  4  1  0  0  0  0
  2  5  1  0  0  0  0
  1  2  1  0  0  0  0
 22 23  2  0  0  0  0
 22 24  1  0  0  0  0
 18 19  1  0  0  0  0
 18 20  1  0  0  0  0
 18 21  1  0  0  0  0
 17 18  1  0  0  0  0
 14 15  1  0  0  0  0
 14 16  1  0  0  0  0
 14 17  1  0  0  0  0
 11 12  1  0  0  0  0
 11 13  1  0  0  0  0
 11 14  1  0  0  0  0
  9 10  1  0  0  0  0
  9 11  1  0  0  0  0
  9 22  1  0  0  0  0
  7  8  1  0  0  0  0
  7  9  1  0  0  0  0
 26 27  1  0  0  0  0
 26 28  1  0  0  0  0
 26 29  1  0  0  0  0
 24 25  1  0  0  0  0
 24 26  1  0  0  0  0
M  END
$$$$
default_name
  -OEChem-02102213163D

 29 28  0     1  0  0  0  0  0999 V2000
   -3.5781   -3.7296    1.2702 H   0  0  0  0  0  0  0  0  0  0  0  0
   -3.5311   -2.7616    0.7732 C   0  0  0  0  0  0  0  0  0  0  0  0
   -4.2371   -2.0766    1.2382 H   0  0  0  0  0  0  0  0  0  0  0  0
   -3.7681   -2.8816   -0.2818 H   0  0  0  0  0  0  0  0  0  0  0  0
   -2.1321   -2.2086    0.9112 C   0  0  0  0  0  0  0  0  0  0  0  0
   -1.2751   -2.8426    1.5112 O   0  0  0  0  0  0  0  0  0  0  0  0
   -1.9041   -1.0186    0.3602 N   0  0  0  0  0  0  0  0  0  0  0  0
   -2.6671   -0.5416   -0.0988 H   0  0  0  0  0  0  0  0  0  0  0  0
   -0.6131   -0.3236    0.3832 C   0  0  1  0  0  0  0  0  0  0  0  0
    0.1346   -0.9625   -0.0894 H   0  0  0  0  0  0  0  0  0  0  0  0
   -0.7253    0.9751   -0.4365 C   0  0  0  0  0  0  0  0  0  0  0  0
   -1.6504    1.4856   -0.1604 H   0  0  0  0  0  0  0  0  0  0  0  0
    0.1119    1.6296   -0.1900 H   0  0  0  0  0  0  0  0  0  0  0  0
   -0.7366    0.7436   -1.9519 C   0  0  0  0  0  0  0  0  0  0  0  0
   -1.7663    0.6254   -2.2878 H   0  0  0  0  0  0  0  0  0  0  0  0
   -0.3057    1.6170   -2.4428 H   0  0  0  0  0  0  0  0  0  0  0  0
    0.1949   -0.7207   -2.4695 S   0  0  0  0  0  0  0  0  0  0  0  0
    1.8785   -0.1634   -2.0998 C   0  0  0  0  0  0  0  0  0  0  0  0
    1.9669    0.0591   -1.0360 H   0  0  0  0  0  0  0  0  0  0  0  0
    2.5856   -0.9509   -2.3618 H   0  0  0  0  0  0  0  0  0  0  0  0
    2.1060    0.7307   -2.6810 H   0  0  0  0  0  0  0  0  0  0  0  0
   -0.1711   -0.0594    1.8296 C   0  0  0  0  0  0  0  0  0  0  0  0
    0.9865   -0.2908    2.1726 O   0  0  0  0  0  0  0  0  0  0  0  0
   -1.0921    0.4156    2.6780 N   0  0  0  0  0  0  0  0  0  0  0  0
   -2.0168    0.5953    2.3206 H   0  0  0  0  0  0  0  0  0  0  0  0
   -0.8319    0.7034    4.0877 C   0  0  0  0  0  0  0  0  0  0  0  0
   -0.0192    1.4288    4.1710 H   0  0  0  0  0  0  0  0  0  0  0  0
   -1.7255    1.1088    4.5641 H   0  0  0  0  0  0  0  0  0  0  0  0
   -0.5319   -0.2118    4.6011 H   0  0  0  0  0  0  0  0  0  0  0  0
  5  6  2  0  0  0  0
  5  7  1  0  0  0  0
  2  3  1  0  0  0  0
  2  4  1  0  0  0  0
  2  5  1  0  0  0  0
  1  2  1  0  0  0  0
 22 23  2  0  0  0  0
 22 24  1  0  0  0  0
 18 19  1  0  0  0  0
 18 20  1  0  0  0  0
 18 21  1  0  0  0  0
 17 18  1  0  0  0  0
 14 15  1  0  0  0  0
 14 16  1  0  0  0  0
 14 17  1  0  0  0  0
 11 12  1  0  0  0  0
 11 13  1  0  0  0  0
 11 14  1  0  0  0  0
  9 10  1  0  0  0  0
  9 11  1  0  0  0  0
  9 22  1  0  0  0  0
  7  8  1  0  0  0  0
  7  9  1  0  0  0  0
 26 27  1  0  0  0  0
 26 28  1  0  0  0  0
 26 29  1  0  0  0  0
 24 25  1  0  0  0  0
 24 26  1  0  0  0  0
M  END
$$$$
default_name
  -OEChem-02102213163D

 29 28  0     1  0  0  0  0  0999 V2000
   -3.5781   -3.7296    1.2702 H   0  0  0  0  0  0  0  0  0  0  0  0
   -3.5311   -2.7616    0.7732 C   0  0  0  0  0  0  0  0  0  0  0  0
   -4.2371   -2.0766    1.2382 H   0  0  0  0  0  0  0  0  0  0  0  0
   -3.7681   -2.8816   -0.2818 H   0  0  0  0  0  0  0  0  0  0  0  0
   -2.1321   -2.2086    0.9112 C   0  0  0  0  0  0  0  0  0  0  0  0
   -1.2751   -2.8426    1.5112 O   0  0  0  0  0  0  0  0  0  0  0  0
   -1.9041   -1.0186    0.3602 N   0  0  0  0  0  0  0  0  0  0  0  0
   -2.6671   -0.5416   -0.0988 H   0  0  0  0  0  0  0  0  0  0  0  0
   -0.6131   -0.3236    0.3832 C   0  0  1  0  0  0  0  0  0  0  0  0
    0.1346   -0.9625   -0.0894 H   0  0  0  0  0  0  0  0  0  0  0  0
   -0.7253    0.9751   -0.4365 C   0  0  0  0  0  0  0  0  0  0  0  0
   -1.6504    1.4856   -0.1604 H   0  0  0  0  0  0  0  0  0  0  0  0
    0.1119    1.6296   -0.1900 H   0  0  0  0  0  0  0  0  0  0  0  0
   -0.7366    0.7436   -1.9519 C   0  0  0  0  0  0  0  0  0  0  0  0
   -1.7484    0.8904   -2.3284 H   0  0  0  0  0  0  0  0  0  0  0  0
   -0.0778    1.4743   -2.4227 H   0  0  0  0  0  0  0  0  0  0  0  0
   -0.1914   -0.9138   -2.4371 S   0  0  0  0  0  0  0  0  0  0  0  0
    1.5631   -0.8032   -1.9998 C   0  0  0  0  0  0  0  0  0  0  0  0
    1.6641   -0.6032   -0.9326 H   0  0  0  0  0  0  0  0  0  0  0  0
    2.0547   -1.7472   -2.2363 H   0  0  0  0  0  0  0  0  0  0  0  0
    2.0341   -0.0011   -2.5687 H   0  0  0  0  0  0  0  0  0  0  0  0
   -0.1711   -0.0594    1.8296 C   0  0  0  0  0  0  0  0  0  0  0  0
    0.9865   -0.2908    2.1726 O   0  0  0  0  0  0  0  0  0  0  0  0
   -1.0921    0.4156    2.6780 N   0  0  0  0  0  0  0  0  0  0  0  0
   -2.0168    0.5953    2.3206 H   0  0  0  0  0  0  0  0  0  0  0  0
   -0.8319    0.7034    4.0877 C   0  0  0  0  0  0  0  0  0  0  0  0
   -0.0192    1.4288    4.1710 H   0  0  0  0  0  0  0  0  0  0  0  0
   -1.7255    1.1088    4.5641 H   0  0  0  0  0  0  0  0  0  0  0  0
   -0.5319   -0.2118    4.6011 H   0  0  0  0  0  0  0  0  0  0  0  0
  5  6  2  0  0  0  0
  5  7  1  0  0  0  0
  2  3  1  0  0  0  0
  2  4  1  0  0  0  0
  2  5  1  0  0  0  0
  1  2  1  0  0  0  0
 22 23  2  0  0  0  0
 22 24  1  0  0  0  0
 18 19  1  0  0  0  0
 18 20  1  0  0  0  0
 18 21  1  0  0  0  0
 17 18  1  0  0  0  0
 14 15  1  0  0  0  0
 14 16  1  0  0  0  0
 14 17  1  0  0  0  0
 11 12  1  0  0  0  0
 11 13  1  0  0  0  0
 11 14  1  0  0  0  0
  9 10  1  0  0  0  0
  9 11  1  0  0  0  0
  9 22  1  0  0  0  0
  7  8  1  0  0  0  0
  7  9  1  0  0  0  0
 26 27  1  0  0  0  0
 26 28  1  0  0  0  0
 26 29  1  0  0  0  0
 24 25  1  0  0  0  0
 24 26  1  0  0  0  0
M  END
$$$$
default_name
  -OEChem-02102213163D

 29 28  0     1  0  0  0  0  0999 V2000
   -3.5781   -3.7296    1.2702 H   0  0  0  0  0  0  0  0  0  0  0  0
   -3.5311   -2.7616    0.7732 C   0  0  0  0  0  0  0  0  0  0  0  0
   -4.2371   -2.0766    1.2382 H   0  0  0  0  0  0  0  0  0  0  0  0
   -3.7681   -2.8816   -0.2818 H   0  0  0  0  0  0  0  0  0  0  0  0
   -2.1321   -2.2086    0.9112 C   0  0  0  0  0  0  0  0  0  0  0  0
   -1.2751   -2.8426    1.5112 O   0  0  0  0  0  0  0  0  0  0  0  0
   -1.9041   -1.0186    0.3602 N   0  0  0  0  0  0  0  0  0  0  0  0
   -2.6671   -0.5416   -0.0988 H   0  0  0  0  0  0  0  0  0  0  0  0
   -0.6131   -0.3236    0.3832 C   0  0  1  0  0  0  0  0  0  0  0  0
    0.1346   -0.9625   -0.0894 H   0  0  0  0  0  0  0  0  0  0  0  0
   -0.7253    0.9751   -0.4365 C   0  0  0  0  0  0  0  0  0  0  0  0
   -1.6504    1.4856   -0.1604 H   0  0  0  0  0  0  0  0  0  0  0  0
    0.1119    1.6296   -0.1900 H   0  0  0  0  0  0  0  0  0  0  0  0
   -0.7366    0.7436   -1.9519 C   0  0  0  0  0  0  0  0  0  0  0  0
   -1.6618    1.1417   -2.3674 H   0  0  0  0  0  0  0  0  0  0  0  0
    0.1050    1.2781   -2.3941 H   0  0  0  0  0  0  0  0  0  0  0  0
   -0.6153   -1.0014   -2.4206 S   0  0  0  0  0  0  0  0  0  0  0  0
    1.0908   -1.3403   -1.9143 C   0  0  0  0  0  0  0  0  0  0  0  0
    1.1981   -1.1654   -0.8433 H   0  0  0  0  0  0  0  0  0  0  0  0
    1.3333   -2.3803   -2.1342 H   0  0  0  0  0  0  0  0  0  0  0  0
    1.7731   -0.6893   -2.4616 H   0  0  0  0  0  0  0  0  0  0  0  0
   -0.1711   -0.0594    1.8296 C   0  0  0  0  0  0  0  0  0  0  0  0
    0.9865   -0.2908    2.1726 O   0  0  0  0  0  0  0  0  0  0  0  0
   -1.0921    0.4156    2.6780 N   0  0  0  0  0  0  0  0  0  0  0  0
   -2.0168    0.5953    2.3206 H   0  0  0  0  0  0  0  0  0  0  0  0
   -0.8319    0.7034    4.0877 C   0  0  0  0  0  0  0  0  0  0  0  0
   -0.0192    1.4288    4.1710 H   0  0  0  0  0  0  0  0  0  0  0  0
   -1.7255    1.1088    4.5641 H   0  0  0  0  0  0  0  0  0  0  0  0
   -0.5319   -0.2118    4.6011 H   0  0  0  0  0  0  0  0  0  0  0  0
  5  6  2  0  0  0  0
  5  7  1  0  0  0  0
  2  3  1  0  0  0  0
  2  4  1  0  0  0  0
  2  5  1  0  0  0  0
  1  2  1  0  0  0  0
 22 23  2  0  0  0  0
 22 24  1  0  0  0  0
 18 19  1  0  0  0  0
 18 20  1  0  0  0  0
 18 21  1  0  0  0  0
 17 18  1  0  0  0  0
 14 15  1  0  0  0  0
 14 16  1  0  0  0  0
 14 17  1  0  0  0  0
 11 12  1  0  0  0  0
 11 13  1  0  0  0  0
 11 14  1  0  0  0  0
  9 10  1  0  0  0  0
  9 11  1  0  0  0  0
  9 22  1  0  0  0  0
  7  8  1  0  0  0  0
  7  9  1  0  0  0  0
 26 27  1  0  0  0  0
 26 28  1  0  0  0  0
 26 29  1  0  0  0  0
 24 25  1  0  0  0  0
 24 26  1  0  0  0  0
M  END
$$$$
default_name
  -OEChem-02102213163D

 29 28  0     1  0  0  0  0  0999 V2000
   -3.5781   -3.7296    1.2702 H   0  0  0  0  0  0  0  0  0  0  0  0
   -3.5311   -2.7616    0.7732 C   0  0  0  0  0  0  0  0  0  0  0  0
   -4.2371   -2.0766    1.2382 H   0  0  0  0  0  0  0  0  0  0  0  0
   -3.7681   -2.8816   -0.2818 H   0  0  0  0  0  0  0  0  0  0  0  0
   -2.1321   -2.2086    0.9112 C   0  0  0  0  0  0  0  0  0  0  0  0
   -1.2751   -2.8426    1.5112 O   0  0  0  0  0  0  0  0  0  0  0  0
   -1.9041   -1.0186    0.3602 N   0  0  0  0  0  0  0  0  0  0  0  0
   -2.6671   -0.5416   -0.0988 H   0  0  0  0  0  0  0  0  0  0  0  0
   -0.6131   -0.3236    0.3832 C   0  0  1  0  0  0  0  0  0  0  0  0
    0.1346   -0.9625   -0.0894 H   0  0  0  0  0  0  0  0  0  0  0  0
   -0.7253    0.9751   -0.4365 C   0  0  0  0  0  0  0  0  0  0  0  0
   -1.6504    1.4856   -0.1604 H   0  0  0  0  0  0  0  0  0  0  0  0
    0.1119    1.6296   -0.1900 H   0  0  0  0  0  0  0  0  0  0  0  0
   -0.7366    0.7436   -1.9519 C   0  0  0  0  0  0  0  0  0  0  0  0
   -1.5122    1.3623   -2.4022 H   0  0  0  0  0  0  0  0  0  0  0  0
    0.2302    1.0420   -2.3590 H   0  0  0  0  0  0  0  0  0  0  0  0
   -1.0477   -0.9776   -2.4210 S   0  0  0  0  0  0  0  0  0  0  0  0
    0.4938   -1.7381   -1.8491 C   0  0  0  0  0  0  0  0  0  0  0  0
    0.6006   -1.5890   -0.7742 H   0  0  0  0  0  0  0  0  0  0  0  0
    0.4705   -2.8070   -2.0627 H   0  0  0  0  0  0  0  0  0  0  0  0
    1.3407   -1.2872   -2.3671 H   0  0  0  0  0  0  0  0  0  0  0  0
   -0.1711   -0.0594    1.8296 C   0  0  0  0  0  0  0  0  0  0  0  0
    0.9865   -0.2908    2.1726 O   0  0  0  0  0  0  0  0  0  0  0  0
   -1.0921    0.4156    2.6780 N   0  0  0  0  0  0  0  0  0  0  0  0
   -2.0168    0.5953    2.3206 H   0  0  0  0  0  0  0  0  0  0  0  0
   -0.8319    0.7034    4.0877 C   0  0  0  0  0  0  0  0  0  0  0  0
   -0.0192    1.4288    4.1710 H   0  0  0  0  0  0  0  0  0  0  0  0
   -1.7255    1.1088    4.5641 H   0  0  0  0  0  0  0  0  0  0  0  0
   -0.5319   -0.2118    4.6011 H   0  0  0  0  0  0  0  0  0  0  0  0
  5  6  2  0  0  0  0
  5  7  1  0  0  0  0
  2  3  1  0  0  0  0
  2  4  1  0  0  0  0
  2  5  1  0  0  0  0
  1  2  1  0  0  0  0
 22 23  2  0  0  0  0
 22 24  1  0  0  0  0
 18 19  1  0  0  0  0
 18 20  1  0  0  0  0
 18 21  1  0  0  0  0
 17 18  1  0  0  0  0
 14 15  1  0  0  0  0
 14 16  1  0  0  0  0
 14 17  1  0  0  0  0
 11 12  1  0  0  0  0
 11 13  1  0  0  0  0
 11 14  1  0  0  0  0
  9 10  1  0  0  0  0
  9 11  1  0  0  0  0
  9 22  1  0  0  0  0
  7  8  1  0  0  0  0
  7  9  1  0  0  0  0
 26 27  1  0  0  0  0
 26 28  1  0  0  0  0
 26 29  1  0  0  0  0
 24 25  1  0  0  0  0
 24 26  1  0  0  0  0
M  END
$$$$
default_name
  -OEChem-02102213163D

 29 28  0     1  0  0  0  0  0999 V2000
   -3.5781   -3.7296    1.2702 H   0  0  0  0  0  0  0  0  0  0  0  0
   -3.5311   -2.7616    0.7732 C   0  0  0  0  0  0  0  0  0  0  0  0
   -4.2371   -2.0766    1.2382 H   0  0  0  0  0  0  0  0  0  0  0  0
   -3.7681   -2.8816   -0.2818 H   0  0  0  0  0  0  0  0  0  0  0  0
   -2.1321   -2.2086    0.9112 C   0  0  0  0  0  0  0  0  0  0  0  0
   -1.2751   -2.8426    1.5112 O   0  0  0  0  0  0  0  0  0  0  0  0
   -1.9041   -1.0186    0.3602 N   0  0  0  0  0  0  0  0  0  0  0  0
   -2.6671   -0.5416   -0.0988 H   0  0  0  0  0  0  0  0  0  0  0  0
   -0.6131   -0.3236    0.3832 C   0  0  1  0  0  0  0  0  0  0  0  0
    0.1346   -0.9625   -0.0894 H   0  0  0  0  0  0  0  0  0  0  0  0
   -0.7253    0.9751   -0.4365 C   0  0  0  0  0  0  0  0  0  0  0  0
   -1.6504    1.4856   -0.1604 H   0  0  0  0  0  0  0  0  0  0  0  0
    0.1119    1.6296   -0.1900 H   0  0  0  0  0  0  0  0  0  0  0  0
   -0.7366    0.7436   -1.9519 C   0  0  0  0  0  0  0  0  0  0  0  0
   -1.3100    1.5369   -2.4304 H   0  0  0  0  0  0  0  0  0  0  0  0
    0.2894    0.7819   -2.3197 H   0  0  0  0  0  0  0  0  0  0  0  0
   -1.4594   -0.8440   -2.4384 S   0  0  0  0  0  0  0  0  0  0  0  0
   -0.1871   -1.9695   -1.8087 C   0  0  0  0  0  0  0  0  0  0  0  0
   -0.0875   -1.8451   -0.7300 H   0  0  0  0  0  0  0  0  0  0  0  0
   -0.4749   -2.9983   -2.0264 H   0  0  0  0  0  0  0  0  0  0  0  0
    0.7664   -1.7538   -2.2916 H   0  0  0  0  0  0  0  0  0  0  0  0
   -0.1711   -0.0594    1.8296 C   0  0  0  0  0  0  0  0  0  0  0  0
    0.9865   -0.2908    2.1726 O   0  0  0  0  0  0  0  0  0  0  0  0
   -1.0921    0.4156    2.6780 N   0  0  0  0  0  0  0  0  0  0  0  0
   -2.0168    0.5953    2.3206 H   0  0  0  0  0  0  0  0  0  0  0  0
   -0.8319    0.7034    4.0877 C   0  0  0  0  0  0  0  0  0  0  0  0
   -0.0192    1.4288    4.1710 H   0  0  0  0  0  0  0  0  0  0  0  0
   -1.7255    1.1088    4.5641 H   0  0  0  0  0  0  0  0  0  0  0  0
   -0.5319   -0.2118    4.6011 H   0  0  0  0  0  0  0  0  0  0  0  0
  5  6  2  0  0  0  0
  5  7  1  0  0  0  0
  2  3  1  0  0  0  0
  2  4  1  0  0  0  0
  2  5  1  0  0  0  0
  1  2  1  0  0  0  0
 22 23  2  0  0  0  0
 22 24  1  0  0  0  0
 18 19  1  0  0  0  0
 18 20  1  0  0  0  0
 18 21  1  0  0  0  0
 17 18  1  0  0  0  0
 14 15  1  0  0  0  0
 14 16  1  0  0  0  0
 14 17  1  0  0  0  0
 11 12  1  0  0  0  0
 11 13  1  0  0  0  0
 11 14  1  0  0  0  0
  9 10  1  0  0  0  0
  9 11  1  0  0  0  0
  9 22  1  0  0  0  0
  7  8  1  0  0  0  0
  7  9  1  0  0  0  0
 26 27  1  0  0  0  0
 26 28  1  0  0  0  0
 26 29  1  0  0  0  0
 24 25  1  0  0  0  0
 24 26  1  0  0  0  0
M  END
$$$$
default_name
  -OEChem-02102213163D

 29 28  0     1  0  0  0  0  0999 V2000
   -3.5781   -3.7296    1.2702 H   0  0  0  0  0  0  0  0  0  0  0  0
   -3.5311   -2.7616    0.7732 C   0  0  0  0  0  0  0  0  0  0  0  0
   -4.2371   -2.0766    1.2382 H   0  0  0  0  0  0  0  0  0  0  0  0
   -3.7681   -2.8816   -0.2818 H   0  0  0  0  0  0  0  0  0  0  0  0
   -2.1321   -2.2086    0.9112 C   0  0  0  0  0  0  0  0  0  0  0  0
   -1.2751   -2.8426    1.5112 O   0  0  0  0  0  0  0  0  0  0  0  0
   -1.9041   -1.0186    0.3602 N   0  0  0  0  0  0  0  0  0  0  0  0
   -2.6671   -0.5416   -0.0988 H   0  0  0  0  0  0  0  0  0  0  0  0
   -0.6131   -0.3236    0.3832 C   0  0  1  0  0  0  0  0  0  0  0  0
    0.1346   -0.9625   -0.0894 H   0  0  0  0  0  0  0  0  0  0  0  0
   -0.7253    0.9751   -0.4365 C   0  0  0  0  0  0  0  0  0  0  0  0
   -1.6504    1.4856   -0.1604 H   0  0  0  0  0  0  0  0  0  0  0  0
    0.1119    1.6296   -0.1900 H   0  0  0  0  0  0  0  0  0  0  0  0
   -0.7366    0.7436   -1.9519 C   0  0  0  0  0  0  0  0  0  0  0  0
   -1.0689    1.6539   -2.4500 H   0  0  0  0  0  0  0  0  0  0  0  0
    0.2786    0.5156   -2.2789 H   0  0  0  0  0  0  0  0  0  0  0  0
   -1.8221   -0.6096   -2.4715 S   0  0  0  0  0  0  0  0  0  0  0  0
   -0.9056   -2.0187   -1.7958 C   0  0  0  0  0  0  0  0  0  0  0  0
   -0.8195   -1.9164   -0.7137 H   0  0  0  0  0  0  0  0  0  0  0  0
   -1.4384   -2.9412   -2.0280 H   0  0  0  0  0  0  0  0  0  0  0  0
    0.0893   -2.0575   -2.2402 H   0  0  0  0  0  0  0  0  0  0  0  0
   -0.1711   -0.0594    1.8296 C   0  0  0  0  0  0  0  0  0  0  0  0
    0.9865   -0.2908    2.1726 O   0  0  0  0  0  0  0  0  0  0  0  0
   -1.0921    0.4156    2.6780 N   0  0  0  0  0  0  0  0  0  0  0  0
   -2.0168    0.5953    2.3206 H   0  0  0  0  0  0  0  0  0  0  0  0
   -0.8319    0.7034    4.0877 C   0  0  0  0  0  0  0  0  0  0  0  0
   -0.0192    1.4288    4.1710 H   0  0  0  0  0  0  0  0  0  0  0  0
   -1.7255    1.1088    4.5641 H   0  0  0  0  0  0  0  0  0  0  0  0
   -0.5319   -0.2118    4.6011 H   0  0  0  0  0  0  0  0  0  0  0  0
  5  6  2  0  0  0  0
  5  7  1  0  0  0  0
  2  3  1  0  0  0  0
  2  4  1  0  0  0  0
  2  5  1  0  0  0  0
  1  2  1  0  0  0  0
 22 23  2  0  0  0  0
 22 24  1  0  0  0  0
 18 19  1  0  0  0  0
 18 20  1  0  0  0  0
 18 21  1  0  0  0  0
 17 18  1  0  0  0  0
 14 15  1  0  0  0  0
 14 16  1  0  0  0  0
 14 17  1  0  0  0  0
 11 12  1  0  0  0  0
 11 13  1  0  0  0  0
 11 14  1  0  0  0  0
  9 10  1  0  0  0  0
  9 11  1  0  0  0  0
  9 22  1  0  0  0  0
  7  8  1  0  0  0  0
  7  9  1  0  0  0  0
 26 27  1  0  0  0  0
 26 28  1  0  0  0  0
 26 29  1  0  0  0  0
 24 25  1  0  0  0  0
 24 26  1  0  0  0  0
M  END
$$$$
default_name
  -OEChem-02102213163D

 29 28  0     1  0  0  0  0  0999 V2000
   -3.5781   -3.7296    1.2702 H   0  0  0  0  0  0  0  0  0  0  0  0
   -3.5311   -2.7616    0.7732 C   0  0  0  0  0  0  0  0  0  0  0  0
   -4.2371   -2.0766    1.2382 H   0  0  0  0  0  0  0  0  0  0  0  0
   -3.7681   -2.8816   -0.2818 H   0  0  0  0  0  0  0  0  0  0  0  0
   -2.1321   -2.2086    0.9112 C   0  0  0  0  0  0  0  0  0  0  0  0
   -1.2751   -2.8426    1.5112 O   0  0  0  0  0  0  0  0  0  0  0  0
   -1.9041   -1.0186    0.3602 N   0  0  0  0  0  0  0  0  0  0  0  0
   -2.6671   -0.5416   -0.0988 H   0  0  0  0  0  0  0  0  0  0  0  0
   -0.6131   -0.3236    0.3832 C   0  0  1  0  0  0  0  0  0  0  0  0
    0.1346   -0.9625   -0.0894 H   0  0  0  0  0  0  0  0  0  0  0  0
   -0.7253    0.9751   -0.4365 C   0  0  0  0  0  0  0  0  0  0  0  0
   -1.6504    1.4856   -0.1604 H   0  0  0  0  0  0  0  0  0  0  0  0
    0.1119    1.6296   -0.1900 H   0  0  0  0  0  0  0  0  0  0  0  0
   -0.7366    0.7436   -1.9519 C   0  0  0  0  0  0  0  0  0  0  0  0
   -0.8053    1.7051   -2.4598 H   0  0  0  0  0  0  0  0  0  0  0  0
    0.1983    0.2612   -2.2395 H   0  0  0  0  0  0  0  0  0  0  0  0
   -2.1112   -0.2905   -2.5181 S   0  0  0  0  0  0  0  0  0  0  0  0
   -1.6127   -1.8823   -1.8114 C   0  0  0  0  0  0  0  0  0  0  0  0
   -1.5454   -1.7980   -0.7264 H   0  0  0  0  0  0  0  0  0  0  0  0
   -2.3544   -2.6395   -2.0673 H   0  0  0  0  0  0  0  0  0  0  0  0
   -0.6444   -2.1775   -2.2164 H   0  0  0  0  0  0  0  0  0  0  0  0
   -0.1711   -0.0594    1.8296 C   0  0  0  0  0  0  0  0  0  0  0  0
    0.9865   -0.2908    2.1726 O   0  0  0  0  0  0  0  0  0  0  0  0
   -1.0921    0.4156    2.6780 N   0  0  0  0  0  0  0  0  0  0  0  0
   -2.0168    0.5953    2.3206 H   0  0  0  0  0  0  0  0  0  0  0  0
   -0.8319    0.7034    4.0877 C   0  0  0  0  0  0  0  0  0  0  0  0
   -0.0192    1.4288    4.1710 H   0  0  0  0  0  0  0  0  0  0  0  0
   -1.7255    1.1088    4.5641 H   0  0  0  0  0  0  0  0  0  0  0  0
   -0.5319   -0.2118    4.6011 H   0  0  0  0  0  0  0  0  0  0  0  0
  5  6  2  0  0  0  0
  5  7  1  0  0  0  0
  2  3  1  0  0  0  0
  2  4  1  0  0  0  0
  2  5  1  0  0  0  0
  1  2  1  0  0  0  0
 22 23  2  0  0  0  0
 22 24  1  0  0  0  0
 18 19  1  0  0  0  0
 18 20  1  0  0  0  0
 18 21  1  0  0  0  0
 17 18  1  0  0  0  0
 14 15  1  0  0  0  0
 14 16  1  0  0  0  0
 14 17  1  0  0  0  0
 11 12  1  0  0  0  0
 11 13  1  0  0  0  0
 11 14  1  0  0  0  0
  9 10  1  0  0  0  0
  9 11  1  0  0  0  0
  9 22  1  0  0  0  0
  7  8  1  0  0  0  0
  7  9  1  0  0  0  0
 26 27  1  0  0  0  0
 26 28  1  0  0  0  0
 26 29  1  0  0  0  0
 24 25  1  0  0  0  0
 24 26  1  0  0  0  0
M  END
$$$$
default_name
  -OEChem-02102213163D

 29 28  0     1  0  0  0  0  0999 V2000
   -3.5781   -3.7296    1.2702 H   0  0  0  0  0  0  0  0  0  0  0  0
   -3.5311   -2.7616    0.7732 C   0  0  0  0  0  0  0  0  0  0  0  0
   -4.2371   -2.0766    1.2382 H   0  0  0  0  0  0  0  0  0  0  0  0
   -3.7681   -2.8816   -0.2818 H   0  0  0  0  0  0  0  0  0  0  0  0
   -2.1321   -2.2086    0.9112 C   0  0  0  0  0  0  0  0  0  0  0  0
   -1.2751   -2.8426    1.5112 O   0  0  0  0  0  0  0  0  0  0  0  0
   -1.9041   -1.0186    0.3602 N   0  0  0  0  0  0  0  0  0  0  0  0
   -2.6671   -0.5416   -0.0988 H   0  0  0  0  0  0  0  0  0  0  0  0
   -0.6131   -0.3236    0.3832 C   0  0  1  0  0  0  0  0  0  0  0  0
    0.1346   -0.9625   -0.0894 H   0  0  0  0  0  0  0  0  0  0  0  0
   -0.7253    0.9751   -0.4365 C   0  0  0  0  0  0  0  0  0  0  0  0
   -1.6504    1.4856   -0.1604 H   0  0  0  0  0  0  0  0  0  0  0  0
    0.1119    1.6296   -0.1900 H   0  0  0  0  0  0  0  0  0  0  0  0
   -0.7366    0.7436   -1.9519 C   0  0  0  0  0  0  0  0  0  0  0  0
   -0.5372    1.6872   -2.4590 H   0  0  0  0  0  0  0  0  0  0  0  0
    0.0542    0.0361   -2.2041 H   0  0  0  0  0  0  0  0  0  0  0  0
   -2.3070    0.0916   -2.5750 S   0  0  0  0  0  0  0  0  0  0  0  0
   -2.2603   -1.5698   -1.8543 C   0  0  0  0  0  0  0  0  0  0  0  0
   -2.2158   -1.4979   -0.7672 H   0  0  0  0  0  0  0  0  0  0  0  0
   -3.1605   -2.1138   -2.1416 H   0  0  0  0  0  0  0  0  0  0  0  0
   -1.3847   -2.1057   -2.2219 H   0  0  0  0  0  0  0  0  0  0  0  0
   -0.1711   -0.0594    1.8296 C   0  0  0  0  0  0  0  0  0  0  0  0
    0.9865   -0.2908    2.1726 O   0  0  0  0  0  0  0  0  0  0  0  0
   -1.0921    0.4156    2.6780 N   0  0  0  0  0  0  0  0  0  0  0  0
   -2.0168    0.5953    2.3206 H   0  0  0  0  0  0  0  0  0  0  0  0
   -0.8319    0.7034    4.0877 C   0  0  0  0  0  0  0  0  0  0  0  0
   -0.0192    1.4288    4.1710 H   0  0  0  0  0  0  0  0  0  0  0  0
   -1.7255    1.1088    4.5641 H   0  0  0  0  0  0  0  0  0  0  0  0
   -0.5319   -0.2118    4.6011 H   0  0  0  0  0  0  0  0  0  0  0  0
  5  6  2  0  0  0  0
  5  7  1  0  0  0  0
  2  3  1  0  0  0  0
  2  4  1  0  0  0  0
  2  5  1  0  0  0  0
  1  2  1  0  0  0  0
 22 23  2  0  0  0  0
 22 24  1  0  0  0  0
 18 19  1  0  0  0  0
 18 20  1  0  0  0  0
 18 21  1  0  0  0  0
 17 18  1  0  0  0  0
 14 15  1  0  0  0  0
 14 16  1  0  0  0  0
 14 17  1  0  0  0  0
 11 12  1  0  0  0  0
 11 13  1  0  0  0  0
 11 14  1  0  0  0  0
  9 10  1  0  0  0  0
  9 11  1  0  0  0  0
  9 22  1  0  0  0  0
  7  8  1  0  0  0  0
  7  9  1  0  0  0  0
 26 27  1  0  0  0  0
 26 28  1  0  0  0  0
 26 29  1  0  0  0  0
 24 25  1  0  0  0  0
 24 26  1  0  0  0  0
M  END
$$$$
default_name
  -OEChem-02102213163D

 29 28  0     1  0  0  0  0  0999 V2000
   -3.5781   -3.7296    1.2702 H   0  0  0  0  0  0  0  0  0  0  0  0
   -3.5311   -2.7616    0.7732 C   0  0  0  0  0  0  0  0  0  0  0  0
   -4.2371   -2.0766    1.2382 H   0  0  0  0  0  0  0  0  0  0  0  0
   -3.7681   -2.8816   -0.2818 H   0  0  0  0  0  0  0  0  0  0  0  0
   -2.1321   -2.2086    0.9112 C   0  0  0  0  0  0  0  0  0  0  0  0
   -1.2751   -2.8426    1.5112 O   0  0  0  0  0  0  0  0  0  0  0  0
   -1.9041   -1.0186    0.3602 N   0  0  0  0  0  0  0  0  0  0  0  0
   -2.6671   -0.5416   -0.0988 H   0  0  0  0  0  0  0  0  0  0  0  0
   -0.6131   -0.3236    0.3832 C   0  0  1  0  0  0  0  0  0  0  0  0
    0.1346   -0.9625   -0.0894 H   0  0  0  0  0  0  0  0  0  0  0  0
   -0.7253    0.9751   -0.4365 C   0  0  0  0  0  0  0  0  0  0  0  0
   -1.6504    1.4856   -0.1604 H   0  0  0  0  0  0  0  0  0  0  0  0
    0.1119    1.6296   -0.1900 H   0  0  0  0  0  0  0  0  0  0  0  0
   -0.7366    0.7436   -1.9519 C   0  0  0  0  0  0  0  0  0  0  0  0
   -0.2829    1.6012   -2.4478 H   0  0  0  0  0  0  0  0  0  0  0  0
   -0.1440   -0.1444   -2.1750 H   0  0  0  0  0  0  0  0  0  0  0  0
   -2.3962    0.5107   -2.6383 S   0  0  0  0  0  0  0  0  0  0  0  0
   -2.8041   -1.1023   -1.9217 C   0  0  0  0  0  0  0  0  0  0  0  0
   -2.7850   -1.0366   -0.8334 H   0  0  0  0  0  0  0  0  0  0  0  0
   -3.8017   -1.3999   -2.2458 H   0  0  0  0  0  0  0  0  0  0  0  0
   -2.0813   -1.8469   -2.2563 H   0  0  0  0  0  0  0  0  0  0  0  0
   -0.1711   -0.0594    1.8296 C   0  0  0  0  0  0  0  0  0  0  0  0
    0.9865   -0.2908    2.1726 O   0  0  0  0  0  0  0  0  0  0  0  0
   -1.0921    0.4156    2.6780 N   0  0  0  0  0  0  0  0  0  0  0  0
   -2.0168    0.5953    2.3206 H   0  0  0  0  0  0  0  0  0  0  0  0
   -0.8319    0.7034    4.0877 C   0  0  0  0  0  0  0  0  0  0  0  0
   -0.0192    1.4288    4.1710 H   0  0  0  0  0  0  0  0  0  0  0  0
   -1.7255    1.1088    4.5641 H   0  0  0  0  0  0  0  0  0  0  0  0
   -0.5319   -0.2118    4.6011 H   0  0  0  0  0  0  0  0  0  0  0  0
  5  6  2  0  0  0  0
  5  7  1  0  0  0  0
  2  3  1  0  0  0  0
  2  4  1  0  0  0  0
  2  5  1  0  0  0  0
  1  2  1  0  0  0  0
 22 23  2  0  0  0  0
 22 24  1  0  0  0  0
 18 19  1  0  0  0  0
 18 20  1  0  0  0  0
 18 21  1  0  0  0  0
 17 18  1  0  0  0  0
 14 15  1  0  0  0  0
 14 16  1  0  0  0  0
 14 17  1  0  0  0  0
 11 12  1  0  0  0  0
 11 13  1  0  0  0  0
 11 14  1  0  0  0  0
  9 10  1  0  0  0  0
  9 11  1  0  0  0  0
  9 22  1  0  0  0  0
  7  8  1  0  0  0  0
  7  9  1  0  0  0  0
 26 27  1  0  0  0  0
 26 28  1  0  0  0  0
 26 29  1  0  0  0  0
 24 25  1  0  0  0  0
 24 26  1  0  0  0  0
M  END
$$$$
default_name
  -OEChem-02102213163D

 29 28  0     1  0  0  0  0  0999 V2000
   -3.5781   -3.7296    1.2702 H   0  0  0  0  0  0  0  0  0  0  0  0
   -3.5311   -2.7616    0.7732 C   0  0  0  0  0  0  0  0  0  0  0  0
   -4.2371   -2.0766    1.2382 H   0  0  0  0  0  0  0  0  0  0  0  0
   -3.7681   -2.8816   -0.2818 H   0  0  0  0  0  0  0  0  0  0  0  0
   -2.1321   -2.2086    0.9112 C   0  0  0  0  0  0  0  0  0  0  0  0
   -1.2751   -2.8426    1.5112 O   0  0  0  0  0  0  0  0  0  0  0  0
   -1.9041   -1.0186    0.3602 N   0  0  0  0  0  0  0  0  0  0  0  0
   -2.6671   -0.5416   -0.0988 H   0  0  0  0  0  0  0  0  0  0  0  0
   -0.6131   -0.3236    0.3832 C   0  0  1  0  0  0  0  0  0  0  0  0
    0.1346   -0.9625   -0.0894 H   0  0  0  0  0  0  0  0  0  0  0  0
   -0.7253    0.9751   -0.4365 C   0  0  0  0  0  0  0  0  0  0  0  0
   -1.6504    1.4856   -0.1604 H   0  0  0  0  0  0  0  0  0  0  0  0
    0.1119    1.6296   -0.1900 H   0  0  0  0  0  0  0  0  0  0  0  0
   -0.7366    0.7436   -1.9519 C   0  0  0  0  0  0  0  0  0  0  0  0
   -0.0597    1.4531   -2.4268 H   0  0  0  0  0  0  0  0  0  0  0  0
   -0.3828   -0.2679   -2.1544 H   0  0  0  0  0  0  0  0  0  0  0  0
   -2.3726    0.9382   -2.7038 S   0  0  0  0  0  0  0  0  0  0  0  0
   -3.2072   -0.5117   -2.0089 C   0  0  0  0  0  0  0  0  0  0  0  0
   -3.2141   -0.4455   -0.9205 H   0  0  0  0  0  0  0  0  0  0  0  0
   -4.2344   -0.5465   -2.3730 H   0  0  0  0  0  0  0  0  0  0  0  0
   -2.6865   -1.4188   -2.3171 H   0  0  0  0  0  0  0  0  0  0  0  0
   -0.1711   -0.0594    1.8296 C   0  0  0  0  0  0  0  0  0  0  0  0
    0.9865   -0.2908    2.1726 O   0  0  0  0  0  0  0  0  0  0  0  0
   -1.0921    0.4156    2.6780 N   0  0  0  0  0  0  0  0  0  0  0  0
   -2.0168    0.5953    2.3206 H   0  0  0  0  0  0  0  0  0  0  0  0
   -0.8319    0.7034    4.0877 C   0  0  0  0  0  0  0  0  0  0  0  0
   -0.0192    1.4288    4.1710 H   0  0  0  0  0  0  0  0  0  0  0  0
   -1.7255    1.1088    4.5641 H   0  0  0  0  0  0  0  0  0  0  0  0
   -0.5319   -0.2118    4.6011 H   0  0  0  0  0  0  0  0  0  0  0  0
  5  6  2  0  0  0  0
  5  7  1  0  0  0  0
  2  3  1  0  0  0  0
  2  4  1  0  0  0  0
  2  5  1  0  0  0  0
  1  2  1  0  0  0  0
 22 23  2  0  0  0  0
 22 24  1  0  0  0  0
 18 19  1  0  0  0  0
 18 20  1  0  0  0  0
 18 21  1  0  0  0  0
 17 18  1  0  0  0  0
 14 15  1  0  0  0  0
 14 16  1  0  0  0  0
 14 17  1  0  0  0  0
 11 12  1  0  0  0  0
 11 13  1  0  0  0  0
 11 14  1  0  0  0  0
  9 10  1  0  0  0  0
  9 11  1  0  0  0  0
  9 22  1  0  0  0  0
  7  8  1  0  0  0  0
  7  9  1  0  0  0  0
 26 27  1  0  0  0  0
 26 28  1  0  0  0  0
 26 29  1  0  0  0  0
 24 25  1  0  0  0  0
 24 26  1  0  0  0  0
M  END
$$$$
default_name
  -OEChem-02102213163D

 29 28  0     1  0  0  0  0  0999 V2000
   -3.5781   -3.7296    1.2702 H   0  0  0  0  0  0  0  0  0  0  0  0
   -3.5311   -2.7616    0.7732 C   0  0  0  0  0  0  0  0  0  0  0  0
   -4.2371   -2.0766    1.2382 H   0  0  0  0  0  0  0  0  0  0  0  0
   -3.7681   -2.8816   -0.2818 H   0  0  0  0  0  0  0  0  0  0  0  0
   -2.1321   -2.2086    0.9112 C   0  0  0  0  0  0  0  0  0  0  0  0
   -1.2751   -2.8426    1.5112 O   0  0  0  0  0  0  0  0  0  0  0  0
   -1.9041   -1.0186    0.3602 N   0  0  0  0  0  0  0  0  0  0  0  0
   -2.6671   -0.5416   -0.0988 H   0  0  0  0  0  0  0  0  0  0  0  0
   -0.6131   -0.3236    0.3832 C   0  0  1  0  0  0  0  0  0  0  0  0
    0.1346   -0.9625   -0.0894 H   0  0  0  0  0  0  0  0  0  0  0  0
   -0.7253    0.9751   -0.4365 C   0  0  0  0  0  0  0  0  0  0  0  0
   -1.6504    1.4856   -0.1604 H   0  0  0  0  0  0  0  0  0  0  0  0
    0.1119    1.6296   -0.1900 H   0  0  0  0  0  0  0  0  0  0  0  0
   -0.7366    0.7436   -1.9519 C   0  0  0  0  0  0  0  0  0  0  0  0
    0.1173    1.2530   -2.3976 H   0  0  0  0  0  0  0  0  0  0  0  0
   -0.6458   -0.3262   -2.1435 H   0  0  0  0  0  0  0  0  0  0  0  0
   -2.2378    1.3450   -2.7669 S   0  0  0  0  0  0  0  0  0  0  0  0
   -3.4420    0.1617   -2.1100 C   0  0  0  0  0  0  0  0  0  0  0  0
   -3.4740    0.2351   -1.0225 H   0  0  0  0  0  0  0  0  0  0  0  0
   -4.4290    0.3883   -2.5143 H   0  0  0  0  0  0  0  0  0  0  0  0
   -3.1592   -0.8505   -2.4004 H   0  0  0  0  0  0  0  0  0  0  0  0
   -0.1711   -0.0594    1.8296 C   0  0  0  0  0  0  0  0  0  0  0  0
    0.9865   -0.2908    2.1726 O   0  0  0  0  0  0  0  0  0  0  0  0
   -1.0921    0.4156    2.6780 N   0  0  0  0  0  0  0  0  0  0  0  0
   -2.0168    0.5953    2.3206 H   0  0  0  0  0  0  0  0  0  0  0  0
   -0.8319    0.7034    4.0877 C   0  0  0  0  0  0  0  0  0  0  0  0
   -0.0192    1.4288    4.1710 H   0  0  0  0  0  0  0  0  0  0  0  0
   -1.7255    1.1088    4.5641 H   0  0  0  0  0  0  0  0  0  0  0  0
   -0.5319   -0.2118    4.6011 H   0  0  0  0  0  0  0  0  0  0  0  0
  5  6  2  0  0  0  0
  5  7  1  0  0  0  0
  2  3  1  0  0  0  0
  2  4  1  0  0  0  0
  2  5  1  0  0  0  0
  1  2  1  0  0  0  0
 22 23  2  0  0  0  0
 22 24  1  0  0  0  0
 18 19  1  0  0  0  0
 18 20  1  0  0  0  0
 18 21  1  0  0  0  0
 17 18  1  0  0  0  0
 14 15  1  0  0  0  0
 14 16  1  0  0  0  0
 14 17  1  0  0  0  0
 11 12  1  0  0  0  0
 11 13  1  0  0  0  0
 11 14  1  0  0  0  0
  9 10  1  0  0  0  0
  9 11  1  0  0  0  0
  9 22  1  0  0  0  0
  7  8  1  0  0  0  0
  7  9  1  0  0  0  0
 26 27  1  0  0  0  0
 26 28  1  0  0  0  0
 26 29  1  0  0  0  0
 24 25  1  0  0  0  0
 24 26  1  0  0  0  0
M  END
$$$$
default_name
  -OEChem-02102213163D

 29 28  0     1  0  0  0  0  0999 V2000
   -3.5781   -3.7296    1.2702 H   0  0  0  0  0  0  0  0  0  0  0  0
   -3.5311   -2.7616    0.7732 C   0  0  0  0  0  0  0  0  0  0  0  0
   -4.2371   -2.0766    1.2382 H   0  0  0  0  0  0  0  0  0  0  0  0
   -3.7681   -2.8816   -0.2818 H   0  0  0  0  0  0  0  0  0  0  0  0
   -2.1321   -2.2086    0.9112 C   0  0  0  0  0  0  0  0  0  0  0  0
   -1.2751   -2.8426    1.5112 O   0  0  0  0  0  0  0  0  0  0  0  0
   -1.9041   -1.0186    0.3602 N   0  0  0  0  0  0  0  0  0  0  0  0
   -2.6671   -0.5416   -0.0988 H   0  0  0  0  0  0  0  0  0  0  0  0
   -0.6131   -0.3236    0.3832 C   0  0  1  0  0  0  0  0  0  0  0  0
    0.1346   -0.9625   -0.0894 H   0  0  0  0  0  0  0  0  0  0  0  0
   -0.7253    0.9751   -0.4365 C   0  0  0  0  0  0  0  0  0  0  0  0
   -1.6504    1.4856   -0.1604 H   0  0  0  0  0  0  0  0  0  0  0  0
    0.1119    1.6296   -0.1900 H   0  0  0  0  0  0  0  0  0  0  0  0
   -0.7366    0.7436   -1.9519 C   0  0  0  0  0  0  0  0  0  0  0  0
    0.2358    1.0146   -2.3621 H   0  0  0  0  0  0  0  0  0  0  0  0
   -0.9152   -0.3151   -2.1432 H   0  0  0  0  0  0  0  0  0  0  0  0
   -2.0012    1.7033   -2.8234 S   0  0  0  0  0  0  0  0  0  0  0  0
   -3.4926    0.8721   -2.2181 C   0  0  0  0  0  0  0  0  0  0  0  0
   -3.5470    0.9588   -1.1325 H   0  0  0  0  0  0  0  0  0  0  0  0
   -4.3722    1.3408   -2.6602 H   0  0  0  0  0  0  0  0  0  0  0  0
   -3.4671   -0.1808   -2.5004 H   0  0  0  0  0  0  0  0  0  0  0  0
   -0.1711   -0.0594    1.8296 C   0  0  0  0  0  0  0  0  0  0  0  0
    0.9865   -0.2908    2.1726 O   0  0  0  0  0  0  0  0  0  0  0  0
   -1.0921    0.4156    2.6780 N   0  0  0  0  0  0  0  0  0  0  0  0
   -2.0168    0.5953    2.3206 H   0  0  0  0  0  0  0  0  0  0  0  0
   -0.8319    0.7034    4.0877 C   0  0  0  0  0  0  0  0  0  0  0  0
   -0.0192    1.4288    4.1710 H   0  0  0  0  0  0  0  0  0  0  0  0
   -1.7255    1.1088    4.5641 H   0  0  0  0  0  0  0  0  0  0  0  0
   -0.5319   -0.2118    4.6011 H   0  0  0  0  0  0  0  0  0  0  0  0
  5  6  2  0  0  0  0
  5  7  1  0  0  0  0
  2  3  1  0  0  0  0
  2  4  1  0  0  0  0
  2  5  1  0  0  0  0
  1  2  1  0  0  0  0
 22 23  2  0  0  0  0
 22 24  1  0  0  0  0
 18 19  1  0  0  0  0
 18 20  1  0  0  0  0
 18 21  1  0  0  0  0
 17 18  1  0  0  0  0
 14 15  1  0  0  0  0
 14 16  1  0  0  0  0
 14 17  1  0  0  0  0
 11 12  1  0  0  0  0
 11 13  1  0  0  0  0
 11 14  1  0  0  0  0
  9 10  1  0  0  0  0
  9 11  1  0  0  0  0
  9 22  1  0  0  0  0
  7  8  1  0  0  0  0
  7  9  1  0  0  0  0
 26 27  1  0  0  0  0
 26 28  1  0  0  0  0
 26 29  1  0  0  0  0
 24 25  1  0  0  0  0
 24 26  1  0  0  0  0
M  END
$$$$
default_name
  -OEChem-02102213163D

 29 28  0     1  0  0  0  0  0999 V2000
   -3.5781   -3.7296    1.2702 H   0  0  0  0  0  0  0  0  0  0  0  0
   -3.5311   -2.7616    0.7732 C   0  0  0  0  0  0  0  0  0  0  0  0
   -4.2371   -2.0766    1.2382 H   0  0  0  0  0  0  0  0  0  0  0  0
   -3.7681   -2.8816   -0.2818 H   0  0  0  0  0  0  0  0  0  0  0  0
   -2.1321   -2.2086    0.9112 C   0  0  0  0  0  0  0  0  0  0  0  0
   -1.2751   -2.8426    1.5112 O   0  0  0  0  0  0  0  0  0  0  0  0
   -1.9041   -1.0186    0.3602 N   0  0  0  0  0  0  0  0  0  0  0  0
   -2.6671   -0.5416   -0.0988 H   0  0  0  0  0  0  0  0  0  0  0  0
   -0.6131   -0.3236    0.3832 C   0  0  1  0  0  0  0  0  0  0  0  0
    0.1346   -0.9625   -0.0894 H   0  0  0  0  0  0  0  0  0  0  0  0
   -0.7253    0.9751   -0.4365 C   0  0  0  0  0  0  0  0  0  0  0  0
   -1.6504    1.4856   -0.1604 H   0  0  0  0  0  0  0  0  0  0  0  0
    0.1119    1.6296   -0.1900 H   0  0  0  0  0  0  0  0  0  0  0  0
   -0.7366    0.7436   -1.9519 C   0  0  0  0  0  0  0  0  0  0  0  0
    0.2879    0.7539   -2.3226 H   0  0  0  0  0  0  0  0  0  0  0  0
   -1.1726   -0.2355   -2.1535 H   0  0  0  0  0  0  0  0  0  0  0  0
   -1.6787    1.9888   -2.8694 S   0  0  0  0  0  0  0  0  0  0  0  0
   -3.3555    1.5709   -2.3258 C   0  0  0  0  0  0  0  0  0  0  0  0
   -3.4280    1.6763   -1.2430 H   0  0  0  0  0  0  0  0  0  0  0  0
   -4.0681    2.2460   -2.8006 H   0  0  0  0  0  0  0  0  0  0  0  0
   -3.5894    0.5446   -2.6103 H   0  0  0  0  0  0  0  0  0  0  0  0
   -0.1711   -0.0594    1.8296 C   0  0  0  0  0  0  0  0  0  0  0  0
    0.9865   -0.2908    2.1726 O   0  0  0  0  0  0  0  0  0  0  0  0
   -1.0921    0.4156    2.6780 N   0  0  0  0  0  0  0  0  0  0  0  0
   -2.0168    0.5953    2.3206 H   0  0  0  0  0  0  0  0  0  0  0  0
   -0.8319    0.7034    4.0877 C   0  0  0  0  0  0  0  0  0  0  0  0
   -0.0192    1.4288    4.1710 H   0  0  0  0  0  0  0  0  0  0  0  0
   -1.7255    1.1088    4.5641 H   0  0  0  0  0  0  0  0  0  0  0  0
   -0.5319   -0.2118    4.6011 H   0  0  0  0  0  0  0  0  0  0  0  0
  5  6  2  0  0  0  0
  5  7  1  0  0  0  0
  2  3  1  0  0  0  0
  2  4  1  0  0  0  0
  2  5  1  0  0  0  0
  1  2  1  0  0  0  0
 22 23  2  0  0  0  0
 22 24  1  0  0  0  0
 18 19  1  0  0  0  0
 18 20  1  0  0  0  0
 18 21  1  0  0  0  0
 17 18  1  0  0  0  0
 14 15  1  0  0  0  0
 14 16  1  0  0  0  0
 14 17  1  0  0  0  0
 11 12  1  0  0  0  0
 11 13  1  0  0  0  0
 11 14  1  0  0  0  0
  9 10  1  0  0  0  0
  9 11  1  0  0  0  0
  9 22  1  0  0  0  0
  7  8  1  0  0  0  0
  7  9  1  0  0  0  0
 26 27  1  0  0  0  0
 26 28  1  0  0  0  0
 26 29  1  0  0  0  0
 24 25  1  0  0  0  0
 24 26  1  0  0  0  0
M  END
$$$$
default_name
  -OEChem-02102213163D

 29 28  0     1  0  0  0  0  0999 V2000
   -3.5781   -3.7296    1.2702 H   0  0  0  0  0  0  0  0  0  0  0  0
   -3.5311   -2.7616    0.7732 C   0  0  0  0  0  0  0  0  0  0  0  0
   -4.2371   -2.0766    1.2382 H   0  0  0  0  0  0  0  0  0  0  0  0
   -3.7681   -2.8816   -0.2818 H   0  0  0  0  0  0  0  0  0  0  0  0
   -2.1321   -2.2086    0.9112 C   0  0  0  0  0  0  0  0  0  0  0  0
   -1.2751   -2.8426    1.5112 O   0  0  0  0  0  0  0  0  0  0  0  0
   -1.9041   -1.0186    0.3602 N   0  0  0  0  0  0  0  0  0  0  0  0
   -2.6671   -0.5416   -0.0988 H   0  0  0  0  0  0  0  0  0  0  0  0
   -0.6131   -0.3236    0.3832 C   0  0  1  0  0  0  0  0  0  0  0  0
    0.1346   -0.9625   -0.0894 H   0  0  0  0  0  0  0  0  0  0  0  0
   -0.7253    0.9751   -0.4365 C   0  0  0  0  0  0  0  0  0  0  0  0
   -1.6504    1.4856   -0.1604 H   0  0  0  0  0  0  0  0  0  0  0  0
    0.1119    1.6296   -0.1900 H   0  0  0  0  0  0  0  0  0  0  0  0
   -0.7366    0.7436   -1.9519 C   0  0  0  0  0  0  0  0  0  0  0  0
    0.2701    0.4889   -2.2820 H   0  0  0  0  0  0  0  0  0  0  0  0
   -1.4004   -0.0927   -2.1736 H   0  0  0  0  0  0  0  0  0  0  0  0
   -1.2923    2.1819   -2.9017 S   0  0  0  0  0  0  0  0  0  0  0  0
   -3.0401    2.2107   -2.4259 C   0  0  0  0  0  0  0  0  0  0  0  0
   -3.1251    2.3386   -1.3464 H   0  0  0  0  0  0  0  0  0  0  0  0
   -3.5372    3.0422   -2.9262 H   0  0  0  0  0  0  0  0  0  0  0  0
   -3.5175    1.2765   -2.7226 H   0  0  0  0  0  0  0  0  0  0  0  0
   -0.1711   -0.0594    1.8296 C   0  0  0  0  0  0  0  0  0  0  0  0
    0.9865   -0.2908    2.1726 O   0  0  0  0  0  0  0  0  0  0  0  0
   -1.0921    0.4156    2.6780 N   0  0  0  0  0  0  0  0  0  0  0  0
   -2.0168    0.5953    2.3206 H   0  0  0  0  0  0  0  0  0  0  0  0
   -0.8319    0.7034    4.0877 C   0  0  0  0  0  0  0  0  0  0  0  0
   -0.0192    1.4288    4.1710 H   0  0  0  0  0  0  0  0  0  0  0  0
   -1.7255    1.1088    4.5641 H   0  0  0  0  0  0  0  0  0  0  0  0
   -0.5319   -0.2118    4.6011 H   0  0  0  0  0  0  0  0  0  0  0  0
  5  6  2  0  0  0  0
  5  7  1  0  0  0  0
  2  3  1  0  0  0  0
  2  4  1  0  0  0  0
  2  5  1  0  0  0  0
  1  2  1  0  0  0  0
 22 23  2  0  0  0  0
 22 24  1  0  0  0  0
 18 19  1  0  0  0  0
 18 20  1  0  0  0  0
 18 21  1  0  0  0  0
 17 18  1  0  0  0  0
 14 15  1  0  0  0  0
 14 16  1  0  0  0  0
 14 17  1  0  0  0  0
 11 12  1  0  0  0  0
 11 13  1  0  0  0  0
 11 14  1  0  0  0  0
  9 10  1  0  0  0  0
  9 11  1  0  0  0  0
  9 22  1  0  0  0  0
  7  8  1  0  0  0  0
  7  9  1  0  0  0  0
 26 27  1  0  0  0  0
 26 28  1  0  0  0  0
 26 29  1  0  0  0  0
 24 25  1  0  0  0  0
 24 26  1  0  0  0  0
M  END
$$$$
default_name
  -OEChem-02102213163D

 29 28  0     1  0  0  0  0  0999 V2000
   -3.5781   -3.7296    1.2702 H   0  0  0  0  0  0  0  0  0  0  0  0
   -3.5311   -2.7616    0.7732 C   0  0  0  0  0  0  0  0  0  0  0  0
   -4.2371   -2.0766    1.2382 H   0  0  0  0  0  0  0  0  0  0  0  0
   -3.7681   -2.8816   -0.2818 H   0  0  0  0  0  0  0  0  0  0  0  0
   -2.1321   -2.2086    0.9112 C   0  0  0  0  0  0  0  0  0  0  0  0
   -1.2751   -2.8426    1.5112 O   0  0  0  0  0  0  0  0  0  0  0  0
   -1.9041   -1.0186    0.3602 N   0  0  0  0  0  0  0  0  0  0  0  0
   -2.6671   -0.5416   -0.0988 H   0  0  0  0  0  0  0  0  0  0  0  0
   -0.6131   -0.3236    0.3832 C   0  0  1  0  0  0  0  0  0  0  0  0
    0.1346   -0.9625   -0.0894 H   0  0  0  0  0  0  0  0  0  0  0  0
   -0.7253    0.9751   -0.4365 C   0  0  0  0  0  0  0  0  0  0  0  0
   -1.4891    1.6110    0.0161 H   0  0  0  0  0  0  0  0  0  0  0  0
    0.2265    1.5069   -0.4000 H   0  0  0  0  0  0  0  0  0  0  0  0
   -1.1004    0.7421   -1.9046 C   0  0  0  0  0  0  0  0  0  0  0  0
   -0.3442    0.1113   -2.3709 H   0  0  0  0  0  0  0  0  0  0  0  0
   -2.0602    0.2257   -1.9432 H   0  0  0  0  0  0  0  0  0  0  0  0
   -1.2330    2.2680   -2.8708 S   0  0  0  0  0  0  0  0  0  0  0  0
   -2.7204    2.9807   -2.1216 C   0  0  0  0  0  0  0  0  0  0  0  0
   -2.5517    3.1488   -1.0575 H   0  0  0  0  0  0  0  0  0  0  0  0
   -2.9477    3.9319   -2.6036 H   0  0  0  0  0  0  0  0  0  0  0  0
   -3.5620    2.3005   -2.2558 H   0  0  0  0  0  0  0  0  0  0  0  0
   -0.1711   -0.0594    1.8296 C   0  0  0  0  0  0  0  0  0  0  0  0
    0.9865   -0.2908    2.1726 O   0  0  0  0  0  0  0  0  0  0  0  0
   -1.0921    0.4156    2.6780 N   0  0  0  0  0  0  0  0  0  0  0  0
   -2.0168    0.5953    2.3206 H   0  0  0  0  0  0  0  0  0  0  0  0
   -0.8319    0.7034    4.0877 C   0  0  0  0  0  0  0  0  0  0  0  0
   -0.0192    1.4288    4.1710 H   0  0  0  0  0  0  0  0  0  0  0  0
   -1.7255    1.1088    4.5641 H   0  0  0  0  0  0  0  0  0  0  0  0
   -0.5319   -0.2118    4.6011 H   0  0  0  0  0  0  0  0  0  0  0  0
  5  6  2  0  0  0  0
  5  7  1  0  0  0  0
  2  3  1  0  0  0  0
  2  4  1  0  0  0  0
  2  5  1  0  0  0  0
  1  2  1  0  0  0  0
 22 23  2  0  0  0  0
 22 24  1  0  0  0  0
 18 19  1  0  0  0  0
 18 20  1  0  0  0  0
 18 21  1  0  0  0  0
 17 18  1  0  0  0  0
 14 15  1  0  0  0  0
 14 16  1  0  0  0  0
 14 17  1  0  0  0  0
 11 12  1  0  0  0  0
 11 13  1  0  0  0  0
 11 14  1  0  0  0  0
  9 10  1  0  0  0  0
  9 11  1  0  0  0  0
  9 22  1  0  0  0  0
  7  8  1  0  0  0  0
  7  9  1  0  0  0  0
 26 27  1  0  0  0  0
 26 28  1  0  0  0  0
 26 29  1  0  0  0  0
 24 25  1  0  0  0  0
 24 26  1  0  0  0  0
M  END
$$$$
default_name
  -OEChem-02102213163D

 29 28  0     1  0  0  0  0  0999 V2000
   -3.5781   -3.7296    1.2702 H   0  0  0  0  0  0  0  0  0  0  0  0
   -3.5311   -2.7616    0.7732 C   0  0  0  0  0  0  0  0  0  0  0  0
   -4.2371   -2.0766    1.2382 H   0  0  0  0  0  0  0  0  0  0  0  0
   -3.7681   -2.8816   -0.2818 H   0  0  0  0  0  0  0  0  0  0  0  0
   -2.1321   -2.2086    0.9112 C   0  0  0  0  0  0  0  0  0  0  0  0
   -1.2751   -2.8426    1.5112 O   0  0  0  0  0  0  0  0  0  0  0  0
   -1.9041   -1.0186    0.3602 N   0  0  0  0  0  0  0  0  0  0  0  0
   -2.6671   -0.5416   -0.0988 H   0  0  0  0  0  0  0  0  0  0  0  0
   -0.6131   -0.3236    0.3832 C   0  0  1  0  0  0  0  0  0  0  0  0
    0.1346   -0.9625   -0.0894 H   0  0  0  0  0  0  0  0  0  0  0  0
   -0.7253    0.9751   -0.4365 C   0  0  0  0  0  0  0  0  0  0  0  0
   -1.4891    1.6110    0.0161 H   0  0  0  0  0  0  0  0  0  0  0  0
    0.2265    1.5069   -0.4000 H   0  0  0  0  0  0  0  0  0  0  0  0
   -1.1004    0.7421   -1.9046 C   0  0  0  0  0  0  0  0  0  0  0  0
   -0.5109   -0.0860   -2.2970 H   0  0  0  0  0  0  0  0  0  0  0  0
   -2.1569    0.4769   -1.9583 H   0  0  0  0  0  0  0  0  0  0  0  0
   -0.8183    2.1839   -2.9634 S   0  0  0  0  0  0  0  0  0  0  0  0
   -2.1041    3.2909   -2.3283 C   0  0  0  0  0  0  0  0  0  0  0  0
   -1.9322    3.4844   -1.2690 H   0  0  0  0  0  0  0  0  0  0  0  0
   -2.0719    4.2335   -2.8752 H   0  0  0  0  0  0  0  0  0  0  0  0
   -3.0839    2.8316   -2.4623 H   0  0  0  0  0  0  0  0  0  0  0  0
   -0.1711   -0.0594    1.8296 C   0  0  0  0  0  0  0  0  0  0  0  0
    0.9865   -0.2908    2.1726 O   0  0  0  0  0  0  0  0  0  0  0  0
   -1.0921    0.4156    2.6780 N   0  0  0  0  0  0  0  0  0  0  0  0
   -2.0168    0.5953    2.3206 H   0  0  0  0  0  0  0  0  0  0  0  0
   -0.8319    0.7034    4.0877 C   0  0  0  0  0  0  0  0  0  0  0  0
   -0.0192    1.4288    4.1710 H   0  0  0  0  0  0  0  0  0  0  0  0
   -1.7255    1.1088    4.5641 H   0  0  0  0  0  0  0  0  0  0  0  0
   -0.5319   -0.2118    4.6011 H   0  0  0  0  0  0  0  0  0  0  0  0
  5  6  2  0  0  0  0
  5  7  1  0  0  0  0
  2  3  1  0  0  0  0
  2  4  1  0  0  0  0
  2  5  1  0  0  0  0
  1  2  1  0  0  0  0
 22 23  2  0  0  0  0
 22 24  1  0  0  0  0
 18 19  1  0  0  0  0
 18 20  1  0  0  0  0
 18 21  1  0  0  0  0
 17 18  1  0  0  0  0
 14 15  1  0  0  0  0
 14 16  1  0  0  0  0
 14 17  1  0  0  0  0
 11 12  1  0  0  0  0
 11 13  1  0  0  0  0
 11 14  1  0  0  0  0
  9 10  1  0  0  0  0
  9 11  1  0  0  0  0
  9 22  1  0  0  0  0
  7  8  1  0  0  0  0
  7  9  1  0  0  0  0
 26 27  1  0  0  0  0
 26 28  1  0  0  0  0
 26 29  1  0  0  0  0
 24 25  1  0  0  0  0
 24 26  1  0  0  0  0
M  END
$$$$
default_name
  -OEChem-02102213163D

 29 28  0     1  0  0  0  0  0999 V2000
   -3.5781   -3.7296    1.2702 H   0  0  0  0  0  0  0  0  0  0  0  0
   -3.5311   -2.7616    0.7732 C   0  0  0  0  0  0  0  0  0  0  0  0
   -4.2371   -2.0766    1.2382 H   0  0  0  0  0  0  0  0  0  0  0  0
   -3.7681   -2.8816   -0.2818 H   0  0  0  0  0  0  0  0  0  0  0  0
   -2.1321   -2.2086    0.9112 C   0  0  0  0  0  0  0  0  0  0  0  0
   -1.2751   -2.8426    1.5112 O   0  0  0  0  0  0  0  0  0  0  0  0
   -1.9041   -1.0186    0.3602 N   0  0  0  0  0  0  0  0  0  0  0  0
   -2.6671   -0.5416   -0.0988 H   0  0  0  0  0  0  0  0  0  0  0  0
   -0.6131   -0.3236    0.3832 C   0  0  1  0  0  0  0  0  0  0  0  0
    0.1346   -0.9625   -0.0894 H   0  0  0  0  0  0  0  0  0  0  0  0
   -0.7253    0.9751   -0.4365 C   0  0  0  0  0  0  0  0  0  0  0  0
   -1.4891    1.6110    0.0161 H   0  0  0  0  0  0  0  0  0  0  0  0
    0.2265    1.5069   -0.4000 H   0  0  0  0  0  0  0  0  0  0  0  0
   -1.1004    0.7421   -1.9046 C   0  0  0  0  0  0  0  0  0  0  0  0
   -0.7238   -0.2306   -2.2196 H   0  0  0  0  0  0  0  0  0  0  0  0
   -2.1874    0.7426   -1.9927 H   0  0  0  0  0  0  0  0  0  0  0  0
   -0.4350    1.9941   -3.0312 S   0  0  0  0  0  0  0  0  0  0  0  0
   -1.4237    3.4246   -2.5233 C   0  0  0  0  0  0  0  0  0  0  0  0
   -1.2424    3.6416   -1.4702 H   0  0  0  0  0  0  0  0  0  0  0  0
   -1.1406    4.2906   -3.1222 H   0  0  0  0  0  0  0  0  0  0  0  0
   -2.4823    3.2131   -2.6765 H   0  0  0  0  0  0  0  0  0  0  0  0
   -0.1711   -0.0594    1.8296 C   0  0  0  0  0  0  0  0  0  0  0  0
    0.9865   -0.2908    2.1726 O   0  0  0  0  0  0  0  0  0  0  0  0
   -1.0921    0.4156    2.6780 N   0  0  0  0  0  0  0  0  0  0  0  0
   -2.0168    0.5953    2.3206 H   0  0  0  0  0  0  0  0  0  0  0  0
   -0.8319    0.7034    4.0877 C   0  0  0  0  0  0  0  0  0  0  0  0
   -0.0192    1.4288    4.1710 H   0  0  0  0  0  0  0  0  0  0  0  0
   -1.7255    1.1088    4.5641 H   0  0  0  0  0  0  0  0  0  0  0  0
   -0.5319   -0.2118    4.6011 H   0  0  0  0  0  0  0  0  0  0  0  0
  5  6  2  0  0  0  0
  5  7  1  0  0  0  0
  2  3  1  0  0  0  0
  2  4  1  0  0  0  0
  2  5  1  0  0  0  0
  1  2  1  0  0  0  0
 22 23  2  0  0  0  0
 22 24  1  0  0  0  0
 18 19  1  0  0  0  0
 18 20  1  0  0  0  0
 18 21  1  0  0  0  0
 17 18  1  0  0  0  0
 14 15  1  0  0  0  0
 14 16  1  0  0  0  0
 14 17  1  0  0  0  0
 11 12  1  0  0  0  0
 11 13  1  0  0  0  0
 11 14  1  0  0  0  0
  9 10  1  0  0  0  0
  9 11  1  0  0  0  0
  9 22  1  0  0  0  0
  7  8  1  0  0  0  0
  7  9  1  0  0  0  0
 26 27  1  0  0  0  0
 26 28  1  0  0  0  0
 26 29  1  0  0  0  0
 24 25  1  0  0  0  0
 24 26  1  0  0  0  0
M  END
$$$$
default_name
  -OEChem-02102213163D

 29 28  0     1  0  0  0  0  0999 V2000
   -3.5781   -3.7296    1.2702 H   0  0  0  0  0  0  0  0  0  0  0  0
   -3.5311   -2.7616    0.7732 C   0  0  0  0  0  0  0  0  0  0  0  0
   -4.2371   -2.0766    1.2382 H   0  0  0  0  0  0  0  0  0  0  0  0
   -3.7681   -2.8816   -0.2818 H   0  0  0  0  0  0  0  0  0  0  0  0
   -2.1321   -2.2086    0.9112 C   0  0  0  0  0  0  0  0  0  0  0  0
   -1.2751   -2.8426    1.5112 O   0  0  0  0  0  0  0  0  0  0  0  0
   -1.9041   -1.0186    0.3602 N   0  0  0  0  0  0  0  0  0  0  0  0
   -2.6671   -0.5416   -0.0988 H   0  0  0  0  0  0  0  0  0  0  0  0
   -0.6131   -0.3236    0.3832 C   0  0  1  0  0  0  0  0  0  0  0  0
    0.1346   -0.9625   -0.0894 H   0  0  0  0  0  0  0  0  0  0  0  0
   -0.7253    0.9751   -0.4365 C   0  0  0  0  0  0  0  0  0  0  0  0
   -1.4891    1.6110    0.0161 H   0  0  0  0  0  0  0  0  0  0  0  0
    0.2265    1.5069   -0.4000 H   0  0  0  0  0  0  0  0  0  0  0  0
   -1.1004    0.7421   -1.9046 C   0  0  0  0  0  0  0  0  0  0  0  0
   -0.9683   -0.3126   -2.1442 H   0  0  0  0  0  0  0  0  0  0  0  0
   -2.1497    1.0046   -2.0439 H   0  0  0  0  0  0  0  0  0  0  0  0
   -0.1091    1.7114   -3.0696 S   0  0  0  0  0  0  0  0  0  0  0  0
   -0.7257    3.3728   -2.6934 C   0  0  0  0  0  0  0  0  0  0  0  0
   -0.5291    3.6098   -1.6474 H   0  0  0  0  0  0  0  0  0  0  0  0
   -0.2171    4.0992   -3.3278 H   0  0  0  0  0  0  0  0  0  0  0  0
   -1.7983    3.4189   -2.8839 H   0  0  0  0  0  0  0  0  0  0  0  0
   -0.1711   -0.0594    1.8296 C   0  0  0  0  0  0  0  0  0  0  0  0
    0.9865   -0.2908    2.1726 O   0  0  0  0  0  0  0  0  0  0  0  0
   -1.0921    0.4156    2.6780 N   0  0  0  0  0  0  0  0  0  0  0  0
   -2.0168    0.5953    2.3206 H   0  0  0  0  0  0  0  0  0  0  0  0
   -0.8319    0.7034    4.0877 C   0  0  0  0  0  0  0  0  0  0  0  0
   -0.0192    1.4288    4.1710 H   0  0  0  0  0  0  0  0  0  0  0  0
   -1.7255    1.1088    4.5641 H   0  0  0  0  0  0  0  0  0  0  0  0
   -0.5319   -0.2118    4.6011 H   0  0  0  0  0  0  0  0  0  0  0  0
  5  6  2  0  0  0  0
  5  7  1  0  0  0  0
  2  3  1  0  0  0  0
  2  4  1  0  0  0  0
  2  5  1  0  0  0  0
  1  2  1  0  0  0  0
 22 23  2  0  0  0  0
 22 24  1  0  0  0  0
 18 19  1  0  0  0  0
 18 20  1  0  0  0  0
 18 21  1  0  0  0  0
 17 18  1  0  0  0  0
 14 15  1  0  0  0  0
 14 16  1  0  0  0  0
 14 17  1  0  0  0  0
 11 12  1  0  0  0  0
 11 13  1  0  0  0  0
 11 14  1  0  0  0  0
  9 10  1  0  0  0  0
  9 11  1  0  0  0  0
  9 22  1  0  0  0  0
  7  8  1  0  0  0  0
  7  9  1  0  0  0  0
 26 27  1  0  0  0  0
 26 28  1  0  0  0  0
 26 29  1  0  0  0  0
 24 25  1  0  0  0  0
 24 26  1  0  0  0  0
M  END
$$$$
default_name
  -OEChem-02102213163D

 29 28  0     1  0  0  0  0  0999 V2000
   -3.5781   -3.7296    1.2702 H   0  0  0  0  0  0  0  0  0  0  0  0
   -3.5311   -2.7616    0.7732 C   0  0  0  0  0  0  0  0  0  0  0  0
   -4.2371   -2.0766    1.2382 H   0  0  0  0  0  0  0  0  0  0  0  0
   -3.7681   -2.8816   -0.2818 H   0  0  0  0  0  0  0  0  0  0  0  0
   -2.1321   -2.2086    0.9112 C   0  0  0  0  0  0  0  0  0  0  0  0
   -1.2751   -2.8426    1.5112 O   0  0  0  0  0  0  0  0  0  0  0  0
   -1.9041   -1.0186    0.3602 N   0  0  0  0  0  0  0  0  0  0  0  0
   -2.6671   -0.5416   -0.0988 H   0  0  0  0  0  0  0  0  0  0  0  0
   -0.6131   -0.3236    0.3832 C   0  0  1  0  0  0  0  0  0  0  0  0
    0.1346   -0.9625   -0.0894 H   0  0  0  0  0  0  0  0  0  0  0  0
   -0.7253    0.9751   -0.4365 C   0  0  0  0  0  0  0  0  0  0  0  0
   -1.4891    1.6110    0.0161 H   0  0  0  0  0  0  0  0  0  0  0  0
    0.2265    1.5069   -0.4000 H   0  0  0  0  0  0  0  0  0  0  0  0
   -1.1004    0.7421   -1.9046 C   0  0  0  0  0  0  0  0  0  0  0  0
   -1.2277   -0.3264   -2.0757 H   0  0  0  0  0  0  0  0  0  0  0  0
   -2.0463    1.2451   -2.1085 H   0  0  0  0  0  0  0  0  0  0  0  0
    0.1372    1.3551   -3.0760 S   0  0  0  0  0  0  0  0  0  0  0  0
   -0.0576    3.1389   -2.8270 C   0  0  0  0  0  0  0  0  0  0  0  0
    0.1589    3.3910   -1.7885 H   0  0  0  0  0  0  0  0  0  0  0  0
    0.6355    3.6725   -3.4779 H   0  0  0  0  0  0  0  0  0  0  0  0
   -1.0783    3.4350   -3.0704 H   0  0  0  0  0  0  0  0  0  0  0  0
   -0.1711   -0.0594    1.8296 C   0  0  0  0  0  0  0  0  0  0  0  0
    0.9865   -0.2908    2.1726 O   0  0  0  0  0  0  0  0  0  0  0  0
   -1.0921    0.4156    2.6780 N   0  0  0  0  0  0  0  0  0  0  0  0
   -2.0168    0.5953    2.3206 H   0  0  0  0  0  0  0  0  0  0  0  0
   -0.8319    0.7034    4.0877 C   0  0  0  0  0  0  0  0  0  0  0  0
   -0.0192    1.4288    4.1710 H   0  0  0  0  0  0  0  0  0  0  0  0
   -1.7255    1.1088    4.5641 H   0  0  0  0  0  0  0  0  0  0  0  0
   -0.5319   -0.2118    4.6011 H   0  0  0  0  0  0  0  0  0  0  0  0
  5  6  2  0  0  0  0
  5  7  1  0  0  0  0
  2  3  1  0  0  0  0
  2  4  1  0  0  0  0
  2  5  1  0  0  0  0
  1  2  1  0  0  0  0
 22 23  2  0  0  0  0
 22 24  1  0  0  0  0
 18 19  1  0  0  0  0
 18 20  1  0  0  0  0
 18 21  1  0  0  0  0
 17 18  1  0  0  0  0
 14 15  1  0  0  0  0
 14 16  1  0  0  0  0
 14 17  1  0  0  0  0
 11 12  1  0  0  0  0
 11 13  1  0  0  0  0
 11 14  1  0  0  0  0
  9 10  1  0  0  0  0
  9 11  1  0  0  0  0
  9 22  1  0  0  0  0
  7  8  1  0  0  0  0
  7  9  1  0  0  0  0
 26 27  1  0  0  0  0
 26 28  1  0  0  0  0
 26 29  1  0  0  0  0
 24 25  1  0  0  0  0
 24 26  1  0  0  0  0
M  END
$$$$
default_name
  -OEChem-02102213163D

 29 28  0     1  0  0  0  0  0999 V2000
   -3.5781   -3.7296    1.2702 H   0  0  0  0  0  0  0  0  0  0  0  0
   -3.5311   -2.7616    0.7732 C   0  0  0  0  0  0  0  0  0  0  0  0
   -4.2371   -2.0766    1.2382 H   0  0  0  0  0  0  0  0  0  0  0  0
   -3.7681   -2.8816   -0.2818 H   0  0  0  0  0  0  0  0  0  0  0  0
   -2.1321   -2.2086    0.9112 C   0  0  0  0  0  0  0  0  0  0  0  0
   -1.2751   -2.8426    1.5112 O   0  0  0  0  0  0  0  0  0  0  0  0
   -1.9041   -1.0186    0.3602 N   0  0  0  0  0  0  0  0  0  0  0  0
   -2.6671   -0.5416   -0.0988 H   0  0  0  0  0  0  0  0  0  0  0  0
   -0.6131   -0.3236    0.3832 C   0  0  1  0  0  0  0  0  0  0  0  0
    0.1346   -0.9625   -0.0894 H   0  0  0  0  0  0  0  0  0  0  0  0
   -0.7253    0.9751   -0.4365 C   0  0  0  0  0  0  0  0  0  0  0  0
   -1.4891    1.6110    0.0161 H   0  0  0  0  0  0  0  0  0  0  0  0
    0.2265    1.5069   -0.4000 H   0  0  0  0  0  0  0  0  0  0  0  0
   -1.1004    0.7421   -1.9046 C   0  0  0  0  0  0  0  0  0  0  0  0
   -1.4845   -0.2711   -2.0189 H   0  0  0  0  0  0  0  0  0  0  0  0
   -1.8843    1.4477   -2.1820 H   0  0  0  0  0  0  0  0  0  0  0  0
    0.2870    0.9496   -3.0499 S   0  0  0  0  0  0  0  0  0  0  0  0
    0.5350    2.7390   -2.9149 C   0  0  0  0  0  0  0  0  0  0  0  0
    0.7748    3.0002   -1.8838 H   0  0  0  0  0  0  0  0  0  0  0  0
    1.3593    3.0395   -3.5624 H   0  0  0  0  0  0  0  0  0  0  0  0
   -0.3716    3.2603   -3.2232 H   0  0  0  0  0  0  0  0  0  0  0  0
   -0.1711   -0.0594    1.8296 C   0  0  0  0  0  0  0  0  0  0  0  0
    0.9865   -0.2908    2.1726 O   0  0  0  0  0  0  0  0  0  0  0  0
   -1.0921    0.4156    2.6780 N   0  0  0  0  0  0  0  0  0  0  0  0
   -2.0168    0.5953    2.3206 H   0  0  0  0  0  0  0  0  0  0  0  0
   -0.8319    0.7034    4.0877 C   0  0  0  0  0  0  0  0  0  0  0  0
   -0.0192    1.4288    4.1710 H   0  0  0  0  0  0  0  0  0  0  0  0
   -1.7255    1.1088    4.5641 H   0  0  0  0  0  0  0  0  0  0  0  0
   -0.5319   -0.2118    4.6011 H   0  0  0  0  0  0  0  0  0  0  0  0
  5  6  2  0  0  0  0
  5  7  1  0  0  0  0
  2  3  1  0  0  0  0
  2  4  1  0  0  0  0
  2  5  1  0  0  0  0
  1  2  1  0  0  0  0
 22 23  2  0  0  0  0
 22 24  1  0  0  0  0
 18 19  1  0  0  0  0
 18 20  1  0  0  0  0
 18 21  1  0  0  0  0
 17 18  1  0  0  0  0
 14 15  1  0  0  0  0
 14 16  1  0  0  0  0
 14 17  1  0  0  0  0
 11 12  1  0  0  0  0
 11 13  1  0  0  0  0
 11 14  1  0  0  0  0
  9 10  1  0  0  0  0
  9 11  1  0  0  0  0
  9 22  1  0  0  0  0
  7  8  1  0  0  0  0
  7  9  1  0  0  0  0
 26 27  1  0  0  0  0
 26 28  1  0  0  0  0
 26 29  1  0  0  0  0
 24 25  1  0  0  0  0
 24 26  1  0  0  0  0
M  END
$$$$
default_name
  -OEChem-02102213163D

 29 28  0     1  0  0  0  0  0999 V2000
   -3.5781   -3.7296    1.2702 H   0  0  0  0  0  0  0  0  0  0  0  0
   -3.5311   -2.7616    0.7732 C   0  0  0  0  0  0  0  0  0  0  0  0
   -4.2371   -2.0766    1.2382 H   0  0  0  0  0  0  0  0  0  0  0  0
   -3.7681   -2.8816   -0.2818 H   0  0  0  0  0  0  0  0  0  0  0  0
   -2.1321   -2.2086    0.9112 C   0  0  0  0  0  0  0  0  0  0  0  0
   -1.2751   -2.8426    1.5112 O   0  0  0  0  0  0  0  0  0  0  0  0
   -1.9041   -1.0186    0.3602 N   0  0  0  0  0  0  0  0  0  0  0  0
   -2.6671   -0.5416   -0.0988 H   0  0  0  0  0  0  0  0  0  0  0  0
   -0.6131   -0.3236    0.3832 C   0  0  1  0  0  0  0  0  0  0  0  0
    0.1346   -0.9625   -0.0894 H   0  0  0  0  0  0  0  0  0  0  0  0
   -0.7253    0.9751   -0.4365 C   0  0  0  0  0  0  0  0  0  0  0  0
   -1.4891    1.6110    0.0161 H   0  0  0  0  0  0  0  0  0  0  0  0
    0.2265    1.5069   -0.4000 H   0  0  0  0  0  0  0  0  0  0  0  0
   -1.1004    0.7421   -1.9046 C   0  0  0  0  0  0  0  0  0  0  0  0
   -1.7210   -0.1505   -1.9776 H   0  0  0  0  0  0  0  0  0  0  0  0
   -1.6747    1.5985   -2.2595 H   0  0  0  0  0  0  0  0  0  0  0  0
    0.3302    0.5224   -2.9931 S   0  0  0  0  0  0  0  0  0  0  0  0
    1.0118    2.2003   -2.9512 C   0  0  0  0  0  0  0  0  0  0  0  0
    1.2767    2.4641   -1.9269 H   0  0  0  0  0  0  0  0  0  0  0  0
    1.9048    2.2433   -3.5754 H   0  0  0  0  0  0  0  0  0  0  0  0
    0.2737    2.9068   -3.3320 H   0  0  0  0  0  0  0  0  0  0  0  0
   -0.1711   -0.0594    1.8296 C   0  0  0  0  0  0  0  0  0  0  0  0
    0.9865   -0.2908    2.1726 O   0  0  0  0  0  0  0  0  0  0  0  0
   -1.0921    0.4156    2.6780 N   0  0  0  0  0  0  0  0  0  0  0  0
   -2.0168    0.5953    2.3206 H   0  0  0  0  0  0  0  0  0  0  0  0
   -0.8319    0.7034    4.0877 C   0  0  0  0  0  0  0  0  0  0  0  0
   -0.0192    1.4288    4.1710 H   0  0  0  0  0  0  0  0  0  0  0  0
   -1.7255    1.1088    4.5641 H   0  0  0  0  0  0  0  0  0  0  0  0
   -0.5319   -0.2118    4.6011 H   0  0  0  0  0  0  0  0  0  0  0  0
  5  6  2  0  0  0  0
  5  7  1  0  0  0  0
  2  3  1  0  0  0  0
  2  4  1  0  0  0  0
  2  5  1  0  0  0  0
  1  2  1  0  0  0  0
 22 23  2  0  0  0  0
 22 24  1  0  0  0  0
 18 19  1  0  0  0  0
 18 20  1  0  0  0  0
 18 21  1  0  0  0  0
 17 18  1  0  0  0  0
 14 15  1  0  0  0  0
 14 16  1  0  0  0  0
 14 17  1  0  0  0  0
 11 12  1  0  0  0  0
 11 13  1  0  0  0  0
 11 14  1  0  0  0  0
  9 10  1  0  0  0  0
  9 11  1  0  0  0  0
  9 22  1  0  0  0  0
  7  8  1  0  0  0  0
  7  9  1  0  0  0  0
 26 27  1  0  0  0  0
 26 28  1  0  0  0  0
 26 29  1  0  0  0  0
 24 25  1  0  0  0  0
 24 26  1  0  0  0  0
M  END
$$$$
default_name
  -OEChem-02102213163D

 29 28  0     1  0  0  0  0  0999 V2000
   -3.5781   -3.7296    1.2702 H   0  0  0  0  0  0  0  0  0  0  0  0
   -3.5311   -2.7616    0.7732 C   0  0  0  0  0  0  0  0  0  0  0  0
   -4.2371   -2.0766    1.2382 H   0  0  0  0  0  0  0  0  0  0  0  0
   -3.7681   -2.8816   -0.2818 H   0  0  0  0  0  0  0  0  0  0  0  0
   -2.1321   -2.2086    0.9112 C   0  0  0  0  0  0  0  0  0  0  0  0
   -1.2751   -2.8426    1.5112 O   0  0  0  0  0  0  0  0  0  0  0  0
   -1.9041   -1.0186    0.3602 N   0  0  0  0  0  0  0  0  0  0  0  0
   -2.6671   -0.5416   -0.0988 H   0  0  0  0  0  0  0  0  0  0  0  0
   -0.6131   -0.3236    0.3832 C   0  0  1  0  0  0  0  0  0  0  0  0
    0.1346   -0.9625   -0.0894 H   0  0  0  0  0  0  0  0  0  0  0  0
   -0.7253    0.9751   -0.4365 C   0  0  0  0  0  0  0  0  0  0  0  0
   -1.4891    1.6110    0.0161 H   0  0  0  0  0  0  0  0  0  0  0  0
    0.2265    1.5069   -0.4000 H   0  0  0  0  0  0  0  0  0  0  0  0
   -1.1004    0.7421   -1.9046 C   0  0  0  0  0  0  0  0  0  0  0  0
   -1.9212    0.0273   -1.9546 H   0  0  0  0  0  0  0  0  0  0  0  0
   -1.4318    1.6874   -2.3357 H   0  0  0  0  0  0  0  0  0  0  0  0
    0.2637    0.1026   -2.9096 S   0  0  0  0  0  0  0  0  0  0  0  0
    1.3402    1.5595   -2.9334 C   0  0  0  0  0  0  0  0  0  0  0  0
    1.6302    1.8191   -1.9149 H   0  0  0  0  0  0  0  0  0  0  0  0
    2.2349    1.3382   -3.5161 H   0  0  0  0  0  0  0  0  0  0  0  0
    0.8137    2.3984   -3.3893 H   0  0  0  0  0  0  0  0  0  0  0  0
   -0.1711   -0.0594    1.8296 C   0  0  0  0  0  0  0  0  0  0  0  0
    0.9865   -0.2908    2.1726 O   0  0  0  0  0  0  0  0  0  0  0  0
   -1.0921    0.4156    2.6780 N   0  0  0  0  0  0  0  0  0  0  0  0
   -2.0168    0.5953    2.3206 H   0  0  0  0  0  0  0  0  0  0  0  0
   -0.8319    0.7034    4.0877 C   0  0  0  0  0  0  0  0  0  0  0  0
   -0.0192    1.4288    4.1710 H   0  0  0  0  0  0  0  0  0  0  0  0
   -1.7255    1.1088    4.5641 H   0  0  0  0  0  0  0  0  0  0  0  0
   -0.5319   -0.2118    4.6011 H   0  0  0  0  0  0  0  0  0  0  0  0
  5  6  2  0  0  0  0
  5  7  1  0  0  0  0
  2  3  1  0  0  0  0
  2  4  1  0  0  0  0
  2  5  1  0  0  0  0
  1  2  1  0  0  0  0
 22 23  2  0  0  0  0
 22 24  1  0  0  0  0
 18 19  1  0  0  0  0
 18 20  1  0  0  0  0
 18 21  1  0  0  0  0
 17 18  1  0  0  0  0
 14 15  1  0  0  0  0
 14 16  1  0  0  0  0
 14 17  1  0  0  0  0
 11 12  1  0  0  0  0
 11 13  1  0  0  0  0
 11 14  1  0  0  0  0
  9 10  1  0  0  0  0
  9 11  1  0  0  0  0
  9 22  1  0  0  0  0
  7  8  1  0  0  0  0
  7  9  1  0  0  0  0
 26 27  1  0  0  0  0
 26 28  1  0  0  0  0
 26 29  1  0  0  0  0
 24 25  1  0  0  0  0
 24 26  1  0  0  0  0
M  END
$$$$
default_name
  -OEChem-02102213163D

 29 28  0     1  0  0  0  0  0999 V2000
   -3.5781   -3.7296    1.2702 H   0  0  0  0  0  0  0  0  0  0  0  0
   -3.5311   -2.7616    0.7732 C   0  0  0  0  0  0  0  0  0  0  0  0
   -4.2371   -2.0766    1.2382 H   0  0  0  0  0  0  0  0  0  0  0  0
   -3.7681   -2.8816   -0.2818 H   0  0  0  0  0  0  0  0  0  0  0  0
   -2.1321   -2.2086    0.9112 C   0  0  0  0  0  0  0  0  0  0  0  0
   -1.2751   -2.8426    1.5112 O   0  0  0  0  0  0  0  0  0  0  0  0
   -1.9041   -1.0186    0.3602 N   0  0  0  0  0  0  0  0  0  0  0  0
   -2.6671   -0.5416   -0.0988 H   0  0  0  0  0  0  0  0  0  0  0  0
   -0.6131   -0.3236    0.3832 C   0  0  1  0  0  0  0  0  0  0  0  0
    0.1346   -0.9625   -0.0894 H   0  0  0  0  0  0  0  0  0  0  0  0
   -0.7253    0.9751   -0.4365 C   0  0  0  0  0  0  0  0  0  0  0  0
   -1.4891    1.6110    0.0161 H   0  0  0  0  0  0  0  0  0  0  0  0
    0.2265    1.5069   -0.4000 H   0  0  0  0  0  0  0  0  0  0  0  0
   -1.1004    0.7421   -1.9046 C   0  0  0  0  0  0  0  0  0  0  0  0
   -2.0714    0.2500   -1.9516 H   0  0  0  0  0  0  0  0  0  0  0  0
   -1.1722    1.7083   -2.4053 H   0  0  0  0  0  0  0  0  0  0  0  0
    0.0922   -0.2811   -2.8048 S   0  0  0  0  0  0  0  0  0  0  0  0
    1.4979    0.8602   -2.8628 C   0  0  0  0  0  0  0  0  0  0  0  0
    1.8114    1.1092   -1.8485 H   0  0  0  0  0  0  0  0  0  0  0  0
    2.3271    0.3859   -3.3885 H   0  0  0  0  0  0  0  0  0  0  0  0
    1.2116    1.7699   -3.3912 H   0  0  0  0  0  0  0  0  0  0  0  0
   -0.1711   -0.0594    1.8296 C   0  0  0  0  0  0  0  0  0  0  0  0
    0.9865   -0.2908    2.1726 O   0  0  0  0  0  0  0  0  0  0  0  0
   -1.0921    0.4156    2.6780 N   0  0  0  0  0  0  0  0  0  0  0  0
   -2.0168    0.5953    2.3206 H   0  0  0  0  0  0  0  0  0  0  0  0
   -0.8319    0.7034    4.0877 C   0  0  0  0  0  0  0  0  0  0  0  0
   -0.0192    1.4288    4.1710 H   0  0  0  0  0  0  0  0  0  0  0  0
   -1.7255    1.1088    4.5641 H   0  0  0  0  0  0  0  0  0  0  0  0
   -0.5319   -0.2118    4.6011 H   0  0  0  0  0  0  0  0  0  0  0  0
  5  6  2  0  0  0  0
  5  7  1  0  0  0  0
  2  3  1  0  0  0  0
  2  4  1  0  0  0  0
  2  5  1  0  0  0  0
  1  2  1  0  0  0  0
 22 23  2  0  0  0  0
 22 24  1  0  0  0  0
 18 19  1  0  0  0  0
 18 20  1  0  0  0  0
 18 21  1  0  0  0  0
 17 18  1  0  0  0  0
 14 15  1  0  0  0  0
 14 16  1  0  0  0  0
 14 17  1  0  0  0  0
 11 12  1  0  0  0  0
 11 13  1  0  0  0  0
 11 14  1  0  0  0  0
  9 10  1  0  0  0  0
  9 11  1  0  0  0  0
  9 22  1  0  0  0  0
  7  8  1  0  0  0  0
  7  9  1  0  0  0  0
 26 27  1  0  0  0  0
 26 28  1  0  0  0  0
 26 29  1  0  0  0  0
 24 25  1  0  0  0  0
 24 26  1  0  0  0  0
M  END
$$$$
default_name
  -OEChem-02102213163D

 29 28  0     1  0  0  0  0  0999 V2000
   -3.5781   -3.7296    1.2702 H   0  0  0  0  0  0  0  0  0  0  0  0
   -3.5311   -2.7616    0.7732 C   0  0  0  0  0  0  0  0  0  0  0  0
   -4.2371   -2.0766    1.2382 H   0  0  0  0  0  0  0  0  0  0  0  0
   -3.7681   -2.8816   -0.2818 H   0  0  0  0  0  0  0  0  0  0  0  0
   -2.1321   -2.2086    0.9112 C   0  0  0  0  0  0  0  0  0  0  0  0
   -1.2751   -2.8426    1.5112 O   0  0  0  0  0  0  0  0  0  0  0  0
   -1.9041   -1.0186    0.3602 N   0  0  0  0  0  0  0  0  0  0  0  0
   -2.6671   -0.5416   -0.0988 H   0  0  0  0  0  0  0  0  0  0  0  0
   -0.6131   -0.3236    0.3832 C   0  0  1  0  0  0  0  0  0  0  0  0
    0.1346   -0.9625   -0.0894 H   0  0  0  0  0  0  0  0  0  0  0  0
   -0.7253    0.9751   -0.4365 C   0  0  0  0  0  0  0  0  0  0  0  0
   -1.4891    1.6110    0.0161 H   0  0  0  0  0  0  0  0  0  0  0  0
    0.2265    1.5069   -0.4000 H   0  0  0  0  0  0  0  0  0  0  0  0
   -1.1004    0.7421   -1.9046 C   0  0  0  0  0  0  0  0  0  0  0  0
   -2.1614    0.5026   -1.9687 H   0  0  0  0  0  0  0  0  0  0  0  0
   -0.9135    1.6596   -2.4637 H   0  0  0  0  0  0  0  0  0  0  0  0
   -0.1726   -0.6026   -2.6862 S   0  0  0  0  0  0  0  0  0  0  0  0
    1.4741    0.1501   -2.7440 C   0  0  0  0  0  0  0  0  0  0  0  0
    1.8078    0.3828   -1.7323 H   0  0  0  0  0  0  0  0  0  0  0  0
    2.1751   -0.5487   -3.2013 H   0  0  0  0  0  0  0  0  0  0  0  0
    1.4402    1.0641   -3.3376 H   0  0  0  0  0  0  0  0  0  0  0  0
   -0.1711   -0.0594    1.8296 C   0  0  0  0  0  0  0  0  0  0  0  0
    0.9865   -0.2908    2.1726 O   0  0  0  0  0  0  0  0  0  0  0  0
   -1.0921    0.4156    2.6780 N   0  0  0  0  0  0  0  0  0  0  0  0
   -2.0168    0.5953    2.3206 H   0  0  0  0  0  0  0  0  0  0  0  0
   -0.8319    0.7034    4.0877 C   0  0  0  0  0  0  0  0  0  0  0  0
   -0.0192    1.4288    4.1710 H   0  0  0  0  0  0  0  0  0  0  0  0
   -1.7255    1.1088    4.5641 H   0  0  0  0  0  0  0  0  0  0  0  0
   -0.5319   -0.2118    4.6011 H   0  0  0  0  0  0  0  0  0  0  0  0
  5  6  2  0  0  0  0
  5  7  1  0  0  0  0
  2  3  1  0  0  0  0
  2  4  1  0  0  0  0
  2  5  1  0  0  0  0
  1  2  1  0  0  0  0
 22 23  2  0  0  0  0
 22 24  1  0  0  0  0
 18 19  1  0  0  0  0
 18 20  1  0  0  0  0
 18 21  1  0  0  0  0
 17 18  1  0  0  0  0
 14 15  1  0  0  0  0
 14 16  1  0  0  0  0
 14 17  1  0  0  0  0
 11 12  1  0  0  0  0
 11 13  1  0  0  0  0
 11 14  1  0  0  0  0
  9 10  1  0  0  0  0
  9 11  1  0  0  0  0
  9 22  1  0  0  0  0
  7  8  1  0  0  0  0
  7  9  1  0  0  0  0
 26 27  1  0  0  0  0
 26 28  1  0  0  0  0
 26 29  1  0  0  0  0
 24 25  1  0  0  0  0
 24 26  1  0  0  0  0
M  END
$$$$
default_name
  -OEChem-02102213163D

 29 28  0     1  0  0  0  0  0999 V2000
   -3.5781   -3.7296    1.2702 H   0  0  0  0  0  0  0  0  0  0  0  0
   -3.5311   -2.7616    0.7732 C   0  0  0  0  0  0  0  0  0  0  0  0
   -4.2371   -2.0766    1.2382 H   0  0  0  0  0  0  0  0  0  0  0  0
   -3.7681   -2.8816   -0.2818 H   0  0  0  0  0  0  0  0  0  0  0  0
   -2.1321   -2.2086    0.9112 C   0  0  0  0  0  0  0  0  0  0  0  0
   -1.2751   -2.8426    1.5112 O   0  0  0  0  0  0  0  0  0  0  0  0
   -1.9041   -1.0186    0.3602 N   0  0  0  0  0  0  0  0  0  0  0  0
   -2.6671   -0.5416   -0.0988 H   0  0  0  0  0  0  0  0  0  0  0  0
   -0.6131   -0.3236    0.3832 C   0  0  1  0  0  0  0  0  0  0  0  0
    0.1346   -0.9625   -0.0894 H   0  0  0  0  0  0  0  0  0  0  0  0
   -0.7253    0.9751   -0.4365 C   0  0  0  0  0  0  0  0  0  0  0  0
   -1.4891    1.6110    0.0161 H   0  0  0  0  0  0  0  0  0  0  0  0
    0.2265    1.5069   -0.4000 H   0  0  0  0  0  0  0  0  0  0  0  0
   -1.1004    0.7421   -1.9046 C   0  0  0  0  0  0  0  0  0  0  0  0
   -2.1850    0.7679   -2.0048 H   0  0  0  0  0  0  0  0  0  0  0  0
   -0.6734    1.5448   -2.5068 H   0  0  0  0  0  0  0  0  0  0  0  0
   -0.5128   -0.8400   -2.5616 S   0  0  0  0  0  0  0  0  0  0  0  0
    1.2705   -0.5223   -2.5853 C   0  0  0  0  0  0  0  0  0  0  0  0
    1.6197   -0.3106   -1.5742 H   0  0  0  0  0  0  0  0  0  0  0  0
    1.7893   -1.4020   -2.9674 H   0  0  0  0  0  0  0  0  0  0  0  0
    1.4839    0.3291   -3.2321 H   0  0  0  0  0  0  0  0  0  0  0  0
   -0.1711   -0.0594    1.8296 C   0  0  0  0  0  0  0  0  0  0  0  0
    0.9865   -0.2908    2.1726 O   0  0  0  0  0  0  0  0  0  0  0  0
   -1.0921    0.4156    2.6780 N   0  0  0  0  0  0  0  0  0  0  0  0
   -2.0168    0.5953    2.3206 H   0  0  0  0  0  0  0  0  0  0  0  0
   -0.8319    0.7034    4.0877 C   0  0  0  0  0  0  0  0  0  0  0  0
   -0.0192    1.4288    4.1710 H   0  0  0  0  0  0  0  0  0  0  0  0
   -1.7255    1.1088    4.5641 H   0  0  0  0  0  0  0  0  0  0  0  0
   -0.5319   -0.2118    4.6011 H   0  0  0  0  0  0  0  0  0  0  0  0
  5  6  2  0  0  0  0
  5  7  1  0  0  0  0
  2  3  1  0  0  0  0
  2  4  1  0  0  0  0
  2  5  1  0  0  0  0
  1  2  1  0  0  0  0
 22 23  2  0  0  0  0
 22 24  1  0  0  0  0
 18 19  1  0  0  0  0
 18 20  1  0  0  0  0
 18 21  1  0  0  0  0
 17 18  1  0  0  0  0
 14 15  1  0  0  0  0
 14 16  1  0  0  0  0
 14 17  1  0  0  0  0
 11 12  1  0  0  0  0
 11 13  1  0  0  0  0
 11 14  1  0  0  0  0
  9 10  1  0  0  0  0
  9 11  1  0  0  0  0
  9 22  1  0  0  0  0
  7  8  1  0  0  0  0
  7  9  1  0  0  0  0
 26 27  1  0  0  0  0
 26 28  1  0  0  0  0
 26 29  1  0  0  0  0
 24 25  1  0  0  0  0
 24 26  1  0  0  0  0
M  END
$$$$
default_name
  -OEChem-02102213163D

 29 28  0     1  0  0  0  0  0999 V2000
   -3.5781   -3.7296    1.2702 H   0  0  0  0  0  0  0  0  0  0  0  0
   -3.5311   -2.7616    0.7732 C   0  0  0  0  0  0  0  0  0  0  0  0
   -4.2371   -2.0766    1.2382 H   0  0  0  0  0  0  0  0  0  0  0  0
   -3.7681   -2.8816   -0.2818 H   0  0  0  0  0  0  0  0  0  0  0  0
   -2.1321   -2.2086    0.9112 C   0  0  0  0  0  0  0  0  0  0  0  0
   -1.2751   -2.8426    1.5112 O   0  0  0  0  0  0  0  0  0  0  0  0
   -1.9041   -1.0186    0.3602 N   0  0  0  0  0  0  0  0  0  0  0  0
   -2.6671   -0.5416   -0.0988 H   0  0  0  0  0  0  0  0  0  0  0  0
   -0.6131   -0.3236    0.3832 C   0  0  1  0  0  0  0  0  0  0  0  0
    0.1346   -0.9625   -0.0894 H   0  0  0  0  0  0  0  0  0  0  0  0
   -0.7253    0.9751   -0.4365 C   0  0  0  0  0  0  0  0  0  0  0  0
   -1.4891    1.6110    0.0161 H   0  0  0  0  0  0  0  0  0  0  0  0
    0.2265    1.5069   -0.4000 H   0  0  0  0  0  0  0  0  0  0  0  0
   -1.1004    0.7421   -1.9046 C   0  0  0  0  0  0  0  0  0  0  0  0
   -2.1407    1.0276   -2.0573 H   0  0  0  0  0  0  0  0  0  0  0  0
   -0.4682    1.3717   -2.5317 H   0  0  0  0  0  0  0  0  0  0  0  0
   -0.9052   -0.9770   -2.4396 S   0  0  0  0  0  0  0  0  0  0  0  0
    0.9009   -1.1113   -2.3974 C   0  0  0  0  0  0  0  0  0  0  0  0
    1.2600   -0.9237   -1.3850 H   0  0  0  0  0  0  0  0  0  0  0  0
    1.1959   -2.1157   -2.7025 H   0  0  0  0  0  0  0  0  0  0  0  0
    1.3399   -0.3851   -3.0820 H   0  0  0  0  0  0  0  0  0  0  0  0
   -0.1711   -0.0594    1.8296 C   0  0  0  0  0  0  0  0  0  0  0  0
    0.9865   -0.2908    2.1726 O   0  0  0  0  0  0  0  0  0  0  0  0
   -1.0921    0.4156    2.6780 N   0  0  0  0  0  0  0  0  0  0  0  0
   -2.0168    0.5953    2.3206 H   0  0  0  0  0  0  0  0  0  0  0  0
   -0.8319    0.7034    4.0877 C   0  0  0  0  0  0  0  0  0  0  0  0
   -0.0192    1.4288    4.1710 H   0  0  0  0  0  0  0  0  0  0  0  0
   -1.7255    1.1088    4.5641 H   0  0  0  0  0  0  0  0  0  0  0  0
   -0.5319   -0.2118    4.6011 H   0  0  0  0  0  0  0  0  0  0  0  0
  5  6  2  0  0  0  0
  5  7  1  0  0  0  0
  2  3  1  0  0  0  0
  2  4  1  0  0  0  0
  2  5  1  0  0  0  0
  1  2  1  0  0  0  0
 22 23  2  0  0  0  0
 22 24  1  0  0  0  0
 18 19  1  0  0  0  0
 18 20  1  0  0  0  0
 18 21  1  0  0  0  0
 17 18  1  0  0  0  0
 14 15  1  0  0  0  0
 14 16  1  0  0  0  0
 14 17  1  0  0  0  0
 11 12  1  0  0  0  0
 11 13  1  0  0  0  0
 11 14  1  0  0  0  0
  9 10  1  0  0  0  0
  9 11  1  0  0  0  0
  9 22  1  0  0  0  0
  7  8  1  0  0  0  0
  7  9  1  0  0  0  0
 26 27  1  0  0  0  0
 26 28  1  0  0  0  0
 26 29  1  0  0  0  0
 24 25  1  0  0  0  0
 24 26  1  0  0  0  0
M  END
$$$$
default_name
  -OEChem-02102213163D

 29 28  0     1  0  0  0  0  0999 V2000
   -3.5781   -3.7296    1.2702 H   0  0  0  0  0  0  0  0  0  0  0  0
   -3.5311   -2.7616    0.7732 C   0  0  0  0  0  0  0  0  0  0  0  0
   -4.2371   -2.0766    1.2382 H   0  0  0  0  0  0  0  0  0  0  0  0
   -3.7681   -2.8816   -0.2818 H   0  0  0  0  0  0  0  0  0  0  0  0
   -2.1321   -2.2086    0.9112 C   0  0  0  0  0  0  0  0  0  0  0  0
   -1.2751   -2.8426    1.5112 O   0  0  0  0  0  0  0  0  0  0  0  0
   -1.9041   -1.0186    0.3602 N   0  0  0  0  0  0  0  0  0  0  0  0
   -2.6671   -0.5416   -0.0988 H   0  0  0  0  0  0  0  0  0  0  0  0
   -0.6131   -0.3236    0.3832 C   0  0  1  0  0  0  0  0  0  0  0  0
    0.1346   -0.9625   -0.0894 H   0  0  0  0  0  0  0  0  0  0  0  0
   -0.7253    0.9751   -0.4365 C   0  0  0  0  0  0  0  0  0  0  0  0
   -1.4891    1.6110    0.0161 H   0  0  0  0  0  0  0  0  0  0  0  0
    0.2265    1.5069   -0.4000 H   0  0  0  0  0  0  0  0  0  0  0  0
   -1.1004    0.7421   -1.9046 C   0  0  0  0  0  0  0  0  0  0  0  0
   -2.0314    1.2642   -2.1228 H   0  0  0  0  0  0  0  0  0  0  0  0
   -0.3119    1.1520   -2.5368 H   0  0  0  0  0  0  0  0  0  0  0  0
   -1.3229   -1.0045   -2.3285 S   0  0  0  0  0  0  0  0  0  0  0  0
    0.3906   -1.5768   -2.1931 C   0  0  0  0  0  0  0  0  0  0  0  0
    0.7531   -1.4148   -1.1776 H   0  0  0  0  0  0  0  0  0  0  0  0
    0.4354   -2.6413   -2.4248 H   0  0  0  0  0  0  0  0  0  0  0  0
    1.0179   -1.0297   -2.8974 H   0  0  0  0  0  0  0  0  0  0  0  0
   -0.1711   -0.0594    1.8296 C   0  0  0  0  0  0  0  0  0  0  0  0
    0.9865   -0.2908    2.1726 O   0  0  0  0  0  0  0  0  0  0  0  0
   -1.0921    0.4156    2.6780 N   0  0  0  0  0  0  0  0  0  0  0  0
   -2.0168    0.5953    2.3206 H   0  0  0  0  0  0  0  0  0  0  0  0
   -0.8319    0.7034    4.0877 C   0  0  0  0  0  0  0  0  0  0  0  0
   -0.0192    1.4288    4.1710 H   0  0  0  0  0  0  0  0  0  0  0  0
   -1.7255    1.1088    4.5641 H   0  0  0  0  0  0  0  0  0  0  0  0
   -0.5319   -0.2118    4.6011 H   0  0  0  0  0  0  0  0  0  0  0  0
  5  6  2  0  0  0  0
  5  7  1  0  0  0  0
  2  3  1  0  0  0  0
  2  4  1  0  0  0  0
  2  5  1  0  0  0  0
  1  2  1  0  0  0  0
 22 23  2  0  0  0  0
 22 24  1  0  0  0  0
 18 19  1  0  0  0  0
 18 20  1  0  0  0  0
 18 21  1  0  0  0  0
 17 18  1  0  0  0  0
 14 15  1  0  0  0  0
 14 16  1  0  0  0  0
 14 17  1  0  0  0  0
 11 12  1  0  0  0  0
 11 13  1  0  0  0  0
 11 14  1  0  0  0  0
  9 10  1  0  0  0  0
  9 11  1  0  0  0  0
  9 22  1  0  0  0  0
  7  8  1  0  0  0  0
  7  9  1  0  0  0  0
 26 27  1  0  0  0  0
 26 28  1  0  0  0  0
 26 29  1  0  0  0  0
 24 25  1  0  0  0  0
 24 26  1  0  0  0  0
M  END
$$$$
default_name
  -OEChem-02102213163D

 29 28  0     1  0  0  0  0  0999 V2000
   -3.5781   -3.7296    1.2702 H   0  0  0  0  0  0  0  0  0  0  0  0
   -3.5311   -2.7616    0.7732 C   0  0  0  0  0  0  0  0  0  0  0  0
   -4.2371   -2.0766    1.2382 H   0  0  0  0  0  0  0  0  0  0  0  0
   -3.7681   -2.8816   -0.2818 H   0  0  0  0  0  0  0  0  0  0  0  0
   -2.1321   -2.2086    0.9112 C   0  0  0  0  0  0  0  0  0  0  0  0
   -1.2751   -2.8426    1.5112 O   0  0  0  0  0  0  0  0  0  0  0  0
   -1.9041   -1.0186    0.3602 N   0  0  0  0  0  0  0  0  0  0  0  0
   -2.6671   -0.5416   -0.0988 H   0  0  0  0  0  0  0  0  0  0  0  0
   -0.6131   -0.3236    0.3832 C   0  0  1  0  0  0  0  0  0  0  0  0
    0.1346   -0.9625   -0.0894 H   0  0  0  0  0  0  0  0  0  0  0  0
   -0.7253    0.9751   -0.4365 C   0  0  0  0  0  0  0  0  0  0  0  0
   -1.4891    1.6110    0.0161 H   0  0  0  0  0  0  0  0  0  0  0  0
    0.2265    1.5069   -0.4000 H   0  0  0  0  0  0  0  0  0  0  0  0
   -1.1004    0.7421   -1.9046 C   0  0  0  0  0  0  0  0  0  0  0  0
   -1.8647    1.4615   -2.1967 H   0  0  0  0  0  0  0  0  0  0  0  0
   -0.2153    0.9008   -2.5216 H   0  0  0  0  0  0  0  0  0  0  0  0
   -1.7376   -0.9204   -2.2359 S   0  0  0  0  0  0  0  0  0  0  0  0
   -0.2258   -1.8869   -1.9864 C   0  0  0  0  0  0  0  0  0  0  0  0
    0.1336   -1.7504   -0.9661 H   0  0  0  0  0  0  0  0  0  0  0  0
   -0.4403   -2.9429   -2.1532 H   0  0  0  0  0  0  0  0  0  0  0  0
    0.5397   -1.5608   -2.6909 H   0  0  0  0  0  0  0  0  0  0  0  0
   -0.1711   -0.0594    1.8296 C   0  0  0  0  0  0  0  0  0  0  0  0
    0.9865   -0.2908    2.1726 O   0  0  0  0  0  0  0  0  0  0  0  0
   -1.0921    0.4156    2.6780 N   0  0  0  0  0  0  0  0  0  0  0  0
   -2.0168    0.5953    2.3206 H   0  0  0  0  0  0  0  0  0  0  0  0
   -0.8319    0.7034    4.0877 C   0  0  0  0  0  0  0  0  0  0  0  0
   -0.0192    1.4288    4.1710 H   0  0  0  0  0  0  0  0  0  0  0  0
   -1.7255    1.1088    4.5641 H   0  0  0  0  0  0  0  0  0  0  0  0
   -0.5319   -0.2118    4.6011 H   0  0  0  0  0  0  0  0  0  0  0  0
  5  6  2  0  0  0  0
  5  7  1  0  0  0  0
  2  3  1  0  0  0  0
  2  4  1  0  0  0  0
  2  5  1  0  0  0  0
  1  2  1  0  0  0  0
 22 23  2  0  0  0  0
 22 24  1  0  0  0  0
 18 19  1  0  0  0  0
 18 20  1  0  0  0  0
 18 21  1  0  0  0  0
 17 18  1  0  0  0  0
 14 15  1  0  0  0  0
 14 16  1  0  0  0  0
 14 17  1  0  0  0  0
 11 12  1  0  0  0  0
 11 13  1  0  0  0  0
 11 14  1  0  0  0  0
  9 10  1  0  0  0  0
  9 11  1  0  0  0  0
  9 22  1  0  0  0  0
  7  8  1  0  0  0  0
  7  9  1  0  0  0  0
 26 27  1  0  0  0  0
 26 28  1  0  0  0  0
 26 29  1  0  0  0  0
 24 25  1  0  0  0  0
 24 26  1  0  0  0  0
M  END
$$$$
default_name
  -OEChem-02102213163D

 29 28  0     1  0  0  0  0  0999 V2000
   -3.5781   -3.7296    1.2702 H   0  0  0  0  0  0  0  0  0  0  0  0
   -3.5311   -2.7616    0.7732 C   0  0  0  0  0  0  0  0  0  0  0  0
   -4.2371   -2.0766    1.2382 H   0  0  0  0  0  0  0  0  0  0  0  0
   -3.7681   -2.8816   -0.2818 H   0  0  0  0  0  0  0  0  0  0  0  0
   -2.1321   -2.2086    0.9112 C   0  0  0  0  0  0  0  0  0  0  0  0
   -1.2751   -2.8426    1.5112 O   0  0  0  0  0  0  0  0  0  0  0  0
   -1.9041   -1.0186    0.3602 N   0  0  0  0  0  0  0  0  0  0  0  0
   -2.6671   -0.5416   -0.0988 H   0  0  0  0  0  0  0  0  0  0  0  0
   -0.6131   -0.3236    0.3832 C   0  0  1  0  0  0  0  0  0  0  0  0
    0.1346   -0.9625   -0.0894 H   0  0  0  0  0  0  0  0  0  0  0  0
   -0.7253    0.9751   -0.4365 C   0  0  0  0  0  0  0  0  0  0  0  0
   -1.4891    1.6110    0.0161 H   0  0  0  0  0  0  0  0  0  0  0  0
    0.2265    1.5069   -0.4000 H   0  0  0  0  0  0  0  0  0  0  0  0
   -1.1004    0.7421   -1.9046 C   0  0  0  0  0  0  0  0  0  0  0  0
   -1.6518    1.6061   -2.2740 H   0  0  0  0  0  0  0  0  0  0  0  0
   -0.1847    0.6351   -2.4873 H   0  0  0  0  0  0  0  0  0  0  0  0
   -2.1209   -0.7306   -2.1681 S   0  0  0  0  0  0  0  0  0  0  0  0
   -0.9062   -2.0207   -1.7914 C   0  0  0  0  0  0  0  0  0  0  0  0
   -0.5562   -1.9077   -0.7648 H   0  0  0  0  0  0  0  0  0  0  0  0
   -1.3717   -3.0000   -1.9062 H   0  0  0  0  0  0  0  0  0  0  0  0
   -0.0618   -1.9423   -2.4767 H   0  0  0  0  0  0  0  0  0  0  0  0
   -0.1711   -0.0594    1.8296 C   0  0  0  0  0  0  0  0  0  0  0  0
    0.9865   -0.2908    2.1726 O   0  0  0  0  0  0  0  0  0  0  0  0
   -1.0921    0.4156    2.6780 N   0  0  0  0  0  0  0  0  0  0  0  0
   -2.0168    0.5953    2.3206 H   0  0  0  0  0  0  0  0  0  0  0  0
   -0.8319    0.7034    4.0877 C   0  0  0  0  0  0  0  0  0  0  0  0
   -0.0192    1.4288    4.1710 H   0  0  0  0  0  0  0  0  0  0  0  0
   -1.7255    1.1088    4.5641 H   0  0  0  0  0  0  0  0  0  0  0  0
   -0.5319   -0.2118    4.6011 H   0  0  0  0  0  0  0  0  0  0  0  0
  5  6  2  0  0  0  0
  5  7  1  0  0  0  0
  2  3  1  0  0  0  0
  2  4  1  0  0  0  0
  2  5  1  0  0  0  0
  1  2  1  0  0  0  0
 22 23  2  0  0  0  0
 22 24  1  0  0  0  0
 18 19  1  0  0  0  0
 18 20  1  0  0  0  0
 18 21  1  0  0  0  0
 17 18  1  0  0  0  0
 14 15  1  0  0  0  0
 14 16  1  0  0  0  0
 14 17  1  0  0  0  0
 11 12  1  0  0  0  0
 11 13  1  0  0  0  0
 11 14  1  0  0  0  0
  9 10  1  0  0  0  0
  9 11  1  0  0  0  0
  9 22  1  0  0  0  0
  7  8  1  0  0  0  0
  7  9  1  0  0  0  0
 26 27  1  0  0  0  0
 26 28  1  0  0  0  0
 26 29  1  0  0  0  0
 24 25  1  0  0  0  0
 24 26  1  0  0  0  0
M  END
$$$$
default_name
  -OEChem-02102213163D

 29 28  0     1  0  0  0  0  0999 V2000
   -3.5781   -3.7296    1.2702 H   0  0  0  0  0  0  0  0  0  0  0  0
   -3.5311   -2.7616    0.7732 C   0  0  0  0  0  0  0  0  0  0  0  0
   -4.2371   -2.0766    1.2382 H   0  0  0  0  0  0  0  0  0  0  0  0
   -3.7681   -2.8816   -0.2818 H   0  0  0  0  0  0  0  0  0  0  0  0
   -2.1321   -2.2086    0.9112 C   0  0  0  0  0  0  0  0  0  0  0  0
   -1.2751   -2.8426    1.5112 O   0  0  0  0  0  0  0  0  0  0  0  0
   -1.9041   -1.0186    0.3602 N   0  0  0  0  0  0  0  0  0  0  0  0
   -2.6671   -0.5416   -0.0988 H   0  0  0  0  0  0  0  0  0  0  0  0
   -0.6131   -0.3236    0.3832 C   0  0  1  0  0  0  0  0  0  0  0  0
    0.1346   -0.9625   -0.0894 H   0  0  0  0  0  0  0  0  0  0  0  0
   -0.7253    0.9751   -0.4365 C   0  0  0  0  0  0  0  0  0  0  0  0
   -1.4891    1.6110    0.0161 H   0  0  0  0  0  0  0  0  0  0  0  0
    0.2265    1.5069   -0.4000 H   0  0  0  0  0  0  0  0  0  0  0  0
   -1.1004    0.7421   -1.9046 C   0  0  0  0  0  0  0  0  0  0  0  0
   -1.4073    1.6881   -2.3495 H   0  0  0  0  0  0  0  0  0  0  0  0
   -0.2224    0.3731   -2.4361 H   0  0  0  0  0  0  0  0  0  0  0  0
   -2.4468   -0.4479   -2.1297 S   0  0  0  0  0  0  0  0  0  0  0  0
   -1.6042   -1.9688   -1.6213 C   0  0  0  0  0  0  0  0  0  0  0  0
   -1.2695   -1.8758   -0.5877 H   0  0  0  0  0  0  0  0  0  0  0  0
   -2.2951   -2.8086   -1.7006 H   0  0  0  0  0  0  0  0  0  0  0  0
   -0.7459   -2.1481   -2.2693 H   0  0  0  0  0  0  0  0  0  0  0  0
   -0.1711   -0.0594    1.8296 C   0  0  0  0  0  0  0  0  0  0  0  0
    0.9865   -0.2908    2.1726 O   0  0  0  0  0  0  0  0  0  0  0  0
   -1.0921    0.4156    2.6780 N   0  0  0  0  0  0  0  0  0  0  0  0
   -2.0168    0.5953    2.3206 H   0  0  0  0  0  0  0  0  0  0  0  0
   -0.8319    0.7034    4.0877 C   0  0  0  0  0  0  0  0  0  0  0  0
   -0.0192    1.4288    4.1710 H   0  0  0  0  0  0  0  0  0  0  0  0
   -1.7255    1.1088    4.5641 H   0  0  0  0  0  0  0  0  0  0  0  0
   -0.5319   -0.2118    4.6011 H   0  0  0  0  0  0  0  0  0  0  0  0
  5  6  2  0  0  0  0
  5  7  1  0  0  0  0
  2  3  1  0  0  0  0
  2  4  1  0  0  0  0
  2  5  1  0  0  0  0
  1  2  1  0  0  0  0
 22 23  2  0  0  0  0
 22 24  1  0  0  0  0
 18 19  1  0  0  0  0
 18 20  1  0  0  0  0
 18 21  1  0  0  0  0
 17 18  1  0  0  0  0
 14 15  1  0  0  0  0
 14 16  1  0  0  0  0
 14 17  1  0  0  0  0
 11 12  1  0  0  0  0
 11 13  1  0  0  0  0
 11 14  1  0  0  0  0
  9 10  1  0  0  0  0
  9 11  1  0  0  0  0
  9 22  1  0  0  0  0
  7  8  1  0  0  0  0
  7  9  1  0  0  0  0
 26 27  1  0  0  0  0
 26 28  1  0  0  0  0
 26 29  1  0  0  0  0
 24 25  1  0  0  0  0
 24 26  1  0  0  0  0
M  END
$$$$
default_name
  -OEChem-02102213163D

 29 28  0     1  0  0  0  0  0999 V2000
   -3.5781   -3.7296    1.2702 H   0  0  0  0  0  0  0  0  0  0  0  0
   -3.5311   -2.7616    0.7732 C   0  0  0  0  0  0  0  0  0  0  0  0
   -4.2371   -2.0766    1.2382 H   0  0  0  0  0  0  0  0  0  0  0  0
   -3.7681   -2.8816   -0.2818 H   0  0  0  0  0  0  0  0  0  0  0  0
   -2.1321   -2.2086    0.9112 C   0  0  0  0  0  0  0  0  0  0  0  0
   -1.2751   -2.8426    1.5112 O   0  0  0  0  0  0  0  0  0  0  0  0
   -1.9041   -1.0186    0.3602 N   0  0  0  0  0  0  0  0  0  0  0  0
   -2.6671   -0.5416   -0.0988 H   0  0  0  0  0  0  0  0  0  0  0  0
   -0.6131   -0.3236    0.3832 C   0  0  1  0  0  0  0  0  0  0  0  0
    0.1346   -0.9625   -0.0894 H   0  0  0  0  0  0  0  0  0  0  0  0
   -0.7253    0.9751   -0.4365 C   0  0  0  0  0  0  0  0  0  0  0  0
   -1.4891    1.6110    0.0161 H   0  0  0  0  0  0  0  0  0  0  0  0
    0.2265    1.5069   -0.4000 H   0  0  0  0  0  0  0  0  0  0  0  0
   -1.1004    0.7421   -1.9046 C   0  0  0  0  0  0  0  0  0  0  0  0
   -1.1479    1.7019   -2.4180 H   0  0  0  0  0  0  0  0  0  0  0  0
   -0.3258    0.1326   -2.3715 H   0  0  0  0  0  0  0  0  0  0  0  0
   -2.6931   -0.0916   -2.1233 S   0  0  0  0  0  0  0  0  0  0  0  0
   -2.2723   -1.7350   -1.4877 C   0  0  0  0  0  0  0  0  0  0  0  0
   -1.9575   -1.6570   -0.4466 H   0  0  0  0  0  0  0  0  0  0  0  0
   -3.1478   -2.3819   -1.5505 H   0  0  0  0  0  0  0  0  0  0  0  0
   -1.4658   -2.1642   -2.0828 H   0  0  0  0  0  0  0  0  0  0  0  0
   -0.1711   -0.0594    1.8296 C   0  0  0  0  0  0  0  0  0  0  0  0
    0.9865   -0.2908    2.1726 O   0  0  0  0  0  0  0  0  0  0  0  0
   -1.0921    0.4156    2.6780 N   0  0  0  0  0  0  0  0  0  0  0  0
   -2.0168    0.5953    2.3206 H   0  0  0  0  0  0  0  0  0  0  0  0
   -0.8319    0.7034    4.0877 C   0  0  0  0  0  0  0  0  0  0  0  0
   -0.0192    1.4288    4.1710 H   0  0  0  0  0  0  0  0  0  0  0  0
   -1.7255    1.1088    4.5641 H   0  0  0  0  0  0  0  0  0  0  0  0
   -0.5319   -0.2118    4.6011 H   0  0  0  0  0  0  0  0  0  0  0  0
  5  6  2  0  0  0  0
  5  7  1  0  0  0  0
  2  3  1  0  0  0  0
  2  4  1  0  0  0  0
  2  5  1  0  0  0  0
  1  2  1  0  0  0  0
 22 23  2  0  0  0  0
 22 24  1  0  0  0  0
 18 19  1  0  0  0  0
 18 20  1  0  0  0  0
 18 21  1  0  0  0  0
 17 18  1  0  0  0  0
 14 15  1  0  0  0  0
 14 16  1  0  0  0  0
 14 17  1  0  0  0  0
 11 12  1  0  0  0  0
 11 13  1  0  0  0  0
 11 14  1  0  0  0  0
  9 10  1  0  0  0  0
  9 11  1  0  0  0  0
  9 22  1  0  0  0  0
  7  8  1  0  0  0  0
  7  9  1  0  0  0  0
 26 27  1  0  0  0  0
 26 28  1  0  0  0  0
 26 29  1  0  0  0  0
 24 25  1  0  0  0  0
 24 26  1  0  0  0  0
M  END
$$$$
default_name
  -OEChem-02102213163D

 29 28  0     1  0  0  0  0  0999 V2000
   -3.5781   -3.7296    1.2702 H   0  0  0  0  0  0  0  0  0  0  0  0
   -3.5311   -2.7616    0.7732 C   0  0  0  0  0  0  0  0  0  0  0  0
   -4.2371   -2.0766    1.2382 H   0  0  0  0  0  0  0  0  0  0  0  0
   -3.7681   -2.8816   -0.2818 H   0  0  0  0  0  0  0  0  0  0  0  0
   -2.1321   -2.2086    0.9112 C   0  0  0  0  0  0  0  0  0  0  0  0
   -1.2751   -2.8426    1.5112 O   0  0  0  0  0  0  0  0  0  0  0  0
   -1.9041   -1.0186    0.3602 N   0  0  0  0  0  0  0  0  0  0  0  0
   -2.6671   -0.5416   -0.0988 H   0  0  0  0  0  0  0  0  0  0  0  0
   -0.6131   -0.3236    0.3832 C   0  0  1  0  0  0  0  0  0  0  0  0
    0.1346   -0.9625   -0.0894 H   0  0  0  0  0  0  0  0  0  0  0  0
   -0.7253    0.9751   -0.4365 C   0  0  0  0  0  0  0  0  0  0  0  0
   -1.4891    1.6110    0.0161 H   0  0  0  0  0  0  0  0  0  0  0  0
    0.2265    1.5069   -0.4000 H   0  0  0  0  0  0  0  0  0  0  0  0
   -1.1004    0.7421   -1.9046 C   0  0  0  0  0  0  0  0  0  0  0  0
   -0.8912    1.6466   -2.4748 H   0  0  0  0  0  0  0  0  0  0  0  0
   -0.4878   -0.0700   -2.2979 H   0  0  0  0  0  0  0  0  0  0  0  0
   -2.8429    0.3139   -2.1494 S   0  0  0  0  0  0  0  0  0  0  0  0
   -2.8649   -1.3351   -1.3997 C   0  0  0  0  0  0  0  0  0  0  0  0
   -2.5734   -1.2663   -0.3513 H   0  0  0  0  0  0  0  0  0  0  0  0
   -3.8715   -1.7489   -1.4661 H   0  0  0  0  0  0  0  0  0  0  0  0
   -2.1725   -1.9895   -1.9300 H   0  0  0  0  0  0  0  0  0  0  0  0
   -0.1711   -0.0594    1.8296 C   0  0  0  0  0  0  0  0  0  0  0  0
    0.9865   -0.2908    2.1726 O   0  0  0  0  0  0  0  0  0  0  0  0
   -1.0921    0.4156    2.6780 N   0  0  0  0  0  0  0  0  0  0  0  0
   -2.0168    0.5953    2.3206 H   0  0  0  0  0  0  0  0  0  0  0  0
   -0.8319    0.7034    4.0877 C   0  0  0  0  0  0  0  0  0  0  0  0
   -0.0192    1.4288    4.1710 H   0  0  0  0  0  0  0  0  0  0  0  0
   -1.7255    1.1088    4.5641 H   0  0  0  0  0  0  0  0  0  0  0  0
   -0.5319   -0.2118    4.6011 H   0  0  0  0  0  0  0  0  0  0  0  0
  5  6  2  0  0  0  0
  5  7  1  0  0  0  0
  2  3  1  0  0  0  0
  2  4  1  0  0  0  0
  2  5  1  0  0  0  0
  1  2  1  0  0  0  0
 22 23  2  0  0  0  0
 22 24  1  0  0  0  0
 18 19  1  0  0  0  0
 18 20  1  0  0  0  0
 18 21  1  0  0  0  0
 17 18  1  0  0  0  0
 14 15  1  0  0  0  0
 14 16  1  0  0  0  0
 14 17  1  0  0  0  0
 11 12  1  0  0  0  0
 11 13  1  0  0  0  0
 11 14  1  0  0  0  0
  9 10  1  0  0  0  0
  9 11  1  0  0  0  0
  9 22  1  0  0  0  0
  7  8  1  0  0  0  0
  7  9  1  0  0  0  0
 26 27  1  0  0  0  0
 26 28  1  0  0  0  0
 26 29  1  0  0  0  0
 24 25  1  0  0  0  0
 24 26  1  0  0  0  0
M  END
$$$$
default_name
  -OEChem-02102213163D

 29 28  0     1  0  0  0  0  0999 V2000
   -3.5781   -3.7296    1.2702 H   0  0  0  0  0  0  0  0  0  0  0  0
   -3.5311   -2.7616    0.7732 C   0  0  0  0  0  0  0  0  0  0  0  0
   -4.2371   -2.0766    1.2382 H   0  0  0  0  0  0  0  0  0  0  0  0
   -3.7681   -2.8816   -0.2818 H   0  0  0  0  0  0  0  0  0  0  0  0
   -2.1321   -2.2086    0.9112 C   0  0  0  0  0  0  0  0  0  0  0  0
   -1.2751   -2.8426    1.5112 O   0  0  0  0  0  0  0  0  0  0  0  0
   -1.9041   -1.0186    0.3602 N   0  0  0  0  0  0  0  0  0  0  0  0
   -2.6671   -0.5416   -0.0988 H   0  0  0  0  0  0  0  0  0  0  0  0
   -0.6131   -0.3236    0.3832 C   0  0  1  0  0  0  0  0  0  0  0  0
    0.1346   -0.9625   -0.0894 H   0  0  0  0  0  0  0  0  0  0  0  0
   -0.7253    0.9751   -0.4365 C   0  0  0  0  0  0  0  0  0  0  0  0
   -1.4891    1.6110    0.0161 H   0  0  0  0  0  0  0  0  0  0  0  0
    0.2265    1.5069   -0.4000 H   0  0  0  0  0  0  0  0  0  0  0  0
   -1.1004    0.7421   -1.9046 C   0  0  0  0  0  0  0  0  0  0  0  0
   -0.6546    1.5260   -2.5161 H   0  0  0  0  0  0  0  0  0  0  0  0
   -0.6974   -0.2209   -2.2205 H   0  0  0  0  0  0  0  0  0  0  0  0
   -2.8861    0.7411   -2.2062 S   0  0  0  0  0  0  0  0  0  0  0  0
   -3.3417   -0.7964   -1.3634 C   0  0  0  0  0  0  0  0  0  0  0  0
   -3.0753   -0.7301   -0.3082 H   0  0  0  0  0  0  0  0  0  0  0  0
   -4.4170   -0.9527   -1.4531 H   0  0  0  0  0  0  0  0  0  0  0  0
   -2.8178   -1.6359   -1.8212 H   0  0  0  0  0  0  0  0  0  0  0  0
   -0.1711   -0.0594    1.8296 C   0  0  0  0  0  0  0  0  0  0  0  0
    0.9865   -0.2908    2.1726 O   0  0  0  0  0  0  0  0  0  0  0  0
   -1.0921    0.4156    2.6780 N   0  0  0  0  0  0  0  0  0  0  0  0
   -2.0168    0.5953    2.3206 H   0  0  0  0  0  0  0  0  0  0  0  0
   -0.8319    0.7034    4.0877 C   0  0  0  0  0  0  0  0  0  0  0  0
   -0.0192    1.4288    4.1710 H   0  0  0  0  0  0  0  0  0  0  0  0
   -1.7255    1.1088    4.5641 H   0  0  0  0  0  0  0  0  0  0  0  0
   -0.5319   -0.2118    4.6011 H   0  0  0  0  0  0  0  0  0  0  0  0
  5  6  2  0  0  0  0
  5  7  1  0  0  0  0
  2  3  1  0  0  0  0
  2  4  1  0  0  0  0
  2  5  1  0  0  0  0
  1  2  1  0  0  0  0
 22 23  2  0  0  0  0
 22 24  1  0  0  0  0
 18 19  1  0  0  0  0
 18 20  1  0  0  0  0
 18 21  1  0  0  0  0
 17 18  1  0  0  0  0
 14 15  1  0  0  0  0
 14 16  1  0  0  0  0
 14 17  1  0  0  0  0
 11 12  1  0  0  0  0
 11 13  1  0  0  0  0
 11 14  1  0  0  0  0
  9 10  1  0  0  0  0
  9 11  1  0  0  0  0
  9 22  1  0  0  0  0
  7  8  1  0  0  0  0
  7  9  1  0  0  0  0
 26 27  1  0  0  0  0
 26 28  1  0  0  0  0
 26 29  1  0  0  0  0
 24 25  1  0  0  0  0
 24 26  1  0  0  0  0
M  END
$$$$
default_name
  -OEChem-02102213163D

 29 28  0     1  0  0  0  0  0999 V2000
   -3.5781   -3.7296    1.2702 H   0  0  0  0  0  0  0  0  0  0  0  0
   -3.5311   -2.7616    0.7732 C   0  0  0  0  0  0  0  0  0  0  0  0
   -4.2371   -2.0766    1.2382 H   0  0  0  0  0  0  0  0  0  0  0  0
   -3.7681   -2.8816   -0.2818 H   0  0  0  0  0  0  0  0  0  0  0  0
   -2.1321   -2.2086    0.9112 C   0  0  0  0  0  0  0  0  0  0  0  0
   -1.2751   -2.8426    1.5112 O   0  0  0  0  0  0  0  0  0  0  0  0
   -1.9041   -1.0186    0.3602 N   0  0  0  0  0  0  0  0  0  0  0  0
   -2.6671   -0.5416   -0.0988 H   0  0  0  0  0  0  0  0  0  0  0  0
   -0.6131   -0.3236    0.3832 C   0  0  1  0  0  0  0  0  0  0  0  0
    0.1346   -0.9625   -0.0894 H   0  0  0  0  0  0  0  0  0  0  0  0
   -0.7253    0.9751   -0.4365 C   0  0  0  0  0  0  0  0  0  0  0  0
   -1.4891    1.6110    0.0161 H   0  0  0  0  0  0  0  0  0  0  0  0
    0.2265    1.5069   -0.4000 H   0  0  0  0  0  0  0  0  0  0  0  0
   -1.1004    0.7421   -1.9046 C   0  0  0  0  0  0  0  0  0  0  0  0
   -0.4545    1.3482   -2.5390 H   0  0  0  0  0  0  0  0  0  0  0  0
   -0.9403   -0.3097   -2.1443 H   0  0  0  0  0  0  0  0  0  0  0  0
   -2.8196    1.1609   -2.2898 S   0  0  0  0  0  0  0  0  0  0  0  0
   -3.6701   -0.1555   -1.3812 C   0  0  0  0  0  0  0  0  0  0  0  0
   -3.4288   -0.0851   -0.3202 H   0  0  0  0  0  0  0  0  0  0  0  0
   -4.7471   -0.0476   -1.5124 H   0  0  0  0  0  0  0  0  0  0  0  0
   -3.3578   -1.1276   -1.7639 H   0  0  0  0  0  0  0  0  0  0  0  0
   -0.1711   -0.0594    1.8296 C   0  0  0  0  0  0  0  0  0  0  0  0
    0.9865   -0.2908    2.1726 O   0  0  0  0  0  0  0  0  0  0  0  0
   -1.0921    0.4156    2.6780 N   0  0  0  0  0  0  0  0  0  0  0  0
   -2.0168    0.5953    2.3206 H   0  0  0  0  0  0  0  0  0  0  0  0
   -0.8319    0.7034    4.0877 C   0  0  0  0  0  0  0  0  0  0  0  0
   -0.0192    1.4288    4.1710 H   0  0  0  0  0  0  0  0  0  0  0  0
   -1.7255    1.1088    4.5641 H   0  0  0  0  0  0  0  0  0  0  0  0
   -0.5319   -0.2118    4.6011 H   0  0  0  0  0  0  0  0  0  0  0  0
  5  6  2  0  0  0  0
  5  7  1  0  0  0  0
  2  3  1  0  0  0  0
  2  4  1  0  0  0  0
  2  5  1  0  0  0  0
  1  2  1  0  0  0  0
 22 23  2  0  0  0  0
 22 24  1  0  0  0  0
 18 19  1  0  0  0  0
 18 20  1  0  0  0  0
 18 21  1  0  0  0  0
 17 18  1  0  0  0  0
 14 15  1  0  0  0  0
 14 16  1  0  0  0  0
 14 17  1  0  0  0  0
 11 12  1  0  0  0  0
 11 13  1  0  0  0  0
 11 14  1  0  0  0  0
  9 10  1  0  0  0  0
  9 11  1  0  0  0  0
  9 22  1  0  0  0  0
  7  8  1  0  0  0  0
  7  9  1  0  0  0  0
 26 27  1  0  0  0  0
 26 28  1  0  0  0  0
 26 29  1  0  0  0  0
 24 25  1  0  0  0  0
 24 26  1  0  0  0  0
M  END
$$$$
default_name
  -OEChem-02102213163D

 29 28  0     1  0  0  0  0  0999 V2000
   -3.5781   -3.7296    1.2702 H   0  0  0  0  0  0  0  0  0  0  0  0
   -3.5311   -2.7616    0.7732 C   0  0  0  0  0  0  0  0  0  0  0  0
   -4.2371   -2.0766    1.2382 H   0  0  0  0  0  0  0  0  0  0  0  0
   -3.7681   -2.8816   -0.2818 H   0  0  0  0  0  0  0  0  0  0  0  0
   -2.1321   -2.2086    0.9112 C   0  0  0  0  0  0  0  0  0  0  0  0
   -1.2751   -2.8426    1.5112 O   0  0  0  0  0  0  0  0  0  0  0  0
   -1.9041   -1.0186    0.3602 N   0  0  0  0  0  0  0  0  0  0  0  0
   -2.6671   -0.5416   -0.0988 H   0  0  0  0  0  0  0  0  0  0  0  0
   -0.6131   -0.3236    0.3832 C   0  0  1  0  0  0  0  0  0  0  0  0
    0.1346   -0.9625   -0.0894 H   0  0  0  0  0  0  0  0  0  0  0  0
   -0.7253    0.9751   -0.4365 C   0  0  0  0  0  0  0  0  0  0  0  0
   -1.4891    1.6110    0.0161 H   0  0  0  0  0  0  0  0  0  0  0  0
    0.2265    1.5069   -0.4000 H   0  0  0  0  0  0  0  0  0  0  0  0
   -1.1004    0.7421   -1.9046 C   0  0  0  0  0  0  0  0  0  0  0  0
   -0.3043    1.1255   -2.5420 H   0  0  0  0  0  0  0  0  0  0  0  0
   -1.1999   -0.3306   -2.0747 H   0  0  0  0  0  0  0  0  0  0  0  0
   -2.6481    1.5446   -2.3945 S   0  0  0  0  0  0  0  0  0  0  0  0
   -3.8278    0.5437   -1.4519 C   0  0  0  0  0  0  0  0  0  0  0  0
   -3.6100    0.6247   -0.3866 H   0  0  0  0  0  0  0  0  0  0  0  0
   -4.8393    0.9047   -1.6399 H   0  0  0  0  0  0  0  0  0  0  0  0
   -3.7557   -0.4991   -1.7620 H   0  0  0  0  0  0  0  0  0  0  0  0
   -0.1711   -0.0594    1.8296 C   0  0  0  0  0  0  0  0  0  0  0  0
    0.9865   -0.2908    2.1726 O   0  0  0  0  0  0  0  0  0  0  0  0
   -1.0921    0.4156    2.6780 N   0  0  0  0  0  0  0  0  0  0  0  0
   -2.0168    0.5953    2.3206 H   0  0  0  0  0  0  0  0  0  0  0  0
   -0.8319    0.7034    4.0877 C   0  0  0  0  0  0  0  0  0  0  0  0
   -0.0192    1.4288    4.1710 H   0  0  0  0  0  0  0  0  0  0  0  0
   -1.7255    1.1088    4.5641 H   0  0  0  0  0  0  0  0  0  0  0  0
   -0.5319   -0.2118    4.6011 H   0  0  0  0  0  0  0  0  0  0  0  0
  5  6  2  0  0  0  0
  5  7  1  0  0  0  0
  2  3  1  0  0  0  0
  2  4  1  0  0  0  0
  2  5  1  0  0  0  0
  1  2  1  0  0  0  0
 22 23  2  0  0  0  0
 22 24  1  0  0  0  0
 18 19  1  0  0  0  0
 18 20  1  0  0  0  0
 18 21  1  0  0  0  0
 17 18  1  0  0  0  0
 14 15  1  0  0  0  0
 14 16  1  0  0  0  0
 14 17  1  0  0  0  0
 11 12  1  0  0  0  0
 11 13  1  0  0  0  0
 11 14  1  0  0  0  0
  9 10  1  0  0  0  0
  9 11  1  0  0  0  0
  9 22  1  0  0  0  0
  7  8  1  0  0  0  0
  7  9  1  0  0  0  0
 26 27  1  0  0  0  0
 26 28  1  0  0  0  0
 26 29  1  0  0  0  0
 24 25  1  0  0  0  0
 24 26  1  0  0  0  0
M  END
$$$$
default_name
  -OEChem-02102213163D

 29 28  0     1  0  0  0  0  0999 V2000
   -3.5781   -3.7296    1.2702 H   0  0  0  0  0  0  0  0  0  0  0  0
   -3.5311   -2.7616    0.7732 C   0  0  0  0  0  0  0  0  0  0  0  0
   -4.2371   -2.0766    1.2382 H   0  0  0  0  0  0  0  0  0  0  0  0
   -3.7681   -2.8816   -0.2818 H   0  0  0  0  0  0  0  0  0  0  0  0
   -2.1321   -2.2086    0.9112 C   0  0  0  0  0  0  0  0  0  0  0  0
   -1.2751   -2.8426    1.5112 O   0  0  0  0  0  0  0  0  0  0  0  0
   -1.9041   -1.0186    0.3602 N   0  0  0  0  0  0  0  0  0  0  0  0
   -2.6671   -0.5416   -0.0988 H   0  0  0  0  0  0  0  0  0  0  0  0
   -0.6131   -0.3236    0.3832 C   0  0  1  0  0  0  0  0  0  0  0  0
    0.1346   -0.9625   -0.0894 H   0  0  0  0  0  0  0  0  0  0  0  0
   -0.7253    0.9751   -0.4365 C   0  0  0  0  0  0  0  0  0  0  0  0
   -1.4891    1.6110    0.0161 H   0  0  0  0  0  0  0  0  0  0  0  0
    0.2265    1.5069   -0.4000 H   0  0  0  0  0  0  0  0  0  0  0  0
   -1.1004    0.7421   -1.9046 C   0  0  0  0  0  0  0  0  0  0  0  0
   -0.2143    0.8729   -2.5249 H   0  0  0  0  0  0  0  0  0  0  0  0
   -1.4586   -0.2819   -2.0163 H   0  0  0  0  0  0  0  0  0  0  0  0
   -2.3833    1.8661   -2.5132 S   0  0  0  0  0  0  0  0  0  0  0  0
   -3.8040    1.2538   -1.5707 C   0  0  0  0  0  0  0  0  0  0  0  0
   -3.6064    1.3511   -0.5028 H   0  0  0  0  0  0  0  0  0  0  0  0
   -4.6873    1.8393   -1.8271 H   0  0  0  0  0  0  0  0  0  0  0  0
   -3.9843    0.2067   -1.8156 H   0  0  0  0  0  0  0  0  0  0  0  0
   -0.1711   -0.0594    1.8296 C   0  0  0  0  0  0  0  0  0  0  0  0
    0.9865   -0.2908    2.1726 O   0  0  0  0  0  0  0  0  0  0  0  0
   -1.0921    0.4156    2.6780 N   0  0  0  0  0  0  0  0  0  0  0  0
   -2.0168    0.5953    2.3206 H   0  0  0  0  0  0  0  0  0  0  0  0
   -0.8319    0.7034    4.0877 C   0  0  0  0  0  0  0  0  0  0  0  0
   -0.0192    1.4288    4.1710 H   0  0  0  0  0  0  0  0  0  0  0  0
   -1.7255    1.1088    4.5641 H   0  0  0  0  0  0  0  0  0  0  0  0
   -0.5319   -0.2118    4.6011 H   0  0  0  0  0  0  0  0  0  0  0  0
  5  6  2  0  0  0  0
  5  7  1  0  0  0  0
  2  3  1  0  0  0  0
  2  4  1  0  0  0  0
  2  5  1  0  0  0  0
  1  2  1  0  0  0  0
 22 23  2  0  0  0  0
 22 24  1  0  0  0  0
 18 19  1  0  0  0  0
 18 20  1  0  0  0  0
 18 21  1  0  0  0  0
 17 18  1  0  0  0  0
 14 15  1  0  0  0  0
 14 16  1  0  0  0  0
 14 17  1  0  0  0  0
 11 12  1  0  0  0  0
 11 13  1  0  0  0  0
 11 14  1  0  0  0  0
  9 10  1  0  0  0  0
  9 11  1  0  0  0  0
  9 22  1  0  0  0  0
  7  8  1  0  0  0  0
  7  9  1  0  0  0  0
 26 27  1  0  0  0  0
 26 28  1  0  0  0  0
 26 29  1  0  0  0  0
 24 25  1  0  0  0  0
 24 26  1  0  0  0  0
M  END
$$$$
default_name
  -OEChem-02102213163D

 29 28  0     1  0  0  0  0  0999 V2000
   -3.5781   -3.7296    1.2702 H   0  0  0  0  0  0  0  0  0  0  0  0
   -3.5311   -2.7616    0.7732 C   0  0  0  0  0  0  0  0  0  0  0  0
   -4.2371   -2.0766    1.2382 H   0  0  0  0  0  0  0  0  0  0  0  0
   -3.7681   -2.8816   -0.2818 H   0  0  0  0  0  0  0  0  0  0  0  0
   -2.1321   -2.2086    0.9112 C   0  0  0  0  0  0  0  0  0  0  0  0
   -1.2751   -2.8426    1.5112 O   0  0  0  0  0  0  0  0  0  0  0  0
   -1.9041   -1.0186    0.3602 N   0  0  0  0  0  0  0  0  0  0  0  0
   -2.6671   -0.5416   -0.0988 H   0  0  0  0  0  0  0  0  0  0  0  0
   -0.6131   -0.3236    0.3832 C   0  0  1  0  0  0  0  0  0  0  0  0
    0.1346   -0.9625   -0.0894 H   0  0  0  0  0  0  0  0  0  0  0  0
   -0.7253    0.9751   -0.4365 C   0  0  0  0  0  0  0  0  0  0  0  0
   -1.4891    1.6110    0.0161 H   0  0  0  0  0  0  0  0  0  0  0  0
    0.2265    1.5069   -0.4000 H   0  0  0  0  0  0  0  0  0  0  0  0
   -1.1004    0.7421   -1.9046 C   0  0  0  0  0  0  0  0  0  0  0  0
   -0.1906    0.6077   -2.4889 H   0  0  0  0  0  0  0  0  0  0  0  0
   -1.6987   -0.1671   -1.9732 H   0  0  0  0  0  0  0  0  0  0  0  0
   -2.0431    2.1035   -2.6377 S   0  0  0  0  0  0  0  0  0  0  0  0
   -3.6004    1.9262   -1.7294 C   0  0  0  0  0  0  0  0  0  0  0  0
   -3.4183    2.0445   -0.6608 H   0  0  0  0  0  0  0  0  0  0  0  0
   -4.3015    2.6926   -2.0611 H   0  0  0  0  0  0  0  0  0  0  0  0
   -4.0281    0.9417   -1.9211 H   0  0  0  0  0  0  0  0  0  0  0  0
   -0.1711   -0.0594    1.8296 C   0  0  0  0  0  0  0  0  0  0  0  0
    0.9865   -0.2908    2.1726 O   0  0  0  0  0  0  0  0  0  0  0  0
   -1.0921    0.4156    2.6780 N   0  0  0  0  0  0  0  0  0  0  0  0
   -2.0168    0.5953    2.3206 H   0  0  0  0  0  0  0  0  0  0  0  0
   -0.8319    0.7034    4.0877 C   0  0  0  0  0  0  0  0  0  0  0  0
   -0.0192    1.4288    4.1710 H   0  0  0  0  0  0  0  0  0  0  0  0
   -1.7255    1.1088    4.5641 H   0  0  0  0  0  0  0  0  0  0  0  0
   -0.5319   -0.2118    4.6011 H   0  0  0  0  0  0  0  0  0  0  0  0
  5  6  2  0  0  0  0
  5  7  1  0  0  0  0
  2  3  1  0  0  0  0
  2  4  1  0  0  0  0
  2  5  1  0  0  0  0
  1  2  1  0  0  0  0
 22 23  2  0  0  0  0
 22 24  1  0  0  0  0
 18 19  1  0  0  0  0
 18 20  1  0  0  0  0
 18 21  1  0  0  0  0
 17 18  1  0  0  0  0
 14 15  1  0  0  0  0
 14 16  1  0  0  0  0
 14 17  1  0  0  0  0
 11 12  1  0  0  0  0
 11 13  1  0  0  0  0
 11 14  1  0  0  0  0
  9 10  1  0  0  0  0
  9 11  1  0  0  0  0
  9 22  1  0  0  0  0
  7  8  1  0  0  0  0
  7  9  1  0  0  0  0
 26 27  1  0  0  0  0
 26 28  1  0  0  0  0
 26 29  1  0  0  0  0
 24 25  1  0  0  0  0
 24 26  1  0  0  0  0
M  END
$$$$
default_name
  -OEChem-02102213163D

 29 28  0     1  0  0  0  0  0999 V2000
   -3.5781   -3.7296    1.2702 H   0  0  0  0  0  0  0  0  0  0  0  0
   -3.5311   -2.7616    0.7732 C   0  0  0  0  0  0  0  0  0  0  0  0
   -4.2371   -2.0766    1.2382 H   0  0  0  0  0  0  0  0  0  0  0  0
   -3.7681   -2.8816   -0.2818 H   0  0  0  0  0  0  0  0  0  0  0  0
   -2.1321   -2.2086    0.9112 C   0  0  0  0  0  0  0  0  0  0  0  0
   -1.2751   -2.8426    1.5112 O   0  0  0  0  0  0  0  0  0  0  0  0
   -1.9041   -1.0186    0.3602 N   0  0  0  0  0  0  0  0  0  0  0  0
   -2.6671   -0.5416   -0.0988 H   0  0  0  0  0  0  0  0  0  0  0  0
   -0.6131   -0.3236    0.3832 C   0  0  1  0  0  0  0  0  0  0  0  0
    0.1346   -0.9625   -0.0894 H   0  0  0  0  0  0  0  0  0  0  0  0
   -0.7253    0.9751   -0.4365 C   0  0  0  0  0  0  0  0  0  0  0  0
   -1.4891    1.6110    0.0161 H   0  0  0  0  0  0  0  0  0  0  0  0
    0.2265    1.5069   -0.4000 H   0  0  0  0  0  0  0  0  0  0  0  0
   -1.1004    0.7421   -1.9046 C   0  0  0  0  0  0  0  0  0  0  0  0
   -0.2349    0.3479   -2.4363 H   0  0  0  0  0  0  0  0  0  0  0  0
   -1.9039    0.0060   -1.9482 H   0  0  0  0  0  0  0  0  0  0  0  0
   -1.6507    2.2405   -2.7597 S   0  0  0  0  0  0  0  0  0  0  0  0
   -3.2308    2.5153   -1.9173 C   0  0  0  0  0  0  0  0  0  0  0  0
   -3.0586    2.6576   -0.8501 H   0  0  0  0  0  0  0  0  0  0  0  0
   -3.7081    3.4063   -2.3259 H   0  0  0  0  0  0  0  0  0  0  0  0
   -3.8840    1.6559   -2.0712 H   0  0  0  0  0  0  0  0  0  0  0  0
   -0.1711   -0.0594    1.8296 C   0  0  0  0  0  0  0  0  0  0  0  0
    0.9865   -0.2908    2.1726 O   0  0  0  0  0  0  0  0  0  0  0  0
   -1.0921    0.4156    2.6780 N   0  0  0  0  0  0  0  0  0  0  0  0
   -2.0168    0.5953    2.3206 H   0  0  0  0  0  0  0  0  0  0  0  0
   -0.8319    0.7034    4.0877 C   0  0  0  0  0  0  0  0  0  0  0  0
   -0.0192    1.4288    4.1710 H   0  0  0  0  0  0  0  0  0  0  0  0
   -1.7255    1.1088    4.5641 H   0  0  0  0  0  0  0  0  0  0  0  0
   -0.5319   -0.2118    4.6011 H   0  0  0  0  0  0  0  0  0  0  0  0
  5  6  2  0  0  0  0
  5  7  1  0  0  0  0
  2  3  1  0  0  0  0
  2  4  1  0  0  0  0
  2  5  1  0  0  0  0
  1  2  1  0  0  0  0
 22 23  2  0  0  0  0
 22 24  1  0  0  0  0
 18 19  1  0  0  0  0
 18 20  1  0  0  0  0
 18 21  1  0  0  0  0
 17 18  1  0  0  0  0
 14 15  1  0  0  0  0
 14 16  1  0  0  0  0
 14 17  1  0  0  0  0
 11 12  1  0  0  0  0
 11 13  1  0  0  0  0
 11 14  1  0  0  0  0
  9 10  1  0  0  0  0
  9 11  1  0  0  0  0
  9 22  1  0  0  0  0
  7  8  1  0  0  0  0
  7  9  1  0  0  0  0
 26 27  1  0  0  0  0
 26 28  1  0  0  0  0
 26 29  1  0  0  0  0
 24 25  1  0  0  0  0
 24 26  1  0  0  0  0
M  END
$$$$
default_name
  -OEChem-02102213163D

 29 28  0     1  0  0  0  0  0999 V2000
   -3.5781   -3.7296    1.2702 H   0  0  0  0  0  0  0  0  0  0  0  0
   -3.5311   -2.7616    0.7732 C   0  0  0  0  0  0  0  0  0  0  0  0
   -4.2371   -2.0766    1.2382 H   0  0  0  0  0  0  0  0  0  0  0  0
   -3.7681   -2.8816   -0.2818 H   0  0  0  0  0  0  0  0  0  0  0  0
   -2.1321   -2.2086    0.9112 C   0  0  0  0  0  0  0  0  0  0  0  0
   -1.2751   -2.8426    1.5112 O   0  0  0  0  0  0  0  0  0  0  0  0
   -1.9041   -1.0186    0.3602 N   0  0  0  0  0  0  0  0  0  0  0  0
   -2.6671   -0.5416   -0.0988 H   0  0  0  0  0  0  0  0  0  0  0  0
   -0.6131   -0.3236    0.3832 C   0  0  1  0  0  0  0  0  0  0  0  0
    0.1346   -0.9625   -0.0894 H   0  0  0  0  0  0  0  0  0  0  0  0
   -0.7253    0.9751   -0.4365 C   0  0  0  0  0  0  0  0  0  0  0  0
   -1.2775    1.7132    0.1491 H   0  0  0  0  0  0  0  0  0  0  0  0
    0.2744    1.3687   -0.6256 H   0  0  0  0  0  0  0  0  0  0  0  0
   -1.4417    0.7916   -1.7794 C   0  0  0  0  0  0  0  0  0  0  0  0
   -0.8991    0.0596   -2.3768 H   0  0  0  0  0  0  0  0  0  0  0  0
   -2.4475    0.4144   -1.5911 H   0  0  0  0  0  0  0  0  0  0  0  0
   -1.5750    2.3176   -2.7454 S   0  0  0  0  0  0  0  0  0  0  0  0
   -2.7508    3.2340   -1.7161 C   0  0  0  0  0  0  0  0  0  0  0  0
   -2.3313    3.3806   -0.7203 H   0  0  0  0  0  0  0  0  0  0  0  0
   -2.9471    4.2060   -2.1696 H   0  0  0  0  0  0  0  0  0  0  0  0
   -3.6855    2.6777   -1.6412 H   0  0  0  0  0  0  0  0  0  0  0  0
   -0.1711   -0.0594    1.8296 C   0  0  0  0  0  0  0  0  0  0  0  0
    0.9865   -0.2908    2.1726 O   0  0  0  0  0  0  0  0  0  0  0  0
   -1.0921    0.4156    2.6780 N   0  0  0  0  0  0  0  0  0  0  0  0
   -2.0168    0.5953    2.3206 H   0  0  0  0  0  0  0  0  0  0  0  0
   -0.8319    0.7034    4.0877 C   0  0  0  0  0  0  0  0  0  0  0  0
   -0.0192    1.4288    4.1710 H   0  0  0  0  0  0  0  0  0  0  0  0
   -1.7255    1.1088    4.5641 H   0  0  0  0  0  0  0  0  0  0  0  0
   -0.5319   -0.2118    4.6011 H   0  0  0  0  0  0  0  0  0  0  0  0
  5  6  2  0  0  0  0
  5  7  1  0  0  0  0
  2  3  1  0  0  0  0
  2  4  1  0  0  0  0
  2  5  1  0  0  0  0
  1  2  1  0  0  0  0
 22 23  2  0  0  0  0
 22 24  1  0  0  0  0
 18 19  1  0  0  0  0
 18 20  1  0  0  0  0
 18 21  1  0  0  0  0
 17 18  1  0  0  0  0
 14 15  1  0  0  0  0
 14 16  1  0  0  0  0
 14 17  1  0  0  0  0
 11 12  1  0  0  0  0
 11 13  1  0  0  0  0
 11 14  1  0  0  0  0
  9 10  1  0  0  0  0
  9 11  1  0  0  0  0
  9 22  1  0  0  0  0
  7  8  1  0  0  0  0
  7  9  1  0  0  0  0
 26 27  1  0  0  0  0
 26 28  1  0  0  0  0
 26 29  1  0  0  0  0
 24 25  1  0  0  0  0
 24 26  1  0  0  0  0
M  END
$$$$
default_name
  -OEChem-02102213163D

 29 28  0     1  0  0  0  0  0999 V2000
   -3.5781   -3.7296    1.2702 H   0  0  0  0  0  0  0  0  0  0  0  0
   -3.5311   -2.7616    0.7732 C   0  0  0  0  0  0  0  0  0  0  0  0
   -4.2371   -2.0766    1.2382 H   0  0  0  0  0  0  0  0  0  0  0  0
   -3.7681   -2.8816   -0.2818 H   0  0  0  0  0  0  0  0  0  0  0  0
   -2.1321   -2.2086    0.9112 C   0  0  0  0  0  0  0  0  0  0  0  0
   -1.2751   -2.8426    1.5112 O   0  0  0  0  0  0  0  0  0  0  0  0
   -1.9041   -1.0186    0.3602 N   0  0  0  0  0  0  0  0  0  0  0  0
   -2.6671   -0.5416   -0.0988 H   0  0  0  0  0  0  0  0  0  0  0  0
   -0.6131   -0.3236    0.3832 C   0  0  1  0  0  0  0  0  0  0  0  0
    0.1346   -0.9625   -0.0894 H   0  0  0  0  0  0  0  0  0  0  0  0
   -0.7253    0.9751   -0.4365 C   0  0  0  0  0  0  0  0  0  0  0  0
   -1.2775    1.7132    0.1491 H   0  0  0  0  0  0  0  0  0  0  0  0
    0.2744    1.3687   -0.6256 H   0  0  0  0  0  0  0  0  0  0  0  0
   -1.4417    0.7916   -1.7794 C   0  0  0  0  0  0  0  0  0  0  0  0
   -1.0707   -0.1122   -2.2618 H   0  0  0  0  0  0  0  0  0  0  0  0
   -2.5101    0.6766   -1.5935 H   0  0  0  0  0  0  0  0  0  0  0  0
   -1.2061    2.1760   -2.9228 S   0  0  0  0  0  0  0  0  0  0  0  0
   -2.1586    3.4542   -2.0621 C   0  0  0  0  0  0  0  0  0  0  0  0
   -1.7337    3.6255   -1.0726 H   0  0  0  0  0  0  0  0  0  0  0  0
   -2.1197    4.3811   -2.6348 H   0  0  0  0  0  0  0  0  0  0  0  0
   -3.1969    3.1360   -1.9645 H   0  0  0  0  0  0  0  0  0  0  0  0
   -0.1711   -0.0594    1.8296 C   0  0  0  0  0  0  0  0  0  0  0  0
    0.9865   -0.2908    2.1726 O   0  0  0  0  0  0  0  0  0  0  0  0
   -1.0921    0.4156    2.6780 N   0  0  0  0  0  0  0  0  0  0  0  0
   -2.0168    0.5953    2.3206 H   0  0  0  0  0  0  0  0  0  0  0  0
   -0.8319    0.7034    4.0877 C   0  0  0  0  0  0  0  0  0  0  0  0
   -0.0192    1.4288    4.1710 H   0  0  0  0  0  0  0  0  0  0  0  0
   -1.7255    1.1088    4.5641 H   0  0  0  0  0  0  0  0  0  0  0  0
   -0.5319   -0.2118    4.6011 H   0  0  0  0  0  0  0  0  0  0  0  0
  5  6  2  0  0  0  0
  5  7  1  0  0  0  0
  2  3  1  0  0  0  0
  2  4  1  0  0  0  0
  2  5  1  0  0  0  0
  1  2  1  0  0  0  0
 22 23  2  0  0  0  0
 22 24  1  0  0  0  0
 18 19  1  0  0  0  0
 18 20  1  0  0  0  0
 18 21  1  0  0  0  0
 17 18  1  0  0  0  0
 14 15  1  0  0  0  0
 14 16  1  0  0  0  0
 14 17  1  0  0  0  0
 11 12  1  0  0  0  0
 11 13  1  0  0  0  0
 11 14  1  0  0  0  0
  9 10  1  0  0  0  0
  9 11  1  0  0  0  0
  9 22  1  0  0  0  0
  7  8  1  0  0  0  0
  7  9  1  0  0  0  0
 26 27  1  0  0  0  0
 26 28  1  0  0  0  0
 26 29  1  0  0  0  0
 24 25  1  0  0  0  0
 24 26  1  0  0  0  0
M  END
$$$$
default_name
  -OEChem-02102213163D

 29 28  0     1  0  0  0  0  0999 V2000
   -3.5781   -3.7296    1.2702 H   0  0  0  0  0  0  0  0  0  0  0  0
   -3.5311   -2.7616    0.7732 C   0  0  0  0  0  0  0  0  0  0  0  0
   -4.2371   -2.0766    1.2382 H   0  0  0  0  0  0  0  0  0  0  0  0
   -3.7681   -2.8816   -0.2818 H   0  0  0  0  0  0  0  0  0  0  0  0
   -2.1321   -2.2086    0.9112 C   0  0  0  0  0  0  0  0  0  0  0  0
   -1.2751   -2.8426    1.5112 O   0  0  0  0  0  0  0  0  0  0  0  0
   -1.9041   -1.0186    0.3602 N   0  0  0  0  0  0  0  0  0  0  0  0
   -2.6671   -0.5416   -0.0988 H   0  0  0  0  0  0  0  0  0  0  0  0
   -0.6131   -0.3236    0.3832 C   0  0  1  0  0  0  0  0  0  0  0  0
    0.1346   -0.9625   -0.0894 H   0  0  0  0  0  0  0  0  0  0  0  0
   -0.7253    0.9751   -0.4365 C   0  0  0  0  0  0  0  0  0  0  0  0
   -1.2775    1.7132    0.1491 H   0  0  0  0  0  0  0  0  0  0  0  0
    0.2744    1.3687   -0.6256 H   0  0  0  0  0  0  0  0  0  0  0  0
   -1.4417    0.7916   -1.7794 C   0  0  0  0  0  0  0  0  0  0  0  0
   -1.2790   -0.2253   -2.1352 H   0  0  0  0  0  0  0  0  0  0  0  0
   -2.5111    0.9438   -1.6295 H   0  0  0  0  0  0  0  0  0  0  0  0
   -0.8764    1.9342   -3.0657 S   0  0  0  0  0  0  0  0  0  0  0  0
   -1.5259    3.4907   -2.4045 C   0  0  0  0  0  0  0  0  0  0  0  0
   -1.0900    3.6840   -1.4239 H   0  0  0  0  0  0  0  0  0  0  0  0
   -1.2665    4.3065   -3.0798 H   0  0  0  0  0  0  0  0  0  0  0  0
   -2.6110    3.4289   -2.3170 H   0  0  0  0  0  0  0  0  0  0  0  0
   -0.1711   -0.0594    1.8296 C   0  0  0  0  0  0  0  0  0  0  0  0
    0.9865   -0.2908    2.1726 O   0  0  0  0  0  0  0  0  0  0  0  0
   -1.0921    0.4156    2.6780 N   0  0  0  0  0  0  0  0  0  0  0  0
   -2.0168    0.5953    2.3206 H   0  0  0  0  0  0  0  0  0  0  0  0
   -0.8319    0.7034    4.0877 C   0  0  0  0  0  0  0  0  0  0  0  0
   -0.0192    1.4288    4.1710 H   0  0  0  0  0  0  0  0  0  0  0  0
   -1.7255    1.1088    4.5641 H   0  0  0  0  0  0  0  0  0  0  0  0
   -0.5319   -0.2118    4.6011 H   0  0  0  0  0  0  0  0  0  0  0  0
  5  6  2  0  0  0  0
  5  7  1  0  0  0  0
  2  3  1  0  0  0  0
  2  4  1  0  0  0  0
  2  5  1  0  0  0  0
  1  2  1  0  0  0  0
 22 23  2  0  0  0  0
 22 24  1  0  0  0  0
 18 19  1  0  0  0  0
 18 20  1  0  0  0  0
 18 21  1  0  0  0  0
 17 18  1  0  0  0  0
 14 15  1  0  0  0  0
 14 16  1  0  0  0  0
 14 17  1  0  0  0  0
 11 12  1  0  0  0  0
 11 13  1  0  0  0  0
 11 14  1  0  0  0  0
  9 10  1  0  0  0  0
  9 11  1  0  0  0  0
  9 22  1  0  0  0  0
  7  8  1  0  0  0  0
  7  9  1  0  0  0  0
 26 27  1  0  0  0  0
 26 28  1  0  0  0  0
 26 29  1  0  0  0  0
 24 25  1  0  0  0  0
 24 26  1  0  0  0  0
M  END
$$$$
default_name
  -OEChem-02102213163D

 29 28  0     1  0  0  0  0  0999 V2000
   -3.5781   -3.7296    1.2702 H   0  0  0  0  0  0  0  0  0  0  0  0
   -3.5311   -2.7616    0.7732 C   0  0  0  0  0  0  0  0  0  0  0  0
   -4.2371   -2.0766    1.2382 H   0  0  0  0  0  0  0  0  0  0  0  0
   -3.7681   -2.8816   -0.2818 H   0  0  0  0  0  0  0  0  0  0  0  0
   -2.1321   -2.2086    0.9112 C   0  0  0  0  0  0  0  0  0  0  0  0
   -1.2751   -2.8426    1.5112 O   0  0  0  0  0  0  0  0  0  0  0  0
   -1.9041   -1.0186    0.3602 N   0  0  0  0  0  0  0  0  0  0  0  0
   -2.6671   -0.5416   -0.0988 H   0  0  0  0  0  0  0  0  0  0  0  0
   -0.6131   -0.3236    0.3832 C   0  0  1  0  0  0  0  0  0  0  0  0
    0.1346   -0.9625   -0.0894 H   0  0  0  0  0  0  0  0  0  0  0  0
   -0.7253    0.9751   -0.4365 C   0  0  0  0  0  0  0  0  0  0  0  0
   -1.2775    1.7132    0.1491 H   0  0  0  0  0  0  0  0  0  0  0  0
    0.2744    1.3687   -0.6256 H   0  0  0  0  0  0  0  0  0  0  0  0
   -1.4417    0.7916   -1.7794 C   0  0  0  0  0  0  0  0  0  0  0  0
   -1.5098   -0.2720   -2.0058 H   0  0  0  0  0  0  0  0  0  0  0  0
   -2.4504    1.1978   -1.6966 H   0  0  0  0  0  0  0  0  0  0  0  0
   -0.6083    1.6086   -3.1642 S   0  0  0  0  0  0  0  0  0  0  0  0
   -0.8960    3.3412   -2.7201 C   0  0  0  0  0  0  0  0  0  0  0  0
   -0.4442    3.5521   -1.7504 H   0  0  0  0  0  0  0  0  0  0  0  0
   -0.4454    3.9871   -3.4742 H   0  0  0  0  0  0  0  0  0  0  0  0
   -1.9678    3.5362   -2.6749 H   0  0  0  0  0  0  0  0  0  0  0  0
   -0.1711   -0.0594    1.8296 C   0  0  0  0  0  0  0  0  0  0  0  0
    0.9865   -0.2908    2.1726 O   0  0  0  0  0  0  0  0  0  0  0  0
   -1.0921    0.4156    2.6780 N   0  0  0  0  0  0  0  0  0  0  0  0
   -2.0168    0.5953    2.3206 H   0  0  0  0  0  0  0  0  0  0  0  0
   -0.8319    0.7034    4.0877 C   0  0  0  0  0  0  0  0  0  0  0  0
   -0.0192    1.4288    4.1710 H   0  0  0  0  0  0  0  0  0  0  0  0
   -1.7255    1.1088    4.5641 H   0  0  0  0  0  0  0  0  0  0  0  0
   -0.5319   -0.2118    4.6011 H   0  0  0  0  0  0  0  0  0  0  0  0
  5  6  2  0  0  0  0
  5  7  1  0  0  0  0
  2  3  1  0  0  0  0
  2  4  1  0  0  0  0
  2  5  1  0  0  0  0
  1  2  1  0  0  0  0
 22 23  2  0  0  0  0
 22 24  1  0  0  0  0
 18 19  1  0  0  0  0
 18 20  1  0  0  0  0
 18 21  1  0  0  0  0
 17 18  1  0  0  0  0
 14 15  1  0  0  0  0
 14 16  1  0  0  0  0
 14 17  1  0  0  0  0
 11 12  1  0  0  0  0
 11 13  1  0  0  0  0
 11 14  1  0  0  0  0
  9 10  1  0  0  0  0
  9 11  1  0  0  0  0
  9 22  1  0  0  0  0
  7  8  1  0  0  0  0
  7  9  1  0  0  0  0
 26 27  1  0  0  0  0
 26 28  1  0  0  0  0
 26 29  1  0  0  0  0
 24 25  1  0  0  0  0
 24 26  1  0  0  0  0
M  END
$$$$
default_name
  -OEChem-02102213163D

 29 28  0     1  0  0  0  0  0999 V2000
   -3.5781   -3.7296    1.2702 H   0  0  0  0  0  0  0  0  0  0  0  0
   -3.5311   -2.7616    0.7732 C   0  0  0  0  0  0  0  0  0  0  0  0
   -4.2371   -2.0766    1.2382 H   0  0  0  0  0  0  0  0  0  0  0  0
   -3.7681   -2.8816   -0.2818 H   0  0  0  0  0  0  0  0  0  0  0  0
   -2.1321   -2.2086    0.9112 C   0  0  0  0  0  0  0  0  0  0  0  0
   -1.2751   -2.8426    1.5112 O   0  0  0  0  0  0  0  0  0  0  0  0
   -1.9041   -1.0186    0.3602 N   0  0  0  0  0  0  0  0  0  0  0  0
   -2.6671   -0.5416   -0.0988 H   0  0  0  0  0  0  0  0  0  0  0  0
   -0.6131   -0.3236    0.3832 C   0  0  1  0  0  0  0  0  0  0  0  0
    0.1346   -0.9625   -0.0894 H   0  0  0  0  0  0  0  0  0  0  0  0
   -0.7253    0.9751   -0.4365 C   0  0  0  0  0  0  0  0  0  0  0  0
   -1.2775    1.7132    0.1491 H   0  0  0  0  0  0  0  0  0  0  0  0
    0.2744    1.3687   -0.6256 H   0  0  0  0  0  0  0  0  0  0  0  0
   -1.4417    0.7916   -1.7794 C   0  0  0  0  0  0  0  0  0  0  0  0
   -1.7473   -0.2492   -1.8822 H   0  0  0  0  0  0  0  0  0  0  0  0
   -2.3321    1.4212   -1.7903 H   0  0  0  0  0  0  0  0  0  0  0  0
   -0.4201    1.2214   -3.2117 S   0  0  0  0  0  0  0  0  0  0  0  0
   -0.3116    3.0157   -2.9874 C   0  0  0  0  0  0  0  0  0  0  0  0
    0.1599    3.2387   -2.0298 H   0  0  0  0  0  0  0  0  0  0  0  0
    0.2875    3.4448   -3.7911 H   0  0  0  0  0  0  0  0  0  0  0  0
   -1.3110    3.4508   -3.0135 H   0  0  0  0  0  0  0  0  0  0  0  0
   -0.1711   -0.0594    1.8296 C   0  0  0  0  0  0  0  0  0  0  0  0
    0.9865   -0.2908    2.1726 O   0  0  0  0  0  0  0  0  0  0  0  0
   -1.0921    0.4156    2.6780 N   0  0  0  0  0  0  0  0  0  0  0  0
   -2.0168    0.5953    2.3206 H   0  0  0  0  0  0  0  0  0  0  0  0
   -0.8319    0.7034    4.0877 C   0  0  0  0  0  0  0  0  0  0  0  0
   -0.0192    1.4288    4.1710 H   0  0  0  0  0  0  0  0  0  0  0  0
   -1.7255    1.1088    4.5641 H   0  0  0  0  0  0  0  0  0  0  0  0
   -0.5319   -0.2118    4.6011 H   0  0  0  0  0  0  0  0  0  0  0  0
  5  6  2  0  0  0  0
  5  7  1  0  0  0  0
  2  3  1  0  0  0  0
  2  4  1  0  0  0  0
  2  5  1  0  0  0  0
  1  2  1  0  0  0  0
 22 23  2  0  0  0  0
 22 24  1  0  0  0  0
 18 19  1  0  0  0  0
 18 20  1  0  0  0  0
 18 21  1  0  0  0  0
 17 18  1  0  0  0  0
 14 15  1  0  0  0  0
 14 16  1  0  0  0  0
 14 17  1  0  0  0  0
 11 12  1  0  0  0  0
 11 13  1  0  0  0  0
 11 14  1  0  0  0  0
  9 10  1  0  0  0  0
  9 11  1  0  0  0  0
  9 22  1  0  0  0  0
  7  8  1  0  0  0  0
  7  9  1  0  0  0  0
 26 27  1  0  0  0  0
 26 28  1  0  0  0  0
 26 29  1  0  0  0  0
 24 25  1  0  0  0  0
 24 26  1  0  0  0  0
M  END
$$$$
default_name
  -OEChem-02102213163D

 29 28  0     1  0  0  0  0  0999 V2000
   -3.5781   -3.7296    1.2702 H   0  0  0  0  0  0  0  0  0  0  0  0
   -3.5311   -2.7616    0.7732 C   0  0  0  0  0  0  0  0  0  0  0  0
   -4.2371   -2.0766    1.2382 H   0  0  0  0  0  0  0  0  0  0  0  0
   -3.7681   -2.8816   -0.2818 H   0  0  0  0  0  0  0  0  0  0  0  0
   -2.1321   -2.2086    0.9112 C   0  0  0  0  0  0  0  0  0  0  0  0
   -1.2751   -2.8426    1.5112 O   0  0  0  0  0  0  0  0  0  0  0  0
   -1.9041   -1.0186    0.3602 N   0  0  0  0  0  0  0  0  0  0  0  0
   -2.6671   -0.5416   -0.0988 H   0  0  0  0  0  0  0  0  0  0  0  0
   -0.6131   -0.3236    0.3832 C   0  0  1  0  0  0  0  0  0  0  0  0
    0.1346   -0.9625   -0.0894 H   0  0  0  0  0  0  0  0  0  0  0  0
   -0.7253    0.9751   -0.4365 C   0  0  0  0  0  0  0  0  0  0  0  0
   -1.2775    1.7132    0.1491 H   0  0  0  0  0  0  0  0  0  0  0  0
    0.2744    1.3687   -0.6256 H   0  0  0  0  0  0  0  0  0  0  0  0
   -1.4417    0.7916   -1.7794 C   0  0  0  0  0  0  0  0  0  0  0  0
   -1.9753   -0.1583   -1.7729 H   0  0  0  0  0  0  0  0  0  0  0  0
   -2.1642    1.5989   -1.9041 H   0  0  0  0  0  0  0  0  0  0  0  0
   -0.3247    0.7989   -3.2049 S   0  0  0  0  0  0  0  0  0  0  0  0
    0.1874    2.5365   -3.1881 C   0  0  0  0  0  0  0  0  0  0  0  0
    0.6809    2.7653   -2.2431 H   0  0  0  0  0  0  0  0  0  0  0  0
    0.8823    2.7165   -4.0088 H   0  0  0  0  0  0  0  0  0  0  0  0
   -0.6855    3.1784   -3.3100 H   0  0  0  0  0  0  0  0  0  0  0  0
   -0.1711   -0.0594    1.8296 C   0  0  0  0  0  0  0  0  0  0  0  0
    0.9865   -0.2908    2.1726 O   0  0  0  0  0  0  0  0  0  0  0  0
   -1.0921    0.4156    2.6780 N   0  0  0  0  0  0  0  0  0  0  0  0
   -2.0168    0.5953    2.3206 H   0  0  0  0  0  0  0  0  0  0  0  0
   -0.8319    0.7034    4.0877 C   0  0  0  0  0  0  0  0  0  0  0  0
   -0.0192    1.4288    4.1710 H   0  0  0  0  0  0  0  0  0  0  0  0
   -1.7255    1.1088    4.5641 H   0  0  0  0  0  0  0  0  0  0  0  0
   -0.5319   -0.2118    4.6011 H   0  0  0  0  0  0  0  0  0  0  0  0
  5  6  2  0  0  0  0
  5  7  1  0  0  0  0
  2  3  1  0  0  0  0
  2  4  1  0  0  0  0
  2  5  1  0  0  0  0
  1  2  1  0  0  0  0
 22 23  2  0  0  0  0
 22 24  1  0  0  0  0
 18 19  1  0  0  0  0
 18 20  1  0  0  0  0
 18 21  1  0  0  0  0
 17 18  1  0  0  0  0
 14 15  1  0  0  0  0
 14 16  1  0  0  0  0
 14 17  1  0  0  0  0
 11 12  1  0  0  0  0
 11 13  1  0  0  0  0
 11 14  1  0  0  0  0
  9 10  1  0  0  0  0
  9 11  1  0  0  0  0
  9 22  1  0  0  0  0
  7  8  1  0  0  0  0
  7  9  1  0  0  0  0
 26 27  1  0  0  0  0
 26 28  1  0  0  0  0
 26 29  1  0  0  0  0
 24 25  1  0  0  0  0
 24 26  1  0  0  0  0
M  END
$$$$
default_name
  -OEChem-02102213163D

 29 28  0     1  0  0  0  0  0999 V2000
   -3.5781   -3.7296    1.2702 H   0  0  0  0  0  0  0  0  0  0  0  0
   -3.5311   -2.7616    0.7732 C   0  0  0  0  0  0  0  0  0  0  0  0
   -4.2371   -2.0766    1.2382 H   0  0  0  0  0  0  0  0  0  0  0  0
   -3.7681   -2.8816   -0.2818 H   0  0  0  0  0  0  0  0  0  0  0  0
   -2.1321   -2.2086    0.9112 C   0  0  0  0  0  0  0  0  0  0  0  0
   -1.2751   -2.8426    1.5112 O   0  0  0  0  0  0  0  0  0  0  0  0
   -1.9041   -1.0186    0.3602 N   0  0  0  0  0  0  0  0  0  0  0  0
   -2.6671   -0.5416   -0.0988 H   0  0  0  0  0  0  0  0  0  0  0  0
   -0.6131   -0.3236    0.3832 C   0  0  1  0  0  0  0  0  0  0  0  0
    0.1346   -0.9625   -0.0894 H   0  0  0  0  0  0  0  0  0  0  0  0
   -0.7253    0.9751   -0.4365 C   0  0  0  0  0  0  0  0  0  0  0  0
   -1.2775    1.7132    0.1491 H   0  0  0  0  0  0  0  0  0  0  0  0
    0.2744    1.3687   -0.6256 H   0  0  0  0  0  0  0  0  0  0  0  0
   -1.4417    0.7916   -1.7794 C   0  0  0  0  0  0  0  0  0  0  0  0
   -2.1784   -0.0056   -1.6855 H   0  0  0  0  0  0  0  0  0  0  0  0
   -1.9583    1.7187   -2.0303 H   0  0  0  0  0  0  0  0  0  0  0  0
   -0.3285    0.3701   -3.1442 S   0  0  0  0  0  0  0  0  0  0  0  0
    0.5669    1.9363   -3.3086 C   0  0  0  0  0  0  0  0  0  0  0  0
    1.0835    2.1641   -2.3757 H   0  0  0  0  0  0  0  0  0  0  0  0
    1.2984    1.8518   -4.1127 H   0  0  0  0  0  0  0  0  0  0  0  0
   -0.1339    2.7377   -3.5440 H   0  0  0  0  0  0  0  0  0  0  0  0
   -0.1711   -0.0594    1.8296 C   0  0  0  0  0  0  0  0  0  0  0  0
    0.9865   -0.2908    2.1726 O   0  0  0  0  0  0  0  0  0  0  0  0
   -1.0921    0.4156    2.6780 N   0  0  0  0  0  0  0  0  0  0  0  0
   -2.0168    0.5953    2.3206 H   0  0  0  0  0  0  0  0  0  0  0  0
   -0.8319    0.7034    4.0877 C   0  0  0  0  0  0  0  0  0  0  0  0
   -0.0192    1.4288    4.1710 H   0  0  0  0  0  0  0  0  0  0  0  0
   -1.7255    1.1088    4.5641 H   0  0  0  0  0  0  0  0  0  0  0  0
   -0.5319   -0.2118    4.6011 H   0  0  0  0  0  0  0  0  0  0  0  0
  5  6  2  0  0  0  0
  5  7  1  0  0  0  0
  2  3  1  0  0  0  0
  2  4  1  0  0  0  0
  2  5  1  0  0  0  0
  1  2  1  0  0  0  0
 22 23  2  0  0  0  0
 22 24  1  0  0  0  0
 18 19  1  0  0  0  0
 18 20  1  0  0  0  0
 18 21  1  0  0  0  0
 17 18  1  0  0  0  0
 14 15  1  0  0  0  0
 14 16  1  0  0  0  0
 14 17  1  0  0  0  0
 11 12  1  0  0  0  0
 11 13  1  0  0  0  0
 11 14  1  0  0  0  0
  9 10  1  0  0  0  0
  9 11  1  0  0  0  0
  9 22  1  0  0  0  0
  7  8  1  0  0  0  0
  7  9  1  0  0  0  0
 26 27  1  0  0  0  0
 26 28  1  0  0  0  0
 26 29  1  0  0  0  0
 24 25  1  0  0  0  0
 24 26  1  0  0  0  0
M  END
$$$$
default_name
  -OEChem-02102213163D

 29 28  0     1  0  0  0  0  0999 V2000
   -3.5781   -3.7296    1.2702 H   0  0  0  0  0  0  0  0  0  0  0  0
   -3.5311   -2.7616    0.7732 C   0  0  0  0  0  0  0  0  0  0  0  0
   -4.2371   -2.0766    1.2382 H   0  0  0  0  0  0  0  0  0  0  0  0
   -3.7681   -2.8816   -0.2818 H   0  0  0  0  0  0  0  0  0  0  0  0
   -2.1321   -2.2086    0.9112 C   0  0  0  0  0  0  0  0  0  0  0  0
   -1.2751   -2.8426    1.5112 O   0  0  0  0  0  0  0  0  0  0  0  0
   -1.9041   -1.0186    0.3602 N   0  0  0  0  0  0  0  0  0  0  0  0
   -2.6671   -0.5416   -0.0988 H   0  0  0  0  0  0  0  0  0  0  0  0
   -0.6131   -0.3236    0.3832 C   0  0  1  0  0  0  0  0  0  0  0  0
    0.1346   -0.9625   -0.0894 H   0  0  0  0  0  0  0  0  0  0  0  0
   -0.7253    0.9751   -0.4365 C   0  0  0  0  0  0  0  0  0  0  0  0
   -1.2775    1.7132    0.1491 H   0  0  0  0  0  0  0  0  0  0  0  0
    0.2744    1.3687   -0.6256 H   0  0  0  0  0  0  0  0  0  0  0  0
   -1.4417    0.7916   -1.7794 C   0  0  0  0  0  0  0  0  0  0  0  0
   -2.3426    0.1985   -1.6257 H   0  0  0  0  0  0  0  0  0  0  0  0
   -1.7283    1.7725   -2.1603 H   0  0  0  0  0  0  0  0  0  0  0  0
   -0.4313   -0.0360   -3.0339 S   0  0  0  0  0  0  0  0  0  0  0  0
    0.8012    1.2559   -3.3406 C   0  0  0  0  0  0  0  0  0  0  0  0
    1.3402    1.4760   -2.4187 H   0  0  0  0  0  0  0  0  0  0  0  0
    1.5075    0.9096   -4.0955 H   0  0  0  0  0  0  0  0  0  0  0  0
    0.3062    2.1586   -3.6997 H   0  0  0  0  0  0  0  0  0  0  0  0
   -0.1711   -0.0594    1.8296 C   0  0  0  0  0  0  0  0  0  0  0  0
    0.9865   -0.2908    2.1726 O   0  0  0  0  0  0  0  0  0  0  0  0
   -1.0921    0.4156    2.6780 N   0  0  0  0  0  0  0  0  0  0  0  0
   -2.0168    0.5953    2.3206 H   0  0  0  0  0  0  0  0  0  0  0  0
   -0.8319    0.7034    4.0877 C   0  0  0  0  0  0  0  0  0  0  0  0
   -0.0192    1.4288    4.1710 H   0  0  0  0  0  0  0  0  0  0  0  0
   -1.7255    1.1088    4.5641 H   0  0  0  0  0  0  0  0  0  0  0  0
   -0.5319   -0.2118    4.6011 H   0  0  0  0  0  0  0  0  0  0  0  0
  5  6  2  0  0  0  0
  5  7  1  0  0  0  0
  2  3  1  0  0  0  0
  2  4  1  0  0  0  0
  2  5  1  0  0  0  0
  1  2  1  0  0  0  0
 22 23  2  0  0  0  0
 22 24  1  0  0  0  0
 18 19  1  0  0  0  0
 18 20  1  0  0  0  0
 18 21  1  0  0  0  0
 17 18  1  0  0  0  0
 14 15  1  0  0  0  0
 14 16  1  0  0  0  0
 14 17  1  0  0  0  0
 11 12  1  0  0  0  0
 11 13  1  0  0  0  0
 11 14  1  0  0  0  0
  9 10  1  0  0  0  0
  9 11  1  0  0  0  0
  9 22  1  0  0  0  0
  7  8  1  0  0  0  0
  7  9  1  0  0  0  0
 26 27  1  0  0  0  0
 26 28  1  0  0  0  0
 26 29  1  0  0  0  0
 24 25  1  0  0  0  0
 24 26  1  0  0  0  0
M  END
$$$$
default_name
  -OEChem-02102213163D

 29 28  0     1  0  0  0  0  0999 V2000
   -3.5781   -3.7296    1.2702 H   0  0  0  0  0  0  0  0  0  0  0  0
   -3.5311   -2.7616    0.7732 C   0  0  0  0  0  0  0  0  0  0  0  0
   -4.2371   -2.0766    1.2382 H   0  0  0  0  0  0  0  0  0  0  0  0
   -3.7681   -2.8816   -0.2818 H   0  0  0  0  0  0  0  0  0  0  0  0
   -2.1321   -2.2086    0.9112 C   0  0  0  0  0  0  0  0  0  0  0  0
   -1.2751   -2.8426    1.5112 O   0  0  0  0  0  0  0  0  0  0  0  0
   -1.9041   -1.0186    0.3602 N   0  0  0  0  0  0  0  0  0  0  0  0
   -2.6671   -0.5416   -0.0988 H   0  0  0  0  0  0  0  0  0  0  0  0
   -0.6131   -0.3236    0.3832 C   0  0  1  0  0  0  0  0  0  0  0  0
    0.1346   -0.9625   -0.0894 H   0  0  0  0  0  0  0  0  0  0  0  0
   -0.7253    0.9751   -0.4365 C   0  0  0  0  0  0  0  0  0  0  0  0
   -1.2775    1.7132    0.1491 H   0  0  0  0  0  0  0  0  0  0  0  0
    0.2744    1.3687   -0.6256 H   0  0  0  0  0  0  0  0  0  0  0  0
   -1.4417    0.7916   -1.7794 C   0  0  0  0  0  0  0  0  0  0  0  0
   -2.4569    0.4401   -1.5978 H   0  0  0  0  0  0  0  0  0  0  0  0
   -1.4899    1.7565   -2.2853 H   0  0  0  0  0  0  0  0  0  0  0  0
   -0.6260   -0.3915   -2.8815 S   0  0  0  0  0  0  0  0  0  0  0  0
    0.8742    0.5417   -3.2819 C   0  0  0  0  0  0  0  0  0  0  0  0
    1.4335    0.7480   -2.3690 H   0  0  0  0  0  0  0  0  0  0  0  0
    1.4954   -0.0458   -3.9585 H   0  0  0  0  0  0  0  0  0  0  0  0
    0.6049    1.4807   -3.7664 H   0  0  0  0  0  0  0  0  0  0  0  0
   -0.1711   -0.0594    1.8296 C   0  0  0  0  0  0  0  0  0  0  0  0
    0.9865   -0.2908    2.1726 O   0  0  0  0  0  0  0  0  0  0  0  0
   -1.0921    0.4156    2.6780 N   0  0  0  0  0  0  0  0  0  0  0  0
   -2.0168    0.5953    2.3206 H   0  0  0  0  0  0  0  0  0  0  0  0
   -0.8319    0.7034    4.0877 C   0  0  0  0  0  0  0  0  0  0  0  0
   -0.0192    1.4288    4.1710 H   0  0  0  0  0  0  0  0  0  0  0  0
   -1.7255    1.1088    4.5641 H   0  0  0  0  0  0  0  0  0  0  0  0
   -0.5319   -0.2118    4.6011 H   0  0  0  0  0  0  0  0  0  0  0  0
  5  6  2  0  0  0  0
  5  7  1  0  0  0  0
  2  3  1  0  0  0  0
  2  4  1  0  0  0  0
  2  5  1  0  0  0  0
  1  2  1  0  0  0  0
 22 23  2  0  0  0  0
 22 24  1  0  0  0  0
 18 19  1  0  0  0  0
 18 20  1  0  0  0  0
 18 21  1  0  0  0  0
 17 18  1  0  0  0  0
 14 15  1  0  0  0  0
 14 16  1  0  0  0  0
 14 17  1  0  0  0  0
 11 12  1  0  0  0  0
 11 13  1  0  0  0  0
 11 14  1  0  0  0  0
  9 10  1  0  0  0  0
  9 11  1  0  0  0  0
  9 22  1  0  0  0  0
  7  8  1  0  0  0  0
  7  9  1  0  0  0  0
 26 27  1  0  0  0  0
 26 28  1  0  0  0  0
 26 29  1  0  0  0  0
 24 25  1  0  0  0  0
 24 26  1  0  0  0  0
M  END
$$$$
default_name
  -OEChem-02102213163D

 29 28  0     1  0  0  0  0  0999 V2000
   -3.5781   -3.7296    1.2702 H   0  0  0  0  0  0  0  0  0  0  0  0
   -3.5311   -2.7616    0.7732 C   0  0  0  0  0  0  0  0  0  0  0  0
   -4.2371   -2.0766    1.2382 H   0  0  0  0  0  0  0  0  0  0  0  0
   -3.7681   -2.8816   -0.2818 H   0  0  0  0  0  0  0  0  0  0  0  0
   -2.1321   -2.2086    0.9112 C   0  0  0  0  0  0  0  0  0  0  0  0
   -1.2751   -2.8426    1.5112 O   0  0  0  0  0  0  0  0  0  0  0  0
   -1.9041   -1.0186    0.3602 N   0  0  0  0  0  0  0  0  0  0  0  0
   -2.6671   -0.5416   -0.0988 H   0  0  0  0  0  0  0  0  0  0  0  0
   -0.6131   -0.3236    0.3832 C   0  0  1  0  0  0  0  0  0  0  0  0
    0.1346   -0.9625   -0.0894 H   0  0  0  0  0  0  0  0  0  0  0  0
   -0.7253    0.9751   -0.4365 C   0  0  0  0  0  0  0  0  0  0  0  0
   -1.2775    1.7132    0.1491 H   0  0  0  0  0  0  0  0  0  0  0  0
    0.2744    1.3687   -0.6256 H   0  0  0  0  0  0  0  0  0  0  0  0
   -1.4417    0.7916   -1.7794 C   0  0  0  0  0  0  0  0  0  0  0  0
   -2.5133    0.7027   -1.6036 H   0  0  0  0  0  0  0  0  0  0  0  0
   -1.2594    1.6720   -2.3967 H   0  0  0  0  0  0  0  0  0  0  0  0
   -0.8995   -0.6724   -2.6972 S   0  0  0  0  0  0  0  0  0  0  0  0
    0.7809   -0.1576   -3.1367 C   0  0  0  0  0  0  0  0  0  0  0  0
    1.3570    0.0297   -2.2300 H   0  0  0  0  0  0  0  0  0  0  0  0
    1.2629   -0.9493   -3.7110 H   0  0  0  0  0  0  0  0  0  0  0  0
    0.7418    0.7500   -3.7396 H   0  0  0  0  0  0  0  0  0  0  0  0
   -0.1711   -0.0594    1.8296 C   0  0  0  0  0  0  0  0  0  0  0  0
    0.9865   -0.2908    2.1726 O   0  0  0  0  0  0  0  0  0  0  0  0
   -1.0921    0.4156    2.6780 N   0  0  0  0  0  0  0  0  0  0  0  0
   -2.0168    0.5953    2.3206 H   0  0  0  0  0  0  0  0  0  0  0  0
   -0.8319    0.7034    4.0877 C   0  0  0  0  0  0  0  0  0  0  0  0
   -0.0192    1.4288    4.1710 H   0  0  0  0  0  0  0  0  0  0  0  0
   -1.7255    1.1088    4.5641 H   0  0  0  0  0  0  0  0  0  0  0  0
   -0.5319   -0.2118    4.6011 H   0  0  0  0  0  0  0  0  0  0  0  0
  5  6  2  0  0  0  0
  5  7  1  0  0  0  0
  2  3  1  0  0  0  0
  2  4  1  0  0  0  0
  2  5  1  0  0  0  0
  1  2  1  0  0  0  0
 22 23  2  0  0  0  0
 22 24  1  0  0  0  0
 18 19  1  0  0  0  0
 18 20  1  0  0  0  0
 18 21  1  0  0  0  0
 17 18  1  0  0  0  0
 14 15  1  0  0  0  0
 14 16  1  0  0  0  0
 14 17  1  0  0  0  0
 11 12  1  0  0  0  0
 11 13  1  0  0  0  0
 11 14  1  0  0  0  0
  9 10  1  0  0  0  0
  9 11  1  0  0  0  0
  9 22  1  0  0  0  0
  7  8  1  0  0  0  0
  7  9  1  0  0  0  0
 26 27  1  0  0  0  0
 26 28  1  0  0  0  0
 26 29  1  0  0  0  0
 24 25  1  0  0  0  0
 24 26  1  0  0  0  0
M  END
$$$$
default_name
  -OEChem-02102213163D

 29 28  0     1  0  0  0  0  0999 V2000
   -3.5781   -3.7296    1.2702 H   0  0  0  0  0  0  0  0  0  0  0  0
   -3.5311   -2.7616    0.7732 C   0  0  0  0  0  0  0  0  0  0  0  0
   -4.2371   -2.0766    1.2382 H   0  0  0  0  0  0  0  0  0  0  0  0
   -3.7681   -2.8816   -0.2818 H   0  0  0  0  0  0  0  0  0  0  0  0
   -2.1321   -2.2086    0.9112 C   0  0  0  0  0  0  0  0  0  0  0  0
   -1.2751   -2.8426    1.5112 O   0  0  0  0  0  0  0  0  0  0  0  0
   -1.9041   -1.0186    0.3602 N   0  0  0  0  0  0  0  0  0  0  0  0
   -2.6671   -0.5416   -0.0988 H   0  0  0  0  0  0  0  0  0  0  0  0
   -0.6131   -0.3236    0.3832 C   0  0  1  0  0  0  0  0  0  0  0  0
    0.1346   -0.9625   -0.0894 H   0  0  0  0  0  0  0  0  0  0  0  0
   -0.7253    0.9751   -0.4365 C   0  0  0  0  0  0  0  0  0  0  0  0
   -1.2775    1.7132    0.1491 H   0  0  0  0  0  0  0  0  0  0  0  0
    0.2744    1.3687   -0.6256 H   0  0  0  0  0  0  0  0  0  0  0  0
   -1.4417    0.7916   -1.7794 C   0  0  0  0  0  0  0  0  0  0  0  0
   -2.5081    0.9685   -1.6427 H   0  0  0  0  0  0  0  0  0  0  0  0
   -1.0525    1.5246   -2.4870 H   0  0  0  0  0  0  0  0  0  0  0  0
   -1.2330   -0.8594   -2.4938 S   0  0  0  0  0  0  0  0  0  0  0  0
    0.5278   -0.7944   -2.9147 C   0  0  0  0  0  0  0  0  0  0  0  0
    1.1160   -0.6300   -2.0113 H   0  0  0  0  0  0  0  0  0  0  0  0
    0.8257   -1.7393   -3.3699 H   0  0  0  0  0  0  0  0  0  0  0  0
    0.7075    0.0165   -3.6211 H   0  0  0  0  0  0  0  0  0  0  0  0
   -0.1711   -0.0594    1.8296 C   0  0  0  0  0  0  0  0  0  0  0  0
    0.9865   -0.2908    2.1726 O   0  0  0  0  0  0  0  0  0  0  0  0
   -1.0921    0.4156    2.6780 N   0  0  0  0  0  0  0  0  0  0  0  0
   -2.0168    0.5953    2.3206 H   0  0  0  0  0  0  0  0  0  0  0  0
   -0.8319    0.7034    4.0877 C   0  0  0  0  0  0  0  0  0  0  0  0
   -0.0192    1.4288    4.1710 H   0  0  0  0  0  0  0  0  0  0  0  0
   -1.7255    1.1088    4.5641 H   0  0  0  0  0  0  0  0  0  0  0  0
   -0.5319   -0.2118    4.6011 H   0  0  0  0  0  0  0  0  0  0  0  0
  5  6  2  0  0  0  0
  5  7  1  0  0  0  0
  2  3  1  0  0  0  0
  2  4  1  0  0  0  0
  2  5  1  0  0  0  0
  1  2  1  0  0  0  0
 22 23  2  0  0  0  0
 22 24  1  0  0  0  0
 18 19  1  0  0  0  0
 18 20  1  0  0  0  0
 18 21  1  0  0  0  0
 17 18  1  0  0  0  0
 14 15  1  0  0  0  0
 14 16  1  0  0  0  0
 14 17  1  0  0  0  0
 11 12  1  0  0  0  0
 11 13  1  0  0  0  0
 11 14  1  0  0  0  0
  9 10  1  0  0  0  0
  9 11  1  0  0  0  0
  9 22  1  0  0  0  0
  7  8  1  0  0  0  0
  7  9  1  0  0  0  0
 26 27  1  0  0  0  0
 26 28  1  0  0  0  0
 26 29  1  0  0  0  0
 24 25  1  0  0  0  0
 24 26  1  0  0  0  0
M  END
$$$$
default_name
  -OEChem-02102213163D

 29 28  0     1  0  0  0  0  0999 V2000
   -3.5781   -3.7296    1.2702 H   0  0  0  0  0  0  0  0  0  0  0  0
   -3.5311   -2.7616    0.7732 C   0  0  0  0  0  0  0  0  0  0  0  0
   -4.2371   -2.0766    1.2382 H   0  0  0  0  0  0  0  0  0  0  0  0
   -3.7681   -2.8816   -0.2818 H   0  0  0  0  0  0  0  0  0  0  0  0
   -2.1321   -2.2086    0.9112 C   0  0  0  0  0  0  0  0  0  0  0  0
   -1.2751   -2.8426    1.5112 O   0  0  0  0  0  0  0  0  0  0  0  0
   -1.9041   -1.0186    0.3602 N   0  0  0  0  0  0  0  0  0  0  0  0
   -2.6671   -0.5416   -0.0988 H   0  0  0  0  0  0  0  0  0  0  0  0
   -0.6131   -0.3236    0.3832 C   0  0  1  0  0  0  0  0  0  0  0  0
    0.1346   -0.9625   -0.0894 H   0  0  0  0  0  0  0  0  0  0  0  0
   -0.7253    0.9751   -0.4365 C   0  0  0  0  0  0  0  0  0  0  0  0
   -1.2775    1.7132    0.1491 H   0  0  0  0  0  0  0  0  0  0  0  0
    0.2744    1.3687   -0.6256 H   0  0  0  0  0  0  0  0  0  0  0  0
   -1.4417    0.7916   -1.7794 C   0  0  0  0  0  0  0  0  0  0  0  0
   -2.4415    1.2193   -1.7124 H   0  0  0  0  0  0  0  0  0  0  0  0
   -0.8832    1.3244   -2.5499 H   0  0  0  0  0  0  0  0  0  0  0  0
   -1.6038   -0.9398   -2.2850 S   0  0  0  0  0  0  0  0  0  0  0  0
    0.1321   -1.3253   -2.6310 C   0  0  0  0  0  0  0  0  0  0  0  0
    0.7268   -1.1861   -1.7277 H   0  0  0  0  0  0  0  0  0  0  0  0
    0.2138   -2.3621   -2.9584 H   0  0  0  0  0  0  0  0  0  0  0  0
    0.5044   -0.6700   -3.4190 H   0  0  0  0  0  0  0  0  0  0  0  0
   -0.1711   -0.0594    1.8296 C   0  0  0  0  0  0  0  0  0  0  0  0
    0.9865   -0.2908    2.1726 O   0  0  0  0  0  0  0  0  0  0  0  0
   -1.0921    0.4156    2.6780 N   0  0  0  0  0  0  0  0  0  0  0  0
   -2.0168    0.5953    2.3206 H   0  0  0  0  0  0  0  0  0  0  0  0
   -0.8319    0.7034    4.0877 C   0  0  0  0  0  0  0  0  0  0  0  0
   -0.0192    1.4288    4.1710 H   0  0  0  0  0  0  0  0  0  0  0  0
   -1.7255    1.1088    4.5641 H   0  0  0  0  0  0  0  0  0  0  0  0
   -0.5319   -0.2118    4.6011 H   0  0  0  0  0  0  0  0  0  0  0  0
  5  6  2  0  0  0  0
  5  7  1  0  0  0  0
  2  3  1  0  0  0  0
  2  4  1  0  0  0  0
  2  5  1  0  0  0  0
  1  2  1  0  0  0  0
 22 23  2  0  0  0  0
 22 24  1  0  0  0  0
 18 19  1  0  0  0  0
 18 20  1  0  0  0  0
 18 21  1  0  0  0  0
 17 18  1  0  0  0  0
 14 15  1  0  0  0  0
 14 16  1  0  0  0  0
 14 17  1  0  0  0  0
 11 12  1  0  0  0  0
 11 13  1  0  0  0  0
 11 14  1  0  0  0  0
  9 10  1  0  0  0  0
  9 11  1  0  0  0  0
  9 22  1  0  0  0  0
  7  8  1  0  0  0  0
  7  9  1  0  0  0  0
 26 27  1  0  0  0  0
 26 28  1  0  0  0  0
 26 29  1  0  0  0  0
 24 25  1  0  0  0  0
 24 26  1  0  0  0  0
M  END
$$$$
default_name
  -OEChem-02102213163D

 29 28  0     1  0  0  0  0  0999 V2000
   -3.5781   -3.7296    1.2702 H   0  0  0  0  0  0  0  0  0  0  0  0
   -3.5311   -2.7616    0.7732 C   0  0  0  0  0  0  0  0  0  0  0  0
   -4.2371   -2.0766    1.2382 H   0  0  0  0  0  0  0  0  0  0  0  0
   -3.7681   -2.8816   -0.2818 H   0  0  0  0  0  0  0  0  0  0  0  0
   -2.1321   -2.2086    0.9112 C   0  0  0  0  0  0  0  0  0  0  0  0
   -1.2751   -2.8426    1.5112 O   0  0  0  0  0  0  0  0  0  0  0  0
   -1.9041   -1.0186    0.3602 N   0  0  0  0  0  0  0  0  0  0  0  0
   -2.6671   -0.5416   -0.0988 H   0  0  0  0  0  0  0  0  0  0  0  0
   -0.6131   -0.3236    0.3832 C   0  0  1  0  0  0  0  0  0  0  0  0
    0.1346   -0.9625   -0.0894 H   0  0  0  0  0  0  0  0  0  0  0  0
   -0.7253    0.9751   -0.4365 C   0  0  0  0  0  0  0  0  0  0  0  0
   -1.2775    1.7132    0.1491 H   0  0  0  0  0  0  0  0  0  0  0  0
    0.2744    1.3687   -0.6256 H   0  0  0  0  0  0  0  0  0  0  0  0
   -1.4417    0.7916   -1.7794 C   0  0  0  0  0  0  0  0  0  0  0  0
   -2.3183    1.4380   -1.8081 H   0  0  0  0  0  0  0  0  0  0  0  0
   -0.7632    1.0850   -2.5812 H   0  0  0  0  0  0  0  0  0  0  0  0
   -1.9867   -0.9082   -2.0850 S   0  0  0  0  0  0  0  0  0  0  0  0
   -0.3793   -1.7140   -2.3051 C   0  0  0  0  0  0  0  0  0  0  0  0
    0.2160   -1.6007   -1.3986 H   0  0  0  0  0  0  0  0  0  0  0  0
   -0.5312   -2.7752   -2.5045 H   0  0  0  0  0  0  0  0  0  0  0  0
    0.1463   -1.2625   -3.1470 H   0  0  0  0  0  0  0  0  0  0  0  0
   -0.1711   -0.0594    1.8296 C   0  0  0  0  0  0  0  0  0  0  0  0
    0.9865   -0.2908    2.1726 O   0  0  0  0  0  0  0  0  0  0  0  0
   -1.0921    0.4156    2.6780 N   0  0  0  0  0  0  0  0  0  0  0  0
   -2.0168    0.5953    2.3206 H   0  0  0  0  0  0  0  0  0  0  0  0
   -0.8319    0.7034    4.0877 C   0  0  0  0  0  0  0  0  0  0  0  0
   -0.0192    1.4288    4.1710 H   0  0  0  0  0  0  0  0  0  0  0  0
   -1.7255    1.1088    4.5641 H   0  0  0  0  0  0  0  0  0  0  0  0
   -0.5319   -0.2118    4.6011 H   0  0  0  0  0  0  0  0  0  0  0  0
  5  6  2  0  0  0  0
  5  7  1  0  0  0  0
  2  3  1  0  0  0  0
  2  4  1  0  0  0  0
  2  5  1  0  0  0  0
  1  2  1  0  0  0  0
 22 23  2  0  0  0  0
 22 24  1  0  0  0  0
 18 19  1  0  0  0  0
 18 20  1  0  0  0  0
 18 21  1  0  0  0  0
 17 18  1  0  0  0  0
 14 15  1  0  0  0  0
 14 16  1  0  0  0  0
 14 17  1  0  0  0  0
 11 12  1  0  0  0  0
 11 13  1  0  0  0  0
 11 14  1  0  0  0  0
  9 10  1  0  0  0  0
  9 11  1  0  0  0  0
  9 22  1  0  0  0  0
  7  8  1  0  0  0  0
  7  9  1  0  0  0  0
 26 27  1  0  0  0  0
 26 28  1  0  0  0  0
 26 29  1  0  0  0  0
 24 25  1  0  0  0  0
 24 26  1  0  0  0  0
M  END
$$$$
default_name
  -OEChem-02102213163D

 29 28  0     1  0  0  0  0  0999 V2000
   -3.5781   -3.7296    1.2702 H   0  0  0  0  0  0  0  0  0  0  0  0
   -3.5311   -2.7616    0.7732 C   0  0  0  0  0  0  0  0  0  0  0  0
   -4.2371   -2.0766    1.2382 H   0  0  0  0  0  0  0  0  0  0  0  0
   -3.7681   -2.8816   -0.2818 H   0  0  0  0  0  0  0  0  0  0  0  0
   -2.1321   -2.2086    0.9112 C   0  0  0  0  0  0  0  0  0  0  0  0
   -1.2751   -2.8426    1.5112 O   0  0  0  0  0  0  0  0  0  0  0  0
   -1.9041   -1.0186    0.3602 N   0  0  0  0  0  0  0  0  0  0  0  0
   -2.6671   -0.5416   -0.0988 H   0  0  0  0  0  0  0  0  0  0  0  0
   -0.6131   -0.3236    0.3832 C   0  0  1  0  0  0  0  0  0  0  0  0
    0.1346   -0.9625   -0.0894 H   0  0  0  0  0  0  0  0  0  0  0  0
   -0.7253    0.9751   -0.4365 C   0  0  0  0  0  0  0  0  0  0  0  0
   -1.2775    1.7132    0.1491 H   0  0  0  0  0  0  0  0  0  0  0  0
    0.2744    1.3687   -0.6256 H   0  0  0  0  0  0  0  0  0  0  0  0
   -1.4417    0.7916   -1.7794 C   0  0  0  0  0  0  0  0  0  0  0  0
   -2.1466    1.6098   -1.9231 H   0  0  0  0  0  0  0  0  0  0  0  0
   -0.7005    0.8227   -2.5788 H   0  0  0  0  0  0  0  0  0  0  0  0
   -2.3556   -0.7666   -1.9076 S   0  0  0  0  0  0  0  0  0  0  0  0
   -0.9715   -1.9342   -1.9592 C   0  0  0  0  0  0  0  0  0  0  0  0
   -0.3816   -1.8456   -1.0464 H   0  0  0  0  0  0  0  0  0  0  0  0
   -1.3586   -2.9503   -2.0393 H   0  0  0  0  0  0  0  0  0  0  0  0
   -0.3423   -1.7208   -2.8237 H   0  0  0  0  0  0  0  0  0  0  0  0
   -0.1711   -0.0594    1.8296 C   0  0  0  0  0  0  0  0  0  0  0  0
    0.9865   -0.2908    2.1726 O   0  0  0  0  0  0  0  0  0  0  0  0
   -1.0921    0.4156    2.6780 N   0  0  0  0  0  0  0  0  0  0  0  0
   -2.0168    0.5953    2.3206 H   0  0  0  0  0  0  0  0  0  0  0  0
   -0.8319    0.7034    4.0877 C   0  0  0  0  0  0  0  0  0  0  0  0
   -0.0192    1.4288    4.1710 H   0  0  0  0  0  0  0  0  0  0  0  0
   -1.7255    1.1088    4.5641 H   0  0  0  0  0  0  0  0  0  0  0  0
   -0.5319   -0.2118    4.6011 H   0  0  0  0  0  0  0  0  0  0  0  0
  5  6  2  0  0  0  0
  5  7  1  0  0  0  0
  2  3  1  0  0  0  0
  2  4  1  0  0  0  0
  2  5  1  0  0  0  0
  1  2  1  0  0  0  0
 22 23  2  0  0  0  0
 22 24  1  0  0  0  0
 18 19  1  0  0  0  0
 18 20  1  0  0  0  0
 18 21  1  0  0  0  0
 17 18  1  0  0  0  0
 14 15  1  0  0  0  0
 14 16  1  0  0  0  0
 14 17  1  0  0  0  0
 11 12  1  0  0  0  0
 11 13  1  0  0  0  0
 11 14  1  0  0  0  0
  9 10  1  0  0  0  0
  9 11  1  0  0  0  0
  9 22  1  0  0  0  0
  7  8  1  0  0  0  0
  7  9  1  0  0  0  0
 26 27  1  0  0  0  0
 26 28  1  0  0  0  0
 26 29  1  0  0  0  0
 24 25  1  0  0  0  0
 24 26  1  0  0  0  0
M  END
$$$$
default_name
  -OEChem-02102213163D

 29 28  0     1  0  0  0  0  0999 V2000
   -3.5781   -3.7296    1.2702 H   0  0  0  0  0  0  0  0  0  0  0  0
   -3.5311   -2.7616    0.7732 C   0  0  0  0  0  0  0  0  0  0  0  0
   -4.2371   -2.0766    1.2382 H   0  0  0  0  0  0  0  0  0  0  0  0
   -3.7681   -2.8816   -0.2818 H   0  0  0  0  0  0  0  0  0  0  0  0
   -2.1321   -2.2086    0.9112 C   0  0  0  0  0  0  0  0  0  0  0  0
   -1.2751   -2.8426    1.5112 O   0  0  0  0  0  0  0  0  0  0  0  0
   -1.9041   -1.0186    0.3602 N   0  0  0  0  0  0  0  0  0  0  0  0
   -2.6671   -0.5416   -0.0988 H   0  0  0  0  0  0  0  0  0  0  0  0
   -0.6131   -0.3236    0.3832 C   0  0  1  0  0  0  0  0  0  0  0  0
    0.1346   -0.9625   -0.0894 H   0  0  0  0  0  0  0  0  0  0  0  0
   -0.7253    0.9751   -0.4365 C   0  0  0  0  0  0  0  0  0  0  0  0
   -1.2775    1.7132    0.1491 H   0  0  0  0  0  0  0  0  0  0  0  0
    0.2744    1.3687   -0.6256 H   0  0  0  0  0  0  0  0  0  0  0  0
   -1.4417    0.7916   -1.7794 C   0  0  0  0  0  0  0  0  0  0  0  0
   -1.9383    1.7229   -2.0497 H   0  0  0  0  0  0  0  0  0  0  0  0
   -0.6995    0.5555   -2.5429 H   0  0  0  0  0  0  0  0  0  0  0  0
   -2.6853   -0.5248   -1.7647 S   0  0  0  0  0  0  0  0  0  0  0  0
   -1.6041   -1.9707   -1.6167 C   0  0  0  0  0  0  0  0  0  0  0  0
   -1.0252   -1.9041   -0.6950 H   0  0  0  0  0  0  0  0  0  0  0  0
   -2.2119   -2.8757   -1.5943 H   0  0  0  0  0  0  0  0  0  0  0  0
   -0.9282   -2.0136   -2.4712 H   0  0  0  0  0  0  0  0  0  0  0  0
   -0.1711   -0.0594    1.8296 C   0  0  0  0  0  0  0  0  0  0  0  0
    0.9865   -0.2908    2.1726 O   0  0  0  0  0  0  0  0  0  0  0  0
   -1.0921    0.4156    2.6780 N   0  0  0  0  0  0  0  0  0  0  0  0
   -2.0168    0.5953    2.3206 H   0  0  0  0  0  0  0  0  0  0  0  0
   -0.8319    0.7034    4.0877 C   0  0  0  0  0  0  0  0  0  0  0  0
   -0.0192    1.4288    4.1710 H   0  0  0  0  0  0  0  0  0  0  0  0
   -1.7255    1.1088    4.5641 H   0  0  0  0  0  0  0  0  0  0  0  0
   -0.5319   -0.2118    4.6011 H   0  0  0  0  0  0  0  0  0  0  0  0
  5  6  2  0  0  0  0
  5  7  1  0  0  0  0
  2  3  1  0  0  0  0
  2  4  1  0  0  0  0
  2  5  1  0  0  0  0
  1  2  1  0  0  0  0
 22 23  2  0  0  0  0
 22 24  1  0  0  0  0
 18 19  1  0  0  0  0
 18 20  1  0  0  0  0
 18 21  1  0  0  0  0
 17 18  1  0  0  0  0
 14 15  1  0  0  0  0
 14 16  1  0  0  0  0
 14 17  1  0  0  0  0
 11 12  1  0  0  0  0
 11 13  1  0  0  0  0
 11 14  1  0  0  0  0
  9 10  1  0  0  0  0
  9 11  1  0  0  0  0
  9 22  1  0  0  0  0
  7  8  1  0  0  0  0
  7  9  1  0  0  0  0
 26 27  1  0  0  0  0
 26 28  1  0  0  0  0
 26 29  1  0  0  0  0
 24 25  1  0  0  0  0
 24 26  1  0  0  0  0
M  END
$$$$
default_name
  -OEChem-02102213163D

 29 28  0     1  0  0  0  0  0999 V2000
   -3.5781   -3.7296    1.2702 H   0  0  0  0  0  0  0  0  0  0  0  0
   -3.5311   -2.7616    0.7732 C   0  0  0  0  0  0  0  0  0  0  0  0
   -4.2371   -2.0766    1.2382 H   0  0  0  0  0  0  0  0  0  0  0  0
   -3.7681   -2.8816   -0.2818 H   0  0  0  0  0  0  0  0  0  0  0  0
   -2.1321   -2.2086    0.9112 C   0  0  0  0  0  0  0  0  0  0  0  0
   -1.2751   -2.8426    1.5112 O   0  0  0  0  0  0  0  0  0  0  0  0
   -1.9041   -1.0186    0.3602 N   0  0  0  0  0  0  0  0  0  0  0  0
   -2.6671   -0.5416   -0.0988 H   0  0  0  0  0  0  0  0  0  0  0  0
   -0.6131   -0.3236    0.3832 C   0  0  1  0  0  0  0  0  0  0  0  0
    0.1346   -0.9625   -0.0894 H   0  0  0  0  0  0  0  0  0  0  0  0
   -0.7253    0.9751   -0.4365 C   0  0  0  0  0  0  0  0  0  0  0  0
   -1.2775    1.7132    0.1491 H   0  0  0  0  0  0  0  0  0  0  0  0
    0.2744    1.3687   -0.6256 H   0  0  0  0  0  0  0  0  0  0  0  0
   -1.4417    0.7916   -1.7794 C   0  0  0  0  0  0  0  0  0  0  0  0
   -1.7076    1.7697   -2.1792 H   0  0  0  0  0  0  0  0  0  0  0  0
   -0.7603    0.3016   -2.4758 H   0  0  0  0  0  0  0  0  0  0  0  0
   -2.9534   -0.1991   -1.6662 S   0  0  0  0  0  0  0  0  0  0  0  0
   -2.2341   -1.8212   -1.3011 C   0  0  0  0  0  0  0  0  0  0  0  0
   -1.6711   -1.7722   -0.3685 H   0  0  0  0  0  0  0  0  0  0  0  0
   -3.0329   -2.5563   -1.1999 H   0  0  0  0  0  0  0  0  0  0  0  0
   -1.5714   -2.1210   -2.1134 H   0  0  0  0  0  0  0  0  0  0  0  0
   -0.1711   -0.0594    1.8296 C   0  0  0  0  0  0  0  0  0  0  0  0
    0.9865   -0.2908    2.1726 O   0  0  0  0  0  0  0  0  0  0  0  0
   -1.0921    0.4156    2.6780 N   0  0  0  0  0  0  0  0  0  0  0  0
   -2.0168    0.5953    2.3206 H   0  0  0  0  0  0  0  0  0  0  0  0
   -0.8319    0.7034    4.0877 C   0  0  0  0  0  0  0  0  0  0  0  0
   -0.0192    1.4288    4.1710 H   0  0  0  0  0  0  0  0  0  0  0  0
   -1.7255    1.1088    4.5641 H   0  0  0  0  0  0  0  0  0  0  0  0
   -0.5319   -0.2118    4.6011 H   0  0  0  0  0  0  0  0  0  0  0  0
  5  6  2  0  0  0  0
  5  7  1  0  0  0  0
  2  3  1  0  0  0  0
  2  4  1  0  0  0  0
  2  5  1  0  0  0  0
  1  2  1  0  0  0  0
 22 23  2  0  0  0  0
 22 24  1  0  0  0  0
 18 19  1  0  0  0  0
 18 20  1  0  0  0  0
 18 21  1  0  0  0  0
 17 18  1  0  0  0  0
 14 15  1  0  0  0  0
 14 16  1  0  0  0  0
 14 17  1  0  0  0  0
 11 12  1  0  0  0  0
 11 13  1  0  0  0  0
 11 14  1  0  0  0  0
  9 10  1  0  0  0  0
  9 11  1  0  0  0  0
  9 22  1  0  0  0  0
  7  8  1  0  0  0  0
  7  9  1  0  0  0  0
 26 27  1  0  0  0  0
 26 28  1  0  0  0  0
 26 29  1  0  0  0  0
 24 25  1  0  0  0  0
 24 26  1  0  0  0  0
M  END
$$$$
default_name
  -OEChem-02102213163D

 29 28  0     1  0  0  0  0  0999 V2000
   -3.5781   -3.7296    1.2702 H   0  0  0  0  0  0  0  0  0  0  0  0
   -3.5311   -2.7616    0.7732 C   0  0  0  0  0  0  0  0  0  0  0  0
   -4.2371   -2.0766    1.2382 H   0  0  0  0  0  0  0  0  0  0  0  0
   -3.7681   -2.8816   -0.2818 H   0  0  0  0  0  0  0  0  0  0  0  0
   -2.1321   -2.2086    0.9112 C   0  0  0  0  0  0  0  0  0  0  0  0
   -1.2751   -2.8426    1.5112 O   0  0  0  0  0  0  0  0  0  0  0  0
   -1.9041   -1.0186    0.3602 N   0  0  0  0  0  0  0  0  0  0  0  0
   -2.6671   -0.5416   -0.0988 H   0  0  0  0  0  0  0  0  0  0  0  0
   -0.6131   -0.3236    0.3832 C   0  0  1  0  0  0  0  0  0  0  0  0
    0.1346   -0.9625   -0.0894 H   0  0  0  0  0  0  0  0  0  0  0  0
   -0.7253    0.9751   -0.4365 C   0  0  0  0  0  0  0  0  0  0  0  0
   -1.2775    1.7132    0.1491 H   0  0  0  0  0  0  0  0  0  0  0  0
    0.2744    1.3687   -0.6256 H   0  0  0  0  0  0  0  0  0  0  0  0
   -1.4417    0.7916   -1.7794 C   0  0  0  0  0  0  0  0  0  0  0  0
   -1.4701    1.7468   -2.3027 H   0  0  0  0  0  0  0  0  0  0  0  0
   -0.8786    0.0781   -2.3821 H   0  0  0  0  0  0  0  0  0  0  0  0
   -3.1416    0.1881   -1.6187 S   0  0  0  0  0  0  0  0  0  0  0  0
   -2.8184   -1.4957   -1.0338 C   0  0  0  0  0  0  0  0  0  0  0  0
   -2.2751   -1.4588   -0.0891 H   0  0  0  0  0  0  0  0  0  0  0  0
   -3.7658   -2.0140   -0.8830 H   0  0  0  0  0  0  0  0  0  0  0  0
   -2.2282   -2.0356   -1.7747 H   0  0  0  0  0  0  0  0  0  0  0  0
   -0.1711   -0.0594    1.8296 C   0  0  0  0  0  0  0  0  0  0  0  0
    0.9865   -0.2908    2.1726 O   0  0  0  0  0  0  0  0  0  0  0  0
   -1.0921    0.4156    2.6780 N   0  0  0  0  0  0  0  0  0  0  0  0
   -2.0168    0.5953    2.3206 H   0  0  0  0  0  0  0  0  0  0  0  0
   -0.8319    0.7034    4.0877 C   0  0  0  0  0  0  0  0  0  0  0  0
   -0.0192    1.4288    4.1710 H   0  0  0  0  0  0  0  0  0  0  0  0
   -1.7255    1.1088    4.5641 H   0  0  0  0  0  0  0  0  0  0  0  0
   -0.5319   -0.2118    4.6011 H   0  0  0  0  0  0  0  0  0  0  0  0
  5  6  2  0  0  0  0
  5  7  1  0  0  0  0
  2  3  1  0  0  0  0
  2  4  1  0  0  0  0
  2  5  1  0  0  0  0
  1  2  1  0  0  0  0
 22 23  2  0  0  0  0
 22 24  1  0  0  0  0
 18 19  1  0  0  0  0
 18 20  1  0  0  0  0
 18 21  1  0  0  0  0
 17 18  1  0  0  0  0
 14 15  1  0  0  0  0
 14 16  1  0  0  0  0
 14 17  1  0  0  0  0
 11 12  1  0  0  0  0
 11 13  1  0  0  0  0
 11 14  1  0  0  0  0
  9 10  1  0  0  0  0
  9 11  1  0  0  0  0
  9 22  1  0  0  0  0
  7  8  1  0  0  0  0
  7  9  1  0  0  0  0
 26 27  1  0  0  0  0
 26 28  1  0  0  0  0
 26 29  1  0  0  0  0
 24 25  1  0  0  0  0
 24 26  1  0  0  0  0
M  END
$$$$
default_name
  -OEChem-02102213163D

 29 28  0     1  0  0  0  0  0999 V2000
   -3.5781   -3.7296    1.2702 H   0  0  0  0  0  0  0  0  0  0  0  0
   -3.5311   -2.7616    0.7732 C   0  0  0  0  0  0  0  0  0  0  0  0
   -4.2371   -2.0766    1.2382 H   0  0  0  0  0  0  0  0  0  0  0  0
   -3.7681   -2.8816   -0.2818 H   0  0  0  0  0  0  0  0  0  0  0  0
   -2.1321   -2.2086    0.9112 C   0  0  0  0  0  0  0  0  0  0  0  0
   -1.2751   -2.8426    1.5112 O   0  0  0  0  0  0  0  0  0  0  0  0
   -1.9041   -1.0186    0.3602 N   0  0  0  0  0  0  0  0  0  0  0  0
   -2.6671   -0.5416   -0.0988 H   0  0  0  0  0  0  0  0  0  0  0  0
   -0.6131   -0.3236    0.3832 C   0  0  1  0  0  0  0  0  0  0  0  0
    0.1346   -0.9625   -0.0894 H   0  0  0  0  0  0  0  0  0  0  0  0
   -0.7253    0.9751   -0.4365 C   0  0  0  0  0  0  0  0  0  0  0  0
   -1.2775    1.7132    0.1491 H   0  0  0  0  0  0  0  0  0  0  0  0
    0.2744    1.3687   -0.6256 H   0  0  0  0  0  0  0  0  0  0  0  0
   -1.4417    0.7916   -1.7794 C   0  0  0  0  0  0  0  0  0  0  0  0
   -1.2420    1.6559   -2.4120 H   0  0  0  0  0  0  0  0  0  0  0  0
   -1.0464   -0.0996   -2.2683 H   0  0  0  0  0  0  0  0  0  0  0  0
   -3.2370    0.6105   -1.6256 S   0  0  0  0  0  0  0  0  0  0  0  0
   -3.3174   -1.0165   -0.8331 C   0  0  0  0  0  0  0  0  0  0  0  0
   -2.7962   -0.9854    0.1242 H   0  0  0  0  0  0  0  0  0  0  0  0
   -4.3606   -1.2857   -0.6653 H   0  0  0  0  0  0  0  0  0  0  0  0
   -2.8537   -1.7632   -1.4783 H   0  0  0  0  0  0  0  0  0  0  0  0
   -0.1711   -0.0594    1.8296 C   0  0  0  0  0  0  0  0  0  0  0  0
    0.9865   -0.2908    2.1726 O   0  0  0  0  0  0  0  0  0  0  0  0
   -1.0921    0.4156    2.6780 N   0  0  0  0  0  0  0  0  0  0  0  0
   -2.0168    0.5953    2.3206 H   0  0  0  0  0  0  0  0  0  0  0  0
   -0.8319    0.7034    4.0877 C   0  0  0  0  0  0  0  0  0  0  0  0
   -0.0192    1.4288    4.1710 H   0  0  0  0  0  0  0  0  0  0  0  0
   -1.7255    1.1088    4.5641 H   0  0  0  0  0  0  0  0  0  0  0  0
   -0.5319   -0.2118    4.6011 H   0  0  0  0  0  0  0  0  0  0  0  0
  5  6  2  0  0  0  0
  5  7  1  0  0  0  0
  2  3  1  0  0  0  0
  2  4  1  0  0  0  0
  2  5  1  0  0  0  0
  1  2  1  0  0  0  0
 22 23  2  0  0  0  0
 22 24  1  0  0  0  0
 18 19  1  0  0  0  0
 18 20  1  0  0  0  0
 18 21  1  0  0  0  0
 17 18  1  0  0  0  0
 14 15  1  0  0  0  0
 14 16  1  0  0  0  0
 14 17  1  0  0  0  0
 11 12  1  0  0  0  0
 11 13  1  0  0  0  0
 11 14  1  0  0  0  0
  9 10  1  0  0  0  0
  9 11  1  0  0  0  0
  9 22  1  0  0  0  0
  7  8  1  0  0  0  0
  7  9  1  0  0  0  0
 26 27  1  0  0  0  0
 26 28  1  0  0  0  0
 26 29  1  0  0  0  0
 24 25  1  0  0  0  0
 24 26  1  0  0  0  0
M  END
$$$$
default_name
  -OEChem-02102213163D

 29 28  0     1  0  0  0  0  0999 V2000
   -3.5781   -3.7296    1.2702 H   0  0  0  0  0  0  0  0  0  0  0  0
   -3.5311   -2.7616    0.7732 C   0  0  0  0  0  0  0  0  0  0  0  0
   -4.2371   -2.0766    1.2382 H   0  0  0  0  0  0  0  0  0  0  0  0
   -3.7681   -2.8816   -0.2818 H   0  0  0  0  0  0  0  0  0  0  0  0
   -2.1321   -2.2086    0.9112 C   0  0  0  0  0  0  0  0  0  0  0  0
   -1.2751   -2.8426    1.5112 O   0  0  0  0  0  0  0  0  0  0  0  0
   -1.9041   -1.0186    0.3602 N   0  0  0  0  0  0  0  0  0  0  0  0
   -2.6671   -0.5416   -0.0988 H   0  0  0  0  0  0  0  0  0  0  0  0
   -0.6131   -0.3236    0.3832 C   0  0  1  0  0  0  0  0  0  0  0  0
    0.1346   -0.9625   -0.0894 H   0  0  0  0  0  0  0  0  0  0  0  0
   -0.7253    0.9751   -0.4365 C   0  0  0  0  0  0  0  0  0  0  0  0
   -1.2775    1.7132    0.1491 H   0  0  0  0  0  0  0  0  0  0  0  0
    0.2744    1.3687   -0.6256 H   0  0  0  0  0  0  0  0  0  0  0  0
   -1.4417    0.7916   -1.7794 C   0  0  0  0  0  0  0  0  0  0  0  0
   -1.0390    1.5033   -2.4994 H   0  0  0  0  0  0  0  0  0  0  0  0
   -1.2524   -0.2194   -2.1421 H   0  0  0  0  0  0  0  0  0  0  0  0
   -3.2332    1.0394   -1.6862 S   0  0  0  0  0  0  0  0  0  0  0  0
   -3.6969   -0.4163   -0.7126 C   0  0  0  0  0  0  0  0  0  0  0  0
   -3.1988   -0.3842    0.2568 H   0  0  0  0  0  0  0  0  0  0  0  0
   -4.7767   -0.4210   -0.5614 H   0  0  0  0  0  0  0  0  0  0  0  0
   -3.4053   -1.3225   -1.2442 H   0  0  0  0  0  0  0  0  0  0  0  0
   -0.1711   -0.0594    1.8296 C   0  0  0  0  0  0  0  0  0  0  0  0
    0.9865   -0.2908    2.1726 O   0  0  0  0  0  0  0  0  0  0  0  0
   -1.0921    0.4156    2.6780 N   0  0  0  0  0  0  0  0  0  0  0  0
   -2.0168    0.5953    2.3206 H   0  0  0  0  0  0  0  0  0  0  0  0
   -0.8319    0.7034    4.0877 C   0  0  0  0  0  0  0  0  0  0  0  0
   -0.0192    1.4288    4.1710 H   0  0  0  0  0  0  0  0  0  0  0  0
   -1.7255    1.1088    4.5641 H   0  0  0  0  0  0  0  0  0  0  0  0
   -0.5319   -0.2118    4.6011 H   0  0  0  0  0  0  0  0  0  0  0  0
  5  6  2  0  0  0  0
  5  7  1  0  0  0  0
  2  3  1  0  0  0  0
  2  4  1  0  0  0  0
  2  5  1  0  0  0  0
  1  2  1  0  0  0  0
 22 23  2  0  0  0  0
 22 24  1  0  0  0  0
 18 19  1  0  0  0  0
 18 20  1  0  0  0  0
 18 21  1  0  0  0  0
 17 18  1  0  0  0  0
 14 15  1  0  0  0  0
 14 16  1  0  0  0  0
 14 17  1  0  0  0  0
 11 12  1  0  0  0  0
 11 13  1  0  0  0  0
 11 14  1  0  0  0  0
  9 10  1  0  0  0  0
  9 11  1  0  0  0  0
  9 22  1  0  0  0  0
  7  8  1  0  0  0  0
  7  9  1  0  0  0  0
 26 27  1  0  0  0  0
 26 28  1  0  0  0  0
 26 29  1  0  0  0  0
 24 25  1  0  0  0  0
 24 26  1  0  0  0  0
M  END
$$$$
default_name
  -OEChem-02102213163D

 29 28  0     1  0  0  0  0  0999 V2000
   -3.5781   -3.7296    1.2702 H   0  0  0  0  0  0  0  0  0  0  0  0
   -3.5311   -2.7616    0.7732 C   0  0  0  0  0  0  0  0  0  0  0  0
   -4.2371   -2.0766    1.2382 H   0  0  0  0  0  0  0  0  0  0  0  0
   -3.7681   -2.8816   -0.2818 H   0  0  0  0  0  0  0  0  0  0  0  0
   -2.1321   -2.2086    0.9112 C   0  0  0  0  0  0  0  0  0  0  0  0
   -1.2751   -2.8426    1.5112 O   0  0  0  0  0  0  0  0  0  0  0  0
   -1.9041   -1.0186    0.3602 N   0  0  0  0  0  0  0  0  0  0  0  0
   -2.6671   -0.5416   -0.0988 H   0  0  0  0  0  0  0  0  0  0  0  0
   -0.6131   -0.3236    0.3832 C   0  0  1  0  0  0  0  0  0  0  0  0
    0.1346   -0.9625   -0.0894 H   0  0  0  0  0  0  0  0  0  0  0  0
   -0.7253    0.9751   -0.4365 C   0  0  0  0  0  0  0  0  0  0  0  0
   -1.2775    1.7132    0.1491 H   0  0  0  0  0  0  0  0  0  0  0  0
    0.2744    1.3687   -0.6256 H   0  0  0  0  0  0  0  0  0  0  0  0
   -1.4417    0.7916   -1.7794 C   0  0  0  0  0  0  0  0  0  0  0  0
   -0.8747    1.2992   -2.5592 H   0  0  0  0  0  0  0  0  0  0  0  0
   -1.4824   -0.2731   -2.0121 H   0  0  0  0  0  0  0  0  0  0  0  0
   -3.1304    1.4454   -1.7965 S   0  0  0  0  0  0  0  0  0  0  0  0
   -3.9312    0.2641   -0.6806 C   0  0  0  0  0  0  0  0  0  0  0  0
   -3.4555    0.3039    0.2997 H   0  0  0  0  0  0  0  0  0  0  0  0
   -4.9859    0.5212   -0.5786 H   0  0  0  0  0  0  0  0  0  0  0  0
   -3.8454   -0.7434   -1.0885 H   0  0  0  0  0  0  0  0  0  0  0  0
   -0.1711   -0.0594    1.8296 C   0  0  0  0  0  0  0  0  0  0  0  0
    0.9865   -0.2908    2.1726 O   0  0  0  0  0  0  0  0  0  0  0  0
   -1.0921    0.4156    2.6780 N   0  0  0  0  0  0  0  0  0  0  0  0
   -2.0168    0.5953    2.3206 H   0  0  0  0  0  0  0  0  0  0  0  0
   -0.8319    0.7034    4.0877 C   0  0  0  0  0  0  0  0  0  0  0  0
   -0.0192    1.4288    4.1710 H   0  0  0  0  0  0  0  0  0  0  0  0
   -1.7255    1.1088    4.5641 H   0  0  0  0  0  0  0  0  0  0  0  0
   -0.5319   -0.2118    4.6011 H   0  0  0  0  0  0  0  0  0  0  0  0
  5  6  2  0  0  0  0
  5  7  1  0  0  0  0
  2  3  1  0  0  0  0
  2  4  1  0  0  0  0
  2  5  1  0  0  0  0
  1  2  1  0  0  0  0
 22 23  2  0  0  0  0
 22 24  1  0  0  0  0
 18 19  1  0  0  0  0
 18 20  1  0  0  0  0
 18 21  1  0  0  0  0
 17 18  1  0  0  0  0
 14 15  1  0  0  0  0
 14 16  1  0  0  0  0
 14 17  1  0  0  0  0
 11 12  1  0  0  0  0
 11 13  1  0  0  0  0
 11 14  1  0  0  0  0
  9 10  1  0  0  0  0
  9 11  1  0  0  0  0
  9 22  1  0  0  0  0
  7  8  1  0  0  0  0
  7  9  1  0  0  0  0
 26 27  1  0  0  0  0
 26 28  1  0  0  0  0
 26 29  1  0  0  0  0
 24 25  1  0  0  0  0
 24 26  1  0  0  0  0
M  END
$$$$
default_name
  -OEChem-02102213163D

 29 28  0     1  0  0  0  0  0999 V2000
   -3.5781   -3.7296    1.2702 H   0  0  0  0  0  0  0  0  0  0  0  0
   -3.5311   -2.7616    0.7732 C   0  0  0  0  0  0  0  0  0  0  0  0
   -4.2371   -2.0766    1.2382 H   0  0  0  0  0  0  0  0  0  0  0  0
   -3.7681   -2.8816   -0.2818 H   0  0  0  0  0  0  0  0  0  0  0  0
   -2.1321   -2.2086    0.9112 C   0  0  0  0  0  0  0  0  0  0  0  0
   -1.2751   -2.8426    1.5112 O   0  0  0  0  0  0  0  0  0  0  0  0
   -1.9041   -1.0186    0.3602 N   0  0  0  0  0  0  0  0  0  0  0  0
   -2.6671   -0.5416   -0.0988 H   0  0  0  0  0  0  0  0  0  0  0  0
   -0.6131   -0.3236    0.3832 C   0  0  1  0  0  0  0  0  0  0  0  0
    0.1346   -0.9625   -0.0894 H   0  0  0  0  0  0  0  0  0  0  0  0
   -0.7253    0.9751   -0.4365 C   0  0  0  0  0  0  0  0  0  0  0  0
   -1.2775    1.7132    0.1491 H   0  0  0  0  0  0  0  0  0  0  0  0
    0.2744    1.3687   -0.6256 H   0  0  0  0  0  0  0  0  0  0  0  0
   -1.4417    0.7916   -1.7794 C   0  0  0  0  0  0  0  0  0  0  0  0
   -0.7605    1.0576   -2.5871 H   0  0  0  0  0  0  0  0  0  0  0  0
   -1.7207   -0.2572   -1.8871 H   0  0  0  0  0  0  0  0  0  0  0  0
   -2.9357    1.8010   -1.9489 S   0  0  0  0  0  0  0  0  0  0  0  0
   -4.0042    0.9783   -0.7393 C   0  0  0  0  0  0  0  0  0  0  0  0
   -3.5488    1.0319    0.2500 H   0  0  0  0  0  0  0  0  0  0  0  0
   -4.9737    1.4766   -0.7156 H   0  0  0  0  0  0  0  0  0  0  0  0
   -4.1441   -0.0655   -1.0218 H   0  0  0  0  0  0  0  0  0  0  0  0
   -0.1711   -0.0594    1.8296 C   0  0  0  0  0  0  0  0  0  0  0  0
    0.9865   -0.2908    2.1726 O   0  0  0  0  0  0  0  0  0  0  0  0
   -1.0921    0.4156    2.6780 N   0  0  0  0  0  0  0  0  0  0  0  0
   -2.0168    0.5953    2.3206 H   0  0  0  0  0  0  0  0  0  0  0  0
   -0.8319    0.7034    4.0877 C   0  0  0  0  0  0  0  0  0  0  0  0
   -0.0192    1.4288    4.1710 H   0  0  0  0  0  0  0  0  0  0  0  0
   -1.7255    1.1088    4.5641 H   0  0  0  0  0  0  0  0  0  0  0  0
   -0.5319   -0.2118    4.6011 H   0  0  0  0  0  0  0  0  0  0  0  0
  5  6  2  0  0  0  0
  5  7  1  0  0  0  0
  2  3  1  0  0  0  0
  2  4  1  0  0  0  0
  2  5  1  0  0  0  0
  1  2  1  0  0  0  0
 22 23  2  0  0  0  0
 22 24  1  0  0  0  0
 18 19  1  0  0  0  0
 18 20  1  0  0  0  0
 18 21  1  0  0  0  0
 17 18  1  0  0  0  0
 14 15  1  0  0  0  0
 14 16  1  0  0  0  0
 14 17  1  0  0  0  0
 11 12  1  0  0  0  0
 11 13  1  0  0  0  0
 11 14  1  0  0  0  0
  9 10  1  0  0  0  0
  9 11  1  0  0  0  0
  9 22  1  0  0  0  0
  7  8  1  0  0  0  0
  7  9  1  0  0  0  0
 26 27  1  0  0  0  0
 26 28  1  0  0  0  0
 26 29  1  0  0  0  0
 24 25  1  0  0  0  0
 24 26  1  0  0  0  0
M  END
$$$$
default_name
  -OEChem-02102213163D

 29 28  0     1  0  0  0  0  0999 V2000
   -3.5781   -3.7296    1.2702 H   0  0  0  0  0  0  0  0  0  0  0  0
   -3.5311   -2.7616    0.7732 C   0  0  0  0  0  0  0  0  0  0  0  0
   -4.2371   -2.0766    1.2382 H   0  0  0  0  0  0  0  0  0  0  0  0
   -3.7681   -2.8816   -0.2818 H   0  0  0  0  0  0  0  0  0  0  0  0
   -2.1321   -2.2086    0.9112 C   0  0  0  0  0  0  0  0  0  0  0  0
   -1.2751   -2.8426    1.5112 O   0  0  0  0  0  0  0  0  0  0  0  0
   -1.9041   -1.0186    0.3602 N   0  0  0  0  0  0  0  0  0  0  0  0
   -2.6671   -0.5416   -0.0988 H   0  0  0  0  0  0  0  0  0  0  0  0
   -0.6131   -0.3236    0.3832 C   0  0  1  0  0  0  0  0  0  0  0  0
    0.1346   -0.9625   -0.0894 H   0  0  0  0  0  0  0  0  0  0  0  0
   -0.7253    0.9751   -0.4365 C   0  0  0  0  0  0  0  0  0  0  0  0
   -1.2775    1.7132    0.1491 H   0  0  0  0  0  0  0  0  0  0  0  0
    0.2744    1.3687   -0.6256 H   0  0  0  0  0  0  0  0  0  0  0  0
   -1.4417    0.7916   -1.7794 C   0  0  0  0  0  0  0  0  0  0  0  0
   -0.7041    0.7949   -2.5813 H   0  0  0  0  0  0  0  0  0  0  0  0
   -1.9512   -0.1726   -1.7757 H   0  0  0  0  0  0  0  0  0  0  0  0
   -2.6622    2.0818   -2.1332 S   0  0  0  0  0  0  0  0  0  0  0  0
   -3.9110    1.6776   -0.8845 C   0  0  0  0  0  0  0  0  0  0  0  0
   -3.4723    1.7502    0.1111 H   0  0  0  0  0  0  0  0  0  0  0  0
   -4.7412    2.3801   -0.9631 H   0  0  0  0  0  0  0  0  0  0  0  0
   -4.2810    0.6652   -1.0486 H   0  0  0  0  0  0  0  0  0  0  0  0
   -0.1711   -0.0594    1.8296 C   0  0  0  0  0  0  0  0  0  0  0  0
    0.9865   -0.2908    2.1726 O   0  0  0  0  0  0  0  0  0  0  0  0
   -1.0921    0.4156    2.6780 N   0  0  0  0  0  0  0  0  0  0  0  0
   -2.0168    0.5953    2.3206 H   0  0  0  0  0  0  0  0  0  0  0  0
   -0.8319    0.7034    4.0877 C   0  0  0  0  0  0  0  0  0  0  0  0
   -0.0192    1.4288    4.1710 H   0  0  0  0  0  0  0  0  0  0  0  0
   -1.7255    1.1088    4.5641 H   0  0  0  0  0  0  0  0  0  0  0  0
   -0.5319   -0.2118    4.6011 H   0  0  0  0  0  0  0  0  0  0  0  0
  5  6  2  0  0  0  0
  5  7  1  0  0  0  0
  2  3  1  0  0  0  0
  2  4  1  0  0  0  0
  2  5  1  0  0  0  0
  1  2  1  0  0  0  0
 22 23  2  0  0  0  0
 22 24  1  0  0  0  0
 18 19  1  0  0  0  0
 18 20  1  0  0  0  0
 18 21  1  0  0  0  0
 17 18  1  0  0  0  0
 14 15  1  0  0  0  0
 14 16  1  0  0  0  0
 14 17  1  0  0  0  0
 11 12  1  0  0  0  0
 11 13  1  0  0  0  0
 11 14  1  0  0  0  0
  9 10  1  0  0  0  0
  9 11  1  0  0  0  0
  9 22  1  0  0  0  0
  7  8  1  0  0  0  0
  7  9  1  0  0  0  0
 26 27  1  0  0  0  0
 26 28  1  0  0  0  0
 26 29  1  0  0  0  0
 24 25  1  0  0  0  0
 24 26  1  0  0  0  0
M  END
$$$$
default_name
  -OEChem-02102213163D

 29 28  0     1  0  0  0  0  0999 V2000
   -3.5781   -3.7296    1.2702 H   0  0  0  0  0  0  0  0  0  0  0  0
   -3.5311   -2.7616    0.7732 C   0  0  0  0  0  0  0  0  0  0  0  0
   -4.2371   -2.0766    1.2382 H   0  0  0  0  0  0  0  0  0  0  0  0
   -3.7681   -2.8816   -0.2818 H   0  0  0  0  0  0  0  0  0  0  0  0
   -2.1321   -2.2086    0.9112 C   0  0  0  0  0  0  0  0  0  0  0  0
   -1.2751   -2.8426    1.5112 O   0  0  0  0  0  0  0  0  0  0  0  0
   -1.9041   -1.0186    0.3602 N   0  0  0  0  0  0  0  0  0  0  0  0
   -2.6671   -0.5416   -0.0988 H   0  0  0  0  0  0  0  0  0  0  0  0
   -0.6131   -0.3236    0.3832 C   0  0  1  0  0  0  0  0  0  0  0  0
    0.1346   -0.9625   -0.0894 H   0  0  0  0  0  0  0  0  0  0  0  0
   -0.7253    0.9751   -0.4365 C   0  0  0  0  0  0  0  0  0  0  0  0
   -1.2775    1.7132    0.1491 H   0  0  0  0  0  0  0  0  0  0  0  0
    0.2744    1.3687   -0.6256 H   0  0  0  0  0  0  0  0  0  0  0  0
   -1.4417    0.7916   -1.7794 C   0  0  0  0  0  0  0  0  0  0  0  0
   -0.7093    0.5292   -2.5422 H   0  0  0  0  0  0  0  0  0  0  0  0
   -2.1582   -0.0252   -1.6854 H   0  0  0  0  0  0  0  0  0  0  0  0
   -2.3287    2.2688   -2.3366 S   0  0  0  0  0  0  0  0  0  0  0  0
   -3.6579    2.3144   -1.1065 C   0  0  0  0  0  0  0  0  0  0  0  0
   -3.2312    2.4099   -0.1076 H   0  0  0  0  0  0  0  0  0  0  0  0
   -4.3040    3.1701   -1.3042 H   0  0  0  0  0  0  0  0  0  0  0  0
   -4.2467    1.3987   -1.1671 H   0  0  0  0  0  0  0  0  0  0  0  0
   -0.1711   -0.0594    1.8296 C   0  0  0  0  0  0  0  0  0  0  0  0
    0.9865   -0.2908    2.1726 O   0  0  0  0  0  0  0  0  0  0  0  0
   -1.0921    0.4156    2.6780 N   0  0  0  0  0  0  0  0  0  0  0  0
   -2.0168    0.5953    2.3206 H   0  0  0  0  0  0  0  0  0  0  0  0
   -0.8319    0.7034    4.0877 C   0  0  0  0  0  0  0  0  0  0  0  0
   -0.0192    1.4288    4.1710 H   0  0  0  0  0  0  0  0  0  0  0  0
   -1.7255    1.1088    4.5641 H   0  0  0  0  0  0  0  0  0  0  0  0
   -0.5319   -0.2118    4.6011 H   0  0  0  0  0  0  0  0  0  0  0  0
  5  6  2  0  0  0  0
  5  7  1  0  0  0  0
  2  3  1  0  0  0  0
  2  4  1  0  0  0  0
  2  5  1  0  0  0  0
  1  2  1  0  0  0  0
 22 23  2  0  0  0  0
 22 24  1  0  0  0  0
 18 19  1  0  0  0  0
 18 20  1  0  0  0  0
 18 21  1  0  0  0  0
 17 18  1  0  0  0  0
 14 15  1  0  0  0  0
 14 16  1  0  0  0  0
 14 17  1  0  0  0  0
 11 12  1  0  0  0  0
 11 13  1  0  0  0  0
 11 14  1  0  0  0  0
  9 10  1  0  0  0  0
  9 11  1  0  0  0  0
  9 22  1  0  0  0  0
  7  8  1  0  0  0  0
  7  9  1  0  0  0  0
 26 27  1  0  0  0  0
 26 28  1  0  0  0  0
 26 29  1  0  0  0  0
 24 25  1  0  0  0  0
 24 26  1  0  0  0  0
M  END
$$$$
default_name
  -OEChem-02102213163D

 29 28  0     1  0  0  0  0  0999 V2000
   -3.5781   -3.7296    1.2702 H   0  0  0  0  0  0  0  0  0  0  0  0
   -3.5311   -2.7616    0.7732 C   0  0  0  0  0  0  0  0  0  0  0  0
   -4.2371   -2.0766    1.2382 H   0  0  0  0  0  0  0  0  0  0  0  0
   -3.7681   -2.8816   -0.2818 H   0  0  0  0  0  0  0  0  0  0  0  0
   -2.1321   -2.2086    0.9112 C   0  0  0  0  0  0  0  0  0  0  0  0
   -1.2751   -2.8426    1.5112 O   0  0  0  0  0  0  0  0  0  0  0  0
   -1.9041   -1.0186    0.3602 N   0  0  0  0  0  0  0  0  0  0  0  0
   -2.6671   -0.5416   -0.0988 H   0  0  0  0  0  0  0  0  0  0  0  0
   -0.6131   -0.3236    0.3832 C   0  0  1  0  0  0  0  0  0  0  0  0
    0.1346   -0.9625   -0.0894 H   0  0  0  0  0  0  0  0  0  0  0  0
   -0.7253    0.9751   -0.4365 C   0  0  0  0  0  0  0  0  0  0  0  0
   -1.2775    1.7132    0.1491 H   0  0  0  0  0  0  0  0  0  0  0  0
    0.2744    1.3687   -0.6256 H   0  0  0  0  0  0  0  0  0  0  0  0
   -1.4417    0.7916   -1.7794 C   0  0  0  0  0  0  0  0  0  0  0  0
   -0.7758    0.2783   -2.4725 H   0  0  0  0  0  0  0  0  0  0  0  0
   -2.3274    0.1750   -1.6225 H   0  0  0  0  0  0  0  0  0  0  0  0
   -1.9579    2.3493   -2.5454 S   0  0  0  0  0  0  0  0  0  0  0  0
   -3.2621    2.8453   -1.3902 C   0  0  0  0  0  0  0  0  0  0  0  0
   -2.8420    2.9660   -0.3912 H   0  0  0  0  0  0  0  0  0  0  0  0
   -3.6921    3.7929   -1.7157 H   0  0  0  0  0  0  0  0  0  0  0  0
   -4.0436    2.0852   -1.3693 H   0  0  0  0  0  0  0  0  0  0  0  0
   -0.1711   -0.0594    1.8296 C   0  0  0  0  0  0  0  0  0  0  0  0
    0.9865   -0.2908    2.1726 O   0  0  0  0  0  0  0  0  0  0  0  0
   -1.0921    0.4156    2.6780 N   0  0  0  0  0  0  0  0  0  0  0  0
   -2.0168    0.5953    2.3206 H   0  0  0  0  0  0  0  0  0  0  0  0
   -0.8319    0.7034    4.0877 C   0  0  0  0  0  0  0  0  0  0  0  0
   -0.0192    1.4288    4.1710 H   0  0  0  0  0  0  0  0  0  0  0  0
   -1.7255    1.1088    4.5641 H   0  0  0  0  0  0  0  0  0  0  0  0
   -0.5319   -0.2118    4.6011 H   0  0  0  0  0  0  0  0  0  0  0  0
  5  6  2  0  0  0  0
  5  7  1  0  0  0  0
  2  3  1  0  0  0  0
  2  4  1  0  0  0  0
  2  5  1  0  0  0  0
  1  2  1  0  0  0  0
 22 23  2  0  0  0  0
 22 24  1  0  0  0  0
 18 19  1  0  0  0  0
 18 20  1  0  0  0  0
 18 21  1  0  0  0  0
 17 18  1  0  0  0  0
 14 15  1  0  0  0  0
 14 16  1  0  0  0  0
 14 17  1  0  0  0  0
 11 12  1  0  0  0  0
 11 13  1  0  0  0  0
 11 14  1  0  0  0  0
  9 10  1  0  0  0  0
  9 11  1  0  0  0  0
  9 22  1  0  0  0  0
  7  8  1  0  0  0  0
  7  9  1  0  0  0  0
 26 27  1  0  0  0  0
 26 28  1  0  0  0  0
 26 29  1  0  0  0  0
 24 25  1  0  0  0  0
 24 26  1  0  0  0  0
M  END
$$$$
default_name
  -OEChem-02102213163D

 29 28  0     1  0  0  0  0  0999 V2000
   -3.5781   -3.7296    1.2702 H   0  0  0  0  0  0  0  0  0  0  0  0
   -3.5311   -2.7616    0.7732 C   0  0  0  0  0  0  0  0  0  0  0  0
   -4.2371   -2.0766    1.2382 H   0  0  0  0  0  0  0  0  0  0  0  0
   -3.7681   -2.8816   -0.2818 H   0  0  0  0  0  0  0  0  0  0  0  0
   -2.1321   -2.2086    0.9112 C   0  0  0  0  0  0  0  0  0  0  0  0
   -1.2751   -2.8426    1.5112 O   0  0  0  0  0  0  0  0  0  0  0  0
   -1.9041   -1.0186    0.3602 N   0  0  0  0  0  0  0  0  0  0  0  0
   -2.6671   -0.5416   -0.0988 H   0  0  0  0  0  0  0  0  0  0  0  0
   -0.6131   -0.3236    0.3832 C   0  0  1  0  0  0  0  0  0  0  0  0
    0.1346   -0.9625   -0.0894 H   0  0  0  0  0  0  0  0  0  0  0  0
   -0.7253    0.9751   -0.4365 C   0  0  0  0  0  0  0  0  0  0  0  0
   -1.0301    1.7852    0.2294 H   0  0  0  0  0  0  0  0  0  0  0  0
    0.2524    1.2243   -0.8513 H   0  0  0  0  0  0  0  0  0  0  0  0
   -1.7372    0.8888   -1.5849 C   0  0  0  0  0  0  0  0  0  0  0  0
   -1.4435    0.0860   -2.2605 H   0  0  0  0  0  0  0  0  0  0  0  0
   -2.7188    0.6567   -1.1701 H   0  0  0  0  0  0  0  0  0  0  0  0
   -1.8711    2.4150   -2.5505 S   0  0  0  0  0  0  0  0  0  0  0  0
   -2.6566    3.4905   -1.3226 C   0  0  0  0  0  0  0  0  0  0  0  0
   -2.0128    3.5806   -0.4471 H   0  0  0  0  0  0  0  0  0  0  0  0
   -2.8140    4.4788   -1.7556 H   0  0  0  0  0  0  0  0  0  0  0  0
   -3.6187    3.0708   -1.0277 H   0  0  0  0  0  0  0  0  0  0  0  0
   -0.1711   -0.0594    1.8296 C   0  0  0  0  0  0  0  0  0  0  0  0
    0.9865   -0.2908    2.1726 O   0  0  0  0  0  0  0  0  0  0  0  0
   -1.0921    0.4156    2.6780 N   0  0  0  0  0  0  0  0  0  0  0  0
   -2.0168    0.5953    2.3206 H   0  0  0  0  0  0  0  0  0  0  0  0
   -0.8319    0.7034    4.0877 C   0  0  0  0  0  0  0  0  0  0  0  0
   -0.0192    1.4288    4.1710 H   0  0  0  0  0  0  0  0  0  0  0  0
   -1.7255    1.1088    4.5641 H   0  0  0  0  0  0  0  0  0  0  0  0
   -0.5319   -0.2118    4.6011 H   0  0  0  0  0  0  0  0  0  0  0  0
  5  6  2  0  0  0  0
  5  7  1  0  0  0  0
  2  3  1  0  0  0  0
  2  4  1  0  0  0  0
  2  5  1  0  0  0  0
  1  2  1  0  0  0  0
 22 23  2  0  0  0  0
 22 24  1  0  0  0  0
 18 19  1  0  0  0  0
 18 20  1  0  0  0  0
 18 21  1  0  0  0  0
 17 18  1  0  0  0  0
 14 15  1  0  0  0  0
 14 16  1  0  0  0  0
 14 17  1  0  0  0  0
 11 12  1  0  0  0  0
 11 13  1  0  0  0  0
 11 14  1  0  0  0  0
  9 10  1  0  0  0  0
  9 11  1  0  0  0  0
  9 22  1  0  0  0  0
  7  8  1  0  0  0  0
  7  9  1  0  0  0  0
 26 27  1  0  0  0  0
 26 28  1  0  0  0  0
 26 29  1  0  0  0  0
 24 25  1  0  0  0  0
 24 26  1  0  0  0  0
M  END
$$$$
default_name
  -OEChem-02102213163D

 29 28  0     1  0  0  0  0  0999 V2000
   -3.5781   -3.7296    1.2702 H   0  0  0  0  0  0  0  0  0  0  0  0
   -3.5311   -2.7616    0.7732 C   0  0  0  0  0  0  0  0  0  0  0  0
   -4.2371   -2.0766    1.2382 H   0  0  0  0  0  0  0  0  0  0  0  0
   -3.7681   -2.8816   -0.2818 H   0  0  0  0  0  0  0  0  0  0  0  0
   -2.1321   -2.2086    0.9112 C   0  0  0  0  0  0  0  0  0  0  0  0
   -1.2751   -2.8426    1.5112 O   0  0  0  0  0  0  0  0  0  0  0  0
   -1.9041   -1.0186    0.3602 N   0  0  0  0  0  0  0  0  0  0  0  0
   -2.6671   -0.5416   -0.0988 H   0  0  0  0  0  0  0  0  0  0  0  0
   -0.6131   -0.3236    0.3832 C   0  0  1  0  0  0  0  0  0  0  0  0
    0.1346   -0.9625   -0.0894 H   0  0  0  0  0  0  0  0  0  0  0  0
   -0.7253    0.9751   -0.4365 C   0  0  0  0  0  0  0  0  0  0  0  0
   -1.0301    1.7852    0.2294 H   0  0  0  0  0  0  0  0  0  0  0  0
    0.2524    1.2243   -0.8513 H   0  0  0  0  0  0  0  0  0  0  0  0
   -1.7372    0.8888   -1.5849 C   0  0  0  0  0  0  0  0  0  0  0  0
   -1.6074   -0.0597   -2.1051 H   0  0  0  0  0  0  0  0  0  0  0  0
   -2.7442    0.9251   -1.1678 H   0  0  0  0  0  0  0  0  0  0  0  0
   -1.5728    2.2226   -2.7988 S   0  0  0  0  0  0  0  0  0  0  0  0
   -2.1306    3.6245   -1.7961 C   0  0  0  0  0  0  0  0  0  0  0  0
   -1.4796    3.7382   -0.9288 H   0  0  0  0  0  0  0  0  0  0  0  0
   -2.0931    4.5348   -2.3950 H   0  0  0  0  0  0  0  0  0  0  0  0
   -3.1555    3.4550   -1.4648 H   0  0  0  0  0  0  0  0  0  0  0  0
   -0.1711   -0.0594    1.8296 C   0  0  0  0  0  0  0  0  0  0  0  0
    0.9865   -0.2908    2.1726 O   0  0  0  0  0  0  0  0  0  0  0  0
   -1.0921    0.4156    2.6780 N   0  0  0  0  0  0  0  0  0  0  0  0
   -2.0168    0.5953    2.3206 H   0  0  0  0  0  0  0  0  0  0  0  0
   -0.8319    0.7034    4.0877 C   0  0  0  0  0  0  0  0  0  0  0  0
   -0.0192    1.4288    4.1710 H   0  0  0  0  0  0  0  0  0  0  0  0
   -1.7255    1.1088    4.5641 H   0  0  0  0  0  0  0  0  0  0  0  0
   -0.5319   -0.2118    4.6011 H   0  0  0  0  0  0  0  0  0  0  0  0
  5  6  2  0  0  0  0
  5  7  1  0  0  0  0
  2  3  1  0  0  0  0
  2  4  1  0  0  0  0
  2  5  1  0  0  0  0
  1  2  1  0  0  0  0
 22 23  2  0  0  0  0
 22 24  1  0  0  0  0
 18 19  1  0  0  0  0
 18 20  1  0  0  0  0
 18 21  1  0  0  0  0
 17 18  1  0  0  0  0
 14 15  1  0  0  0  0
 14 16  1  0  0  0  0
 14 17  1  0  0  0  0
 11 12  1  0  0  0  0
 11 13  1  0  0  0  0
 11 14  1  0  0  0  0
  9 10  1  0  0  0  0
  9 11  1  0  0  0  0
  9 22  1  0  0  0  0
  7  8  1  0  0  0  0
  7  9  1  0  0  0  0
 26 27  1  0  0  0  0
 26 28  1  0  0  0  0
 26 29  1  0  0  0  0
 24 25  1  0  0  0  0
 24 26  1  0  0  0  0
M  END
$$$$
default_name
  -OEChem-02102213163D

 29 28  0     1  0  0  0  0  0999 V2000
   -3.5781   -3.7296    1.2702 H   0  0  0  0  0  0  0  0  0  0  0  0
   -3.5311   -2.7616    0.7732 C   0  0  0  0  0  0  0  0  0  0  0  0
   -4.2371   -2.0766    1.2382 H   0  0  0  0  0  0  0  0  0  0  0  0
   -3.7681   -2.8816   -0.2818 H   0  0  0  0  0  0  0  0  0  0  0  0
   -2.1321   -2.2086    0.9112 C   0  0  0  0  0  0  0  0  0  0  0  0
   -1.2751   -2.8426    1.5112 O   0  0  0  0  0  0  0  0  0  0  0  0
   -1.9041   -1.0186    0.3602 N   0  0  0  0  0  0  0  0  0  0  0  0
   -2.6671   -0.5416   -0.0988 H   0  0  0  0  0  0  0  0  0  0  0  0
   -0.6131   -0.3236    0.3832 C   0  0  1  0  0  0  0  0  0  0  0  0
    0.1346   -0.9625   -0.0894 H   0  0  0  0  0  0  0  0  0  0  0  0
   -0.7253    0.9751   -0.4365 C   0  0  0  0  0  0  0  0  0  0  0  0
   -1.0301    1.7852    0.2294 H   0  0  0  0  0  0  0  0  0  0  0  0
    0.2524    1.2243   -0.8513 H   0  0  0  0  0  0  0  0  0  0  0  0
   -1.7372    0.8888   -1.5849 C   0  0  0  0  0  0  0  0  0  0  0  0
   -1.7962   -0.1421   -1.9326 H   0  0  0  0  0  0  0  0  0  0  0  0
   -2.7169    1.1896   -1.2119 H   0  0  0  0  0  0  0  0  0  0  0  0
   -1.3185    1.9365   -3.0015 S   0  0  0  0  0  0  0  0  0  0  0  0
   -1.5897    3.5709   -2.2687 C   0  0  0  0  0  0  0  0  0  0  0  0
   -0.9270    3.7049   -1.4132 H   0  0  0  0  0  0  0  0  0  0  0  0
   -1.3766    4.3400   -3.0117 H   0  0  0  0  0  0  0  0  0  0  0  0
   -2.6271    3.6618   -1.9458 H   0  0  0  0  0  0  0  0  0  0  0  0
   -0.1711   -0.0594    1.8296 C   0  0  0  0  0  0  0  0  0  0  0  0
    0.9865   -0.2908    2.1726 O   0  0  0  0  0  0  0  0  0  0  0  0
   -1.0921    0.4156    2.6780 N   0  0  0  0  0  0  0  0  0  0  0  0
   -2.0168    0.5953    2.3206 H   0  0  0  0  0  0  0  0  0  0  0  0
   -0.8319    0.7034    4.0877 C   0  0  0  0  0  0  0  0  0  0  0  0
   -0.0192    1.4288    4.1710 H   0  0  0  0  0  0  0  0  0  0  0  0
   -1.7255    1.1088    4.5641 H   0  0  0  0  0  0  0  0  0  0  0  0
   -0.5319   -0.2118    4.6011 H   0  0  0  0  0  0  0  0  0  0  0  0
  5  6  2  0  0  0  0
  5  7  1  0  0  0  0
  2  3  1  0  0  0  0
  2  4  1  0  0  0  0
  2  5  1  0  0  0  0
  1  2  1  0  0  0  0
 22 23  2  0  0  0  0
 22 24  1  0  0  0  0
 18 19  1  0  0  0  0
 18 20  1  0  0  0  0
 18 21  1  0  0  0  0
 17 18  1  0  0  0  0
 14 15  1  0  0  0  0
 14 16  1  0  0  0  0
 14 17  1  0  0  0  0
 11 12  1  0  0  0  0
 11 13  1  0  0  0  0
 11 14  1  0  0  0  0
  9 10  1  0  0  0  0
  9 11  1  0  0  0  0
  9 22  1  0  0  0  0
  7  8  1  0  0  0  0
  7  9  1  0  0  0  0
 26 27  1  0  0  0  0
 26 28  1  0  0  0  0
 26 29  1  0  0  0  0
 24 25  1  0  0  0  0
 24 26  1  0  0  0  0
M  END
$$$$
default_name
  -OEChem-02102213163D

 29 28  0     1  0  0  0  0  0999 V2000
   -3.5781   -3.7296    1.2702 H   0  0  0  0  0  0  0  0  0  0  0  0
   -3.5311   -2.7616    0.7732 C   0  0  0  0  0  0  0  0  0  0  0  0
   -4.2371   -2.0766    1.2382 H   0  0  0  0  0  0  0  0  0  0  0  0
   -3.7681   -2.8816   -0.2818 H   0  0  0  0  0  0  0  0  0  0  0  0
   -2.1321   -2.2086    0.9112 C   0  0  0  0  0  0  0  0  0  0  0  0
   -1.2751   -2.8426    1.5112 O   0  0  0  0  0  0  0  0  0  0  0  0
   -1.9041   -1.0186    0.3602 N   0  0  0  0  0  0  0  0  0  0  0  0
   -2.6671   -0.5416   -0.0988 H   0  0  0  0  0  0  0  0  0  0  0  0
   -0.6131   -0.3236    0.3832 C   0  0  1  0  0  0  0  0  0  0  0  0
    0.1346   -0.9625   -0.0894 H   0  0  0  0  0  0  0  0  0  0  0  0
   -0.7253    0.9751   -0.4365 C   0  0  0  0  0  0  0  0  0  0  0  0
   -1.0301    1.7852    0.2294 H   0  0  0  0  0  0  0  0  0  0  0  0
    0.2524    1.2243   -0.8513 H   0  0  0  0  0  0  0  0  0  0  0  0
   -1.7372    0.8888   -1.5849 C   0  0  0  0  0  0  0  0  0  0  0  0
   -1.9970   -0.1556   -1.7546 H   0  0  0  0  0  0  0  0  0  0  0  0
   -2.6385    1.4324   -1.2992 H   0  0  0  0  0  0  0  0  0  0  0  0
   -1.1253    1.5762   -3.1446 S   0  0  0  0  0  0  0  0  0  0  0  0
   -1.0706    3.3336   -2.7082 C   0  0  0  0  0  0  0  0  0  0  0  0
   -0.3926    3.4827   -1.8674 H   0  0  0  0  0  0  0  0  0  0  0  0
   -0.7133    3.9075   -3.5636 H   0  0  0  0  0  0  0  0  0  0  0  0
   -2.0697    3.6768   -2.4381 H   0  0  0  0  0  0  0  0  0  0  0  0
   -0.1711   -0.0594    1.8296 C   0  0  0  0  0  0  0  0  0  0  0  0
    0.9865   -0.2908    2.1726 O   0  0  0  0  0  0  0  0  0  0  0  0
   -1.0921    0.4156    2.6780 N   0  0  0  0  0  0  0  0  0  0  0  0
   -2.0168    0.5953    2.3206 H   0  0  0  0  0  0  0  0  0  0  0  0
   -0.8319    0.7034    4.0877 C   0  0  0  0  0  0  0  0  0  0  0  0
   -0.0192    1.4288    4.1710 H   0  0  0  0  0  0  0  0  0  0  0  0
   -1.7255    1.1088    4.5641 H   0  0  0  0  0  0  0  0  0  0  0  0
   -0.5319   -0.2118    4.6011 H   0  0  0  0  0  0  0  0  0  0  0  0
  5  6  2  0  0  0  0
  5  7  1  0  0  0  0
  2  3  1  0  0  0  0
  2  4  1  0  0  0  0
  2  5  1  0  0  0  0
  1  2  1  0  0  0  0
 22 23  2  0  0  0  0
 22 24  1  0  0  0  0
 18 19  1  0  0  0  0
 18 20  1  0  0  0  0
 18 21  1  0  0  0  0
 17 18  1  0  0  0  0
 14 15  1  0  0  0  0
 14 16  1  0  0  0  0
 14 17  1  0  0  0  0
 11 12  1  0  0  0  0
 11 13  1  0  0  0  0
 11 14  1  0  0  0  0
  9 10  1  0  0  0  0
  9 11  1  0  0  0  0
  9 22  1  0  0  0  0
  7  8  1  0  0  0  0
  7  9  1  0  0  0  0
 26 27  1  0  0  0  0
 26 28  1  0  0  0  0
 26 29  1  0  0  0  0
 24 25  1  0  0  0  0
 24 26  1  0  0  0  0
M  END
$$$$
default_name
  -OEChem-02102213163D

 29 28  0     1  0  0  0  0  0999 V2000
   -3.5781   -3.7296    1.2702 H   0  0  0  0  0  0  0  0  0  0  0  0
   -3.5311   -2.7616    0.7732 C   0  0  0  0  0  0  0  0  0  0  0  0
   -4.2371   -2.0766    1.2382 H   0  0  0  0  0  0  0  0  0  0  0  0
   -3.7681   -2.8816   -0.2818 H   0  0  0  0  0  0  0  0  0  0  0  0
   -2.1321   -2.2086    0.9112 C   0  0  0  0  0  0  0  0  0  0  0  0
   -1.2751   -2.8426    1.5112 O   0  0  0  0  0  0  0  0  0  0  0  0
   -1.9041   -1.0186    0.3602 N   0  0  0  0  0  0  0  0  0  0  0  0
   -2.6671   -0.5416   -0.0988 H   0  0  0  0  0  0  0  0  0  0  0  0
   -0.6131   -0.3236    0.3832 C   0  0  1  0  0  0  0  0  0  0  0  0
    0.1346   -0.9625   -0.0894 H   0  0  0  0  0  0  0  0  0  0  0  0
   -0.7253    0.9751   -0.4365 C   0  0  0  0  0  0  0  0  0  0  0  0
   -1.0301    1.7852    0.2294 H   0  0  0  0  0  0  0  0  0  0  0  0
    0.2524    1.2243   -0.8513 H   0  0  0  0  0  0  0  0  0  0  0  0
   -1.7372    0.8888   -1.5849 C   0  0  0  0  0  0  0  0  0  0  0  0
   -2.1962   -0.0993   -1.5833 H   0  0  0  0  0  0  0  0  0  0  0  0
   -2.5144    1.6368   -1.4238 H   0  0  0  0  0  0  0  0  0  0  0  0
   -1.0065    1.1663   -3.2185 S   0  0  0  0  0  0  0  0  0  0  0  0
   -0.6089    2.9287   -3.0846 C   0  0  0  0  0  0  0  0  0  0  0  0
    0.0871    3.0870   -2.2603 H   0  0  0  0  0  0  0  0  0  0  0  0
   -0.1484    3.2669   -4.0133 H   0  0  0  0  0  0  0  0  0  0  0  0
   -1.5212    3.4992   -2.9081 H   0  0  0  0  0  0  0  0  0  0  0  0
   -0.1711   -0.0594    1.8296 C   0  0  0  0  0  0  0  0  0  0  0  0
    0.9865   -0.2908    2.1726 O   0  0  0  0  0  0  0  0  0  0  0  0
   -1.0921    0.4156    2.6780 N   0  0  0  0  0  0  0  0  0  0  0  0
   -2.0168    0.5953    2.3206 H   0  0  0  0  0  0  0  0  0  0  0  0
   -0.8319    0.7034    4.0877 C   0  0  0  0  0  0  0  0  0  0  0  0
   -0.0192    1.4288    4.1710 H   0  0  0  0  0  0  0  0  0  0  0  0
   -1.7255    1.1088    4.5641 H   0  0  0  0  0  0  0  0  0  0  0  0
   -0.5319   -0.2118    4.6011 H   0  0  0  0  0  0  0  0  0  0  0  0
  5  6  2  0  0  0  0
  5  7  1  0  0  0  0
  2  3  1  0  0  0  0
  2  4  1  0  0  0  0
  2  5  1  0  0  0  0
  1  2  1  0  0  0  0
 22 23  2  0  0  0  0
 22 24  1  0  0  0  0
 18 19  1  0  0  0  0
 18 20  1  0  0  0  0
 18 21  1  0  0  0  0
 17 18  1  0  0  0  0
 14 15  1  0  0  0  0
 14 16  1  0  0  0  0
 14 17  1  0  0  0  0
 11 12  1  0  0  0  0
 11 13  1  0  0  0  0
 11 14  1  0  0  0  0
  9 10  1  0  0  0  0
  9 11  1  0  0  0  0
  9 22  1  0  0  0  0
  7  8  1  0  0  0  0
  7  9  1  0  0  0  0
 26 27  1  0  0  0  0
 26 28  1  0  0  0  0
 26 29  1  0  0  0  0
 24 25  1  0  0  0  0
 24 26  1  0  0  0  0
M  END
$$$$
default_name
  -OEChem-02102213163D

 29 28  0     1  0  0  0  0  0999 V2000
   -3.5781   -3.7296    1.2702 H   0  0  0  0  0  0  0  0  0  0  0  0
   -3.5311   -2.7616    0.7732 C   0  0  0  0  0  0  0  0  0  0  0  0
   -4.2371   -2.0766    1.2382 H   0  0  0  0  0  0  0  0  0  0  0  0
   -3.7681   -2.8816   -0.2818 H   0  0  0  0  0  0  0  0  0  0  0  0
   -2.1321   -2.2086    0.9112 C   0  0  0  0  0  0  0  0  0  0  0  0
   -1.2751   -2.8426    1.5112 O   0  0  0  0  0  0  0  0  0  0  0  0
   -1.9041   -1.0186    0.3602 N   0  0  0  0  0  0  0  0  0  0  0  0
   -2.6671   -0.5416   -0.0988 H   0  0  0  0  0  0  0  0  0  0  0  0
   -0.6131   -0.3236    0.3832 C   0  0  1  0  0  0  0  0  0  0  0  0
    0.1346   -0.9625   -0.0894 H   0  0  0  0  0  0  0  0  0  0  0  0
   -0.7253    0.9751   -0.4365 C   0  0  0  0  0  0  0  0  0  0  0  0
   -1.0301    1.7852    0.2294 H   0  0  0  0  0  0  0  0  0  0  0  0
    0.2524    1.2243   -0.8513 H   0  0  0  0  0  0  0  0  0  0  0  0
   -1.7372    0.8888   -1.5849 C   0  0  0  0  0  0  0  0  0  0  0  0
   -2.3802    0.0229   -1.4304 H   0  0  0  0  0  0  0  0  0  0  0  0
   -2.3531    1.7888   -1.5774 H   0  0  0  0  0  0  0  0  0  0  0  0
   -0.9701    0.7348   -3.2182 S   0  0  0  0  0  0  0  0  0  0  0  0
   -0.2360    2.3837   -3.3723 C   0  0  0  0  0  0  0  0  0  0  0  0
    0.4794    2.5445   -2.5653 H   0  0  0  0  0  0  0  0  0  0  0  0
    0.2796    2.4617   -4.3299 H   0  0  0  0  0  0  0  0  0  0  0  0
   -1.0190    3.1410   -3.3237 H   0  0  0  0  0  0  0  0  0  0  0  0
   -0.1711   -0.0594    1.8296 C   0  0  0  0  0  0  0  0  0  0  0  0
    0.9865   -0.2908    2.1726 O   0  0  0  0  0  0  0  0  0  0  0  0
   -1.0921    0.4156    2.6780 N   0  0  0  0  0  0  0  0  0  0  0  0
   -2.0168    0.5953    2.3206 H   0  0  0  0  0  0  0  0  0  0  0  0
   -0.8319    0.7034    4.0877 C   0  0  0  0  0  0  0  0  0  0  0  0
   -0.0192    1.4288    4.1710 H   0  0  0  0  0  0  0  0  0  0  0  0
   -1.7255    1.1088    4.5641 H   0  0  0  0  0  0  0  0  0  0  0  0
   -0.5319   -0.2118    4.6011 H   0  0  0  0  0  0  0  0  0  0  0  0
  5  6  2  0  0  0  0
  5  7  1  0  0  0  0
  2  3  1  0  0  0  0
  2  4  1  0  0  0  0
  2  5  1  0  0  0  0
  1  2  1  0  0  0  0
 22 23  2  0  0  0  0
 22 24  1  0  0  0  0
 18 19  1  0  0  0  0
 18 20  1  0  0  0  0
 18 21  1  0  0  0  0
 17 18  1  0  0  0  0
 14 15  1  0  0  0  0
 14 16  1  0  0  0  0
 14 17  1  0  0  0  0
 11 12  1  0  0  0  0
 11 13  1  0  0  0  0
 11 14  1  0  0  0  0
  9 10  1  0  0  0  0
  9 11  1  0  0  0  0
  9 22  1  0  0  0  0
  7  8  1  0  0  0  0
  7  9  1  0  0  0  0
 26 27  1  0  0  0  0
 26 28  1  0  0  0  0
 26 29  1  0  0  0  0
 24 25  1  0  0  0  0
 24 26  1  0  0  0  0
M  END
$$$$
default_name
  -OEChem-02102213163D

 29 28  0     1  0  0  0  0  0999 V2000
   -3.5781   -3.7296    1.2702 H   0  0  0  0  0  0  0  0  0  0  0  0
   -3.5311   -2.7616    0.7732 C   0  0  0  0  0  0  0  0  0  0  0  0
   -4.2371   -2.0766    1.2382 H   0  0  0  0  0  0  0  0  0  0  0  0
   -3.7681   -2.8816   -0.2818 H   0  0  0  0  0  0  0  0  0  0  0  0
   -2.1321   -2.2086    0.9112 C   0  0  0  0  0  0  0  0  0  0  0  0
   -1.2751   -2.8426    1.5112 O   0  0  0  0  0  0  0  0  0  0  0  0
   -1.9041   -1.0186    0.3602 N   0  0  0  0  0  0  0  0  0  0  0  0
   -2.6671   -0.5416   -0.0988 H   0  0  0  0  0  0  0  0  0  0  0  0
   -0.6131   -0.3236    0.3832 C   0  0  1  0  0  0  0  0  0  0  0  0
    0.1346   -0.9625   -0.0894 H   0  0  0  0  0  0  0  0  0  0  0  0
   -0.7253    0.9751   -0.4365 C   0  0  0  0  0  0  0  0  0  0  0  0
   -1.0301    1.7852    0.2294 H   0  0  0  0  0  0  0  0  0  0  0  0
    0.2524    1.2243   -0.8513 H   0  0  0  0  0  0  0  0  0  0  0  0
   -1.7372    0.8888   -1.5849 C   0  0  0  0  0  0  0  0  0  0  0  0
   -2.5365    0.2028   -1.3062 H   0  0  0  0  0  0  0  0  0  0  0  0
   -2.1656    1.8782   -1.7493 H   0  0  0  0  0  0  0  0  0  0  0  0
   -1.0187    0.3109   -3.1435 S   0  0  0  0  0  0  0  0  0  0  0  0
    0.0228    1.7358   -3.5517 C   0  0  0  0  0  0  0  0  0  0  0  0
    0.7577    1.8925   -2.7615 H   0  0  0  0  0  0  0  0  0  0  0  0
    0.5415    1.5470   -4.4920 H   0  0  0  0  0  0  0  0  0  0  0  0
   -0.5972    2.6266   -3.6567 H   0  0  0  0  0  0  0  0  0  0  0  0
   -0.1711   -0.0594    1.8296 C   0  0  0  0  0  0  0  0  0  0  0  0
    0.9865   -0.2908    2.1726 O   0  0  0  0  0  0  0  0  0  0  0  0
   -1.0921    0.4156    2.6780 N   0  0  0  0  0  0  0  0  0  0  0  0
   -2.0168    0.5953    2.3206 H   0  0  0  0  0  0  0  0  0  0  0  0
   -0.8319    0.7034    4.0877 C   0  0  0  0  0  0  0  0  0  0  0  0
   -0.0192    1.4288    4.1710 H   0  0  0  0  0  0  0  0  0  0  0  0
   -1.7255    1.1088    4.5641 H   0  0  0  0  0  0  0  0  0  0  0  0
   -0.5319   -0.2118    4.6011 H   0  0  0  0  0  0  0  0  0  0  0  0
  5  6  2  0  0  0  0
  5  7  1  0  0  0  0
  2  3  1  0  0  0  0
  2  4  1  0  0  0  0
  2  5  1  0  0  0  0
  1  2  1  0  0  0  0
 22 23  2  0  0  0  0
 22 24  1  0  0  0  0
 18 19  1  0  0  0  0
 18 20  1  0  0  0  0
 18 21  1  0  0  0  0
 17 18  1  0  0  0  0
 14 15  1  0  0  0  0
 14 16  1  0  0  0  0
 14 17  1  0  0  0  0
 11 12  1  0  0  0  0
 11 13  1  0  0  0  0
 11 14  1  0  0  0  0
  9 10  1  0  0  0  0
  9 11  1  0  0  0  0
  9 22  1  0  0  0  0
  7  8  1  0  0  0  0
  7  9  1  0  0  0  0
 26 27  1  0  0  0  0
 26 28  1  0  0  0  0
 26 29  1  0  0  0  0
 24 25  1  0  0  0  0
 24 26  1  0  0  0  0
M  END
$$$$
default_name
  -OEChem-02102213163D

 29 28  0     1  0  0  0  0  0999 V2000
   -3.5781   -3.7296    1.2702 H   0  0  0  0  0  0  0  0  0  0  0  0
   -3.5311   -2.7616    0.7732 C   0  0  0  0  0  0  0  0  0  0  0  0
   -4.2371   -2.0766    1.2382 H   0  0  0  0  0  0  0  0  0  0  0  0
   -3.7681   -2.8816   -0.2818 H   0  0  0  0  0  0  0  0  0  0  0  0
   -2.1321   -2.2086    0.9112 C   0  0  0  0  0  0  0  0  0  0  0  0
   -1.2751   -2.8426    1.5112 O   0  0  0  0  0  0  0  0  0  0  0  0
   -1.9041   -1.0186    0.3602 N   0  0  0  0  0  0  0  0  0  0  0  0
   -2.6671   -0.5416   -0.0988 H   0  0  0  0  0  0  0  0  0  0  0  0
   -0.6131   -0.3236    0.3832 C   0  0  1  0  0  0  0  0  0  0  0  0
    0.1346   -0.9625   -0.0894 H   0  0  0  0  0  0  0  0  0  0  0  0
   -0.7253    0.9751   -0.4365 C   0  0  0  0  0  0  0  0  0  0  0  0
   -1.0301    1.7852    0.2294 H   0  0  0  0  0  0  0  0  0  0  0  0
    0.2524    1.2243   -0.8513 H   0  0  0  0  0  0  0  0  0  0  0  0
   -1.7372    0.8888   -1.5849 C   0  0  0  0  0  0  0  0  0  0  0  0
   -2.6544    0.4281   -1.2193 H   0  0  0  0  0  0  0  0  0  0  0  0
   -1.9647    1.8988   -1.9279 H   0  0  0  0  0  0  0  0  0  0  0  0
   -1.1488   -0.0764   -2.9998 S   0  0  0  0  0  0  0  0  0  0  0  0
    0.1498    1.0293   -3.6105 C   0  0  0  0  0  0  0  0  0  0  0  0
    0.9029    1.1751   -2.8355 H   0  0  0  0  0  0  0  0  0  0  0  0
    0.6194    0.5849   -4.4884 H   0  0  0  0  0  0  0  0  0  0  0  0
   -0.2848    1.9911   -3.8843 H   0  0  0  0  0  0  0  0  0  0  0  0
   -0.1711   -0.0594    1.8296 C   0  0  0  0  0  0  0  0  0  0  0  0
    0.9865   -0.2908    2.1726 O   0  0  0  0  0  0  0  0  0  0  0  0
   -1.0921    0.4156    2.6780 N   0  0  0  0  0  0  0  0  0  0  0  0
   -2.0168    0.5953    2.3206 H   0  0  0  0  0  0  0  0  0  0  0  0
   -0.8319    0.7034    4.0877 C   0  0  0  0  0  0  0  0  0  0  0  0
   -0.0192    1.4288    4.1710 H   0  0  0  0  0  0  0  0  0  0  0  0
   -1.7255    1.1088    4.5641 H   0  0  0  0  0  0  0  0  0  0  0  0
   -0.5319   -0.2118    4.6011 H   0  0  0  0  0  0  0  0  0  0  0  0
  5  6  2  0  0  0  0
  5  7  1  0  0  0  0
  2  3  1  0  0  0  0
  2  4  1  0  0  0  0
  2  5  1  0  0  0  0
  1  2  1  0  0  0  0
 22 23  2  0  0  0  0
 22 24  1  0  0  0  0
 18 19  1  0  0  0  0
 18 20  1  0  0  0  0
 18 21  1  0  0  0  0
 17 18  1  0  0  0  0
 14 15  1  0  0  0  0
 14 16  1  0  0  0  0
 14 17  1  0  0  0  0
 11 12  1  0  0  0  0
 11 13  1  0  0  0  0
 11 14  1  0  0  0  0
  9 10  1  0  0  0  0
  9 11  1  0  0  0  0
  9 22  1  0  0  0  0
  7  8  1  0  0  0  0
  7  9  1  0  0  0  0
 26 27  1  0  0  0  0
 26 28  1  0  0  0  0
 26 29  1  0  0  0  0
 24 25  1  0  0  0  0
 24 26  1  0  0  0  0
M  END
$$$$
default_name
  -OEChem-02102213163D

 29 28  0     1  0  0  0  0  0999 V2000
   -3.5781   -3.7296    1.2702 H   0  0  0  0  0  0  0  0  0  0  0  0
   -3.5311   -2.7616    0.7732 C   0  0  0  0  0  0  0  0  0  0  0  0
   -4.2371   -2.0766    1.2382 H   0  0  0  0  0  0  0  0  0  0  0  0
   -3.7681   -2.8816   -0.2818 H   0  0  0  0  0  0  0  0  0  0  0  0
   -2.1321   -2.2086    0.9112 C   0  0  0  0  0  0  0  0  0  0  0  0
   -1.2751   -2.8426    1.5112 O   0  0  0  0  0  0  0  0  0  0  0  0
   -1.9041   -1.0186    0.3602 N   0  0  0  0  0  0  0  0  0  0  0  0
   -2.6671   -0.5416   -0.0988 H   0  0  0  0  0  0  0  0  0  0  0  0
   -0.6131   -0.3236    0.3832 C   0  0  1  0  0  0  0  0  0  0  0  0
    0.1346   -0.9625   -0.0894 H   0  0  0  0  0  0  0  0  0  0  0  0
   -0.7253    0.9751   -0.4365 C   0  0  0  0  0  0  0  0  0  0  0  0
   -1.0301    1.7852    0.2294 H   0  0  0  0  0  0  0  0  0  0  0  0
    0.2524    1.2243   -0.8513 H   0  0  0  0  0  0  0  0  0  0  0  0
   -1.7372    0.8888   -1.5849 C   0  0  0  0  0  0  0  0  0  0  0  0
   -2.7258    0.6834   -1.1755 H   0  0  0  0  0  0  0  0  0  0  0  0
   -1.7640    1.8492   -2.1010 H   0  0  0  0  0  0  0  0  0  0  0  0
   -1.3517   -0.4007   -2.7966 S   0  0  0  0  0  0  0  0  0  0  0  0
    0.1363    0.3121   -3.5447 C   0  0  0  0  0  0  0  0  0  0  0  0
    0.9051    0.4414   -2.7824 H   0  0  0  0  0  0  0  0  0  0  0  0
    0.5082   -0.3589   -4.3195 H   0  0  0  0  0  0  0  0  0  0  0  0
   -0.1028    1.2777   -3.9910 H   0  0  0  0  0  0  0  0  0  0  0  0
   -0.1711   -0.0594    1.8296 C   0  0  0  0  0  0  0  0  0  0  0  0
    0.9865   -0.2908    2.1726 O   0  0  0  0  0  0  0  0  0  0  0  0
   -1.0921    0.4156    2.6780 N   0  0  0  0  0  0  0  0  0  0  0  0
   -2.0168    0.5953    2.3206 H   0  0  0  0  0  0  0  0  0  0  0  0
   -0.8319    0.7034    4.0877 C   0  0  0  0  0  0  0  0  0  0  0  0
   -0.0192    1.4288    4.1710 H   0  0  0  0  0  0  0  0  0  0  0  0
   -1.7255    1.1088    4.5641 H   0  0  0  0  0  0  0  0  0  0  0  0
   -0.5319   -0.2118    4.6011 H   0  0  0  0  0  0  0  0  0  0  0  0
  5  6  2  0  0  0  0
  5  7  1  0  0  0  0
  2  3  1  0  0  0  0
  2  4  1  0  0  0  0
  2  5  1  0  0  0  0
  1  2  1  0  0  0  0
 22 23  2  0  0  0  0
 22 24  1  0  0  0  0
 18 19  1  0  0  0  0
 18 20  1  0  0  0  0
 18 21  1  0  0  0  0
 17 18  1  0  0  0  0
 14 15  1  0  0  0  0
 14 16  1  0  0  0  0
 14 17  1  0  0  0  0
 11 12  1  0  0  0  0
 11 13  1  0  0  0  0
 11 14  1  0  0  0  0
  9 10  1  0  0  0  0
  9 11  1  0  0  0  0
  9 22  1  0  0  0  0
  7  8  1  0  0  0  0
  7  9  1  0  0  0  0
 26 27  1  0  0  0  0
 26 28  1  0  0  0  0
 26 29  1  0  0  0  0
 24 25  1  0  0  0  0
 24 26  1  0  0  0  0
M  END
$$$$
default_name
  -OEChem-02102213163D

 29 28  0     1  0  0  0  0  0999 V2000
   -3.5781   -3.7296    1.2702 H   0  0  0  0  0  0  0  0  0  0  0  0
   -3.5311   -2.7616    0.7732 C   0  0  0  0  0  0  0  0  0  0  0  0
   -4.2371   -2.0766    1.2382 H   0  0  0  0  0  0  0  0  0  0  0  0
   -3.7681   -2.8816   -0.2818 H   0  0  0  0  0  0  0  0  0  0  0  0
   -2.1321   -2.2086    0.9112 C   0  0  0  0  0  0  0  0  0  0  0  0
   -1.2751   -2.8426    1.5112 O   0  0  0  0  0  0  0  0  0  0  0  0
   -1.9041   -1.0186    0.3602 N   0  0  0  0  0  0  0  0  0  0  0  0
   -2.6671   -0.5416   -0.0988 H   0  0  0  0  0  0  0  0  0  0  0  0
   -0.6131   -0.3236    0.3832 C   0  0  1  0  0  0  0  0  0  0  0  0
    0.1346   -0.9625   -0.0894 H   0  0  0  0  0  0  0  0  0  0  0  0
   -0.7253    0.9751   -0.4365 C   0  0  0  0  0  0  0  0  0  0  0  0
   -1.0301    1.7852    0.2294 H   0  0  0  0  0  0  0  0  0  0  0  0
    0.2524    1.2243   -0.8513 H   0  0  0  0  0  0  0  0  0  0  0  0
   -1.7372    0.8888   -1.5849 C   0  0  0  0  0  0  0  0  0  0  0  0
   -2.7459    0.9513   -1.1779 H   0  0  0  0  0  0  0  0  0  0  0  0
   -1.5773    1.7328   -2.2568 H   0  0  0  0  0  0  0  0  0  0  0  0
   -1.6136   -0.6399   -2.5480 S   0  0  0  0  0  0  0  0  0  0  0  0
   -0.0168   -0.3668   -3.3588 C   0  0  0  0  0  0  0  0  0  0  0  0
    0.7643   -0.2586   -2.6057 H   0  0  0  0  0  0  0  0  0  0  0  0
    0.2153   -1.2201   -3.9967 H   0  0  0  0  0  0  0  0  0  0  0  0
   -0.0639    0.5352   -3.9696 H   0  0  0  0  0  0  0  0  0  0  0  0
   -0.1711   -0.0594    1.8296 C   0  0  0  0  0  0  0  0  0  0  0  0
    0.9865   -0.2908    2.1726 O   0  0  0  0  0  0  0  0  0  0  0  0
   -1.0921    0.4156    2.6780 N   0  0  0  0  0  0  0  0  0  0  0  0
   -2.0168    0.5953    2.3206 H   0  0  0  0  0  0  0  0  0  0  0  0
   -0.8319    0.7034    4.0877 C   0  0  0  0  0  0  0  0  0  0  0  0
   -0.0192    1.4288    4.1710 H   0  0  0  0  0  0  0  0  0  0  0  0
   -1.7255    1.1088    4.5641 H   0  0  0  0  0  0  0  0  0  0  0  0
   -0.5319   -0.2118    4.6011 H   0  0  0  0  0  0  0  0  0  0  0  0
  5  6  2  0  0  0  0
  5  7  1  0  0  0  0
  2  3  1  0  0  0  0
  2  4  1  0  0  0  0
  2  5  1  0  0  0  0
  1  2  1  0  0  0  0
 22 23  2  0  0  0  0
 22 24  1  0  0  0  0
 18 19  1  0  0  0  0
 18 20  1  0  0  0  0
 18 21  1  0  0  0  0
 17 18  1  0  0  0  0
 14 15  1  0  0  0  0
 14 16  1  0  0  0  0
 14 17  1  0  0  0  0
 11 12  1  0  0  0  0
 11 13  1  0  0  0  0
 11 14  1  0  0  0  0
  9 10  1  0  0  0  0
  9 11  1  0  0  0  0
  9 22  1  0  0  0  0
  7  8  1  0  0  0  0
  7  9  1  0  0  0  0
 26 27  1  0  0  0  0
 26 28  1  0  0  0  0
 26 29  1  0  0  0  0
 24 25  1  0  0  0  0
 24 26  1  0  0  0  0
M  END
$$$$
default_name
  -OEChem-02102213163D

 29 28  0     1  0  0  0  0  0999 V2000
   -3.5781   -3.7296    1.2702 H   0  0  0  0  0  0  0  0  0  0  0  0
   -3.5311   -2.7616    0.7732 C   0  0  0  0  0  0  0  0  0  0  0  0
   -4.2371   -2.0766    1.2382 H   0  0  0  0  0  0  0  0  0  0  0  0
   -3.7681   -2.8816   -0.2818 H   0  0  0  0  0  0  0  0  0  0  0  0
   -2.1321   -2.2086    0.9112 C   0  0  0  0  0  0  0  0  0  0  0  0
   -1.2751   -2.8426    1.5112 O   0  0  0  0  0  0  0  0  0  0  0  0
   -1.9041   -1.0186    0.3602 N   0  0  0  0  0  0  0  0  0  0  0  0
   -2.6671   -0.5416   -0.0988 H   0  0  0  0  0  0  0  0  0  0  0  0
   -0.6131   -0.3236    0.3832 C   0  0  1  0  0  0  0  0  0  0  0  0
    0.1346   -0.9625   -0.0894 H   0  0  0  0  0  0  0  0  0  0  0  0
   -0.7253    0.9751   -0.4365 C   0  0  0  0  0  0  0  0  0  0  0  0
   -1.0301    1.7852    0.2294 H   0  0  0  0  0  0  0  0  0  0  0  0
    0.2524    1.2243   -0.8513 H   0  0  0  0  0  0  0  0  0  0  0  0
   -1.7372    0.8888   -1.5849 C   0  0  0  0  0  0  0  0  0  0  0  0
   -2.7134    1.2136   -1.2262 H   0  0  0  0  0  0  0  0  0  0  0  0
   -1.4172    1.5576   -2.3847 H   0  0  0  0  0  0  0  0  0  0  0  0
   -1.9165   -0.7777   -2.2707 S   0  0  0  0  0  0  0  0  0  0  0  0
   -0.2990   -0.9611   -3.0656 C   0  0  0  0  0  0  0  0  0  0  0  0
    0.4899   -0.8774   -2.3175 H   0  0  0  0  0  0  0  0  0  0  0  0
   -0.2394   -1.9400   -3.5421 H   0  0  0  0  0  0  0  0  0  0  0  0
   -0.1705   -0.1859   -3.8214 H   0  0  0  0  0  0  0  0  0  0  0  0
   -0.1711   -0.0594    1.8296 C   0  0  0  0  0  0  0  0  0  0  0  0
    0.9865   -0.2908    2.1726 O   0  0  0  0  0  0  0  0  0  0  0  0
   -1.0921    0.4156    2.6780 N   0  0  0  0  0  0  0  0  0  0  0  0
   -2.0168    0.5953    2.3206 H   0  0  0  0  0  0  0  0  0  0  0  0
   -0.8319    0.7034    4.0877 C   0  0  0  0  0  0  0  0  0  0  0  0
   -0.0192    1.4288    4.1710 H   0  0  0  0  0  0  0  0  0  0  0  0
   -1.7255    1.1088    4.5641 H   0  0  0  0  0  0  0  0  0  0  0  0
   -0.5319   -0.2118    4.6011 H   0  0  0  0  0  0  0  0  0  0  0  0
  5  6  2  0  0  0  0
  5  7  1  0  0  0  0
  2  3  1  0  0  0  0
  2  4  1  0  0  0  0
  2  5  1  0  0  0  0
  1  2  1  0  0  0  0
 22 23  2  0  0  0  0
 22 24  1  0  0  0  0
 18 19  1  0  0  0  0
 18 20  1  0  0  0  0
 18 21  1  0  0  0  0
 17 18  1  0  0  0  0
 14 15  1  0  0  0  0
 14 16  1  0  0  0  0
 14 17  1  0  0  0  0
 11 12  1  0  0  0  0
 11 13  1  0  0  0  0
 11 14  1  0  0  0  0
  9 10  1  0  0  0  0
  9 11  1  0  0  0  0
  9 22  1  0  0  0  0
  7  8  1  0  0  0  0
  7  9  1  0  0  0  0
 26 27  1  0  0  0  0
 26 28  1  0  0  0  0
 26 29  1  0  0  0  0
 24 25  1  0  0  0  0
 24 26  1  0  0  0  0
M  END
$$$$
default_name
  -OEChem-02102213163D

 29 28  0     1  0  0  0  0  0999 V2000
   -3.5781   -3.7296    1.2702 H   0  0  0  0  0  0  0  0  0  0  0  0
   -3.5311   -2.7616    0.7732 C   0  0  0  0  0  0  0  0  0  0  0  0
   -4.2371   -2.0766    1.2382 H   0  0  0  0  0  0  0  0  0  0  0  0
   -3.7681   -2.8816   -0.2818 H   0  0  0  0  0  0  0  0  0  0  0  0
   -2.1321   -2.2086    0.9112 C   0  0  0  0  0  0  0  0  0  0  0  0
   -1.2751   -2.8426    1.5112 O   0  0  0  0  0  0  0  0  0  0  0  0
   -1.9041   -1.0186    0.3602 N   0  0  0  0  0  0  0  0  0  0  0  0
   -2.6671   -0.5416   -0.0988 H   0  0  0  0  0  0  0  0  0  0  0  0
   -0.6131   -0.3236    0.3832 C   0  0  1  0  0  0  0  0  0  0  0  0
    0.1346   -0.9625   -0.0894 H   0  0  0  0  0  0  0  0  0  0  0  0
   -0.7253    0.9751   -0.4365 C   0  0  0  0  0  0  0  0  0  0  0  0
   -1.0301    1.7852    0.2294 H   0  0  0  0  0  0  0  0  0  0  0  0
    0.2524    1.2243   -0.8513 H   0  0  0  0  0  0  0  0  0  0  0  0
   -1.7372    0.8888   -1.5849 C   0  0  0  0  0  0  0  0  0  0  0  0
   -2.6304    1.4524   -1.3173 H   0  0  0  0  0  0  0  0  0  0  0  0
   -1.2946    1.3355   -2.4760 H   0  0  0  0  0  0  0  0  0  0  0  0
   -2.2398   -0.8047   -1.9838 S   0  0  0  0  0  0  0  0  0  0  0  0
   -0.6910   -1.4304   -2.6849 C   0  0  0  0  0  0  0  0  0  0  0  0
    0.1008   -1.3726   -1.9374 H   0  0  0  0  0  0  0  0  0  0  0  0
   -0.8247   -2.4696   -2.9866 H   0  0  0  0  0  0  0  0  0  0  0  0
   -0.4155   -0.8364   -3.5567 H   0  0  0  0  0  0  0  0  0  0  0  0
   -0.1711   -0.0594    1.8296 C   0  0  0  0  0  0  0  0  0  0  0  0
    0.9865   -0.2908    2.1726 O   0  0  0  0  0  0  0  0  0  0  0  0
   -1.0921    0.4156    2.6780 N   0  0  0  0  0  0  0  0  0  0  0  0
   -2.0168    0.5953    2.3206 H   0  0  0  0  0  0  0  0  0  0  0  0
   -0.8319    0.7034    4.0877 C   0  0  0  0  0  0  0  0  0  0  0  0
   -0.0192    1.4288    4.1710 H   0  0  0  0  0  0  0  0  0  0  0  0
   -1.7255    1.1088    4.5641 H   0  0  0  0  0  0  0  0  0  0  0  0
   -0.5319   -0.2118    4.6011 H   0  0  0  0  0  0  0  0  0  0  0  0
  5  6  2  0  0  0  0
  5  7  1  0  0  0  0
  2  3  1  0  0  0  0
  2  4  1  0  0  0  0
  2  5  1  0  0  0  0
  1  2  1  0  0  0  0
 22 23  2  0  0  0  0
 22 24  1  0  0  0  0
 18 19  1  0  0  0  0
 18 20  1  0  0  0  0
 18 21  1  0  0  0  0
 17 18  1  0  0  0  0
 14 15  1  0  0  0  0
 14 16  1  0  0  0  0
 14 17  1  0  0  0  0
 11 12  1  0  0  0  0
 11 13  1  0  0  0  0
 11 14  1  0  0  0  0
  9 10  1  0  0  0  0
  9 11  1  0  0  0  0
  9 22  1  0  0  0  0
  7  8  1  0  0  0  0
  7  9  1  0  0  0  0
 26 27  1  0  0  0  0
 26 28  1  0  0  0  0
 26 29  1  0  0  0  0
 24 25  1  0  0  0  0
 24 26  1  0  0  0  0
M  END
$$$$
default_name
  -OEChem-02102213163D

 29 28  0     1  0  0  0  0  0999 V2000
   -3.5781   -3.7296    1.2702 H   0  0  0  0  0  0  0  0  0  0  0  0
   -3.5311   -2.7616    0.7732 C   0  0  0  0  0  0  0  0  0  0  0  0
   -4.2371   -2.0766    1.2382 H   0  0  0  0  0  0  0  0  0  0  0  0
   -3.7681   -2.8816   -0.2818 H   0  0  0  0  0  0  0  0  0  0  0  0
   -2.1321   -2.2086    0.9112 C   0  0  0  0  0  0  0  0  0  0  0  0
   -1.2751   -2.8426    1.5112 O   0  0  0  0  0  0  0  0  0  0  0  0
   -1.9041   -1.0186    0.3602 N   0  0  0  0  0  0  0  0  0  0  0  0
   -2.6671   -0.5416   -0.0988 H   0  0  0  0  0  0  0  0  0  0  0  0
   -0.6131   -0.3236    0.3832 C   0  0  1  0  0  0  0  0  0  0  0  0
    0.1346   -0.9625   -0.0894 H   0  0  0  0  0  0  0  0  0  0  0  0
   -0.7253    0.9751   -0.4365 C   0  0  0  0  0  0  0  0  0  0  0  0
   -1.0301    1.7852    0.2294 H   0  0  0  0  0  0  0  0  0  0  0  0
    0.2524    1.2243   -0.8513 H   0  0  0  0  0  0  0  0  0  0  0  0
   -1.7372    0.8888   -1.5849 C   0  0  0  0  0  0  0  0  0  0  0  0
   -2.5027    1.6514   -1.4448 H   0  0  0  0  0  0  0  0  0  0  0  0
   -1.2180    1.0815   -2.5244 H   0  0  0  0  0  0  0  0  0  0  0  0
   -2.5615   -0.7191   -1.7067 S   0  0  0  0  0  0  0  0  0  0  0  0
   -1.1662   -1.7426   -2.2427 C   0  0  0  0  0  0  0  0  0  0  0  0
   -0.3767   -1.7105   -1.4913 H   0  0  0  0  0  0  0  0  0  0  0  0
   -1.5008   -2.7728   -2.3680 H   0  0  0  0  0  0  0  0  0  0  0  0
   -0.7821   -1.3721   -3.1935 H   0  0  0  0  0  0  0  0  0  0  0  0
   -0.1711   -0.0594    1.8296 C   0  0  0  0  0  0  0  0  0  0  0  0
    0.9865   -0.2908    2.1726 O   0  0  0  0  0  0  0  0  0  0  0  0
   -1.0921    0.4156    2.6780 N   0  0  0  0  0  0  0  0  0  0  0  0
   -2.0168    0.5953    2.3206 H   0  0  0  0  0  0  0  0  0  0  0  0
   -0.8319    0.7034    4.0877 C   0  0  0  0  0  0  0  0  0  0  0  0
   -0.0192    1.4288    4.1710 H   0  0  0  0  0  0  0  0  0  0  0  0
   -1.7255    1.1088    4.5641 H   0  0  0  0  0  0  0  0  0  0  0  0
   -0.5319   -0.2118    4.6011 H   0  0  0  0  0  0  0  0  0  0  0  0
  5  6  2  0  0  0  0
  5  7  1  0  0  0  0
  2  3  1  0  0  0  0
  2  4  1  0  0  0  0
  2  5  1  0  0  0  0
  1  2  1  0  0  0  0
 22 23  2  0  0  0  0
 22 24  1  0  0  0  0
 18 19  1  0  0  0  0
 18 20  1  0  0  0  0
 18 21  1  0  0  0  0
 17 18  1  0  0  0  0
 14 15  1  0  0  0  0
 14 16  1  0  0  0  0
 14 17  1  0  0  0  0
 11 12  1  0  0  0  0
 11 13  1  0  0  0  0
 11 14  1  0  0  0  0
  9 10  1  0  0  0  0
  9 11  1  0  0  0  0
  9 22  1  0  0  0  0
  7  8  1  0  0  0  0
  7  9  1  0  0  0  0
 26 27  1  0  0  0  0
 26 28  1  0  0  0  0
 26 29  1  0  0  0  0
 24 25  1  0  0  0  0
 24 26  1  0  0  0  0
M  END
$$$$
default_name
  -OEChem-02102213163D

 29 28  0     1  0  0  0  0  0999 V2000
   -3.5781   -3.7296    1.2702 H   0  0  0  0  0  0  0  0  0  0  0  0
   -3.5311   -2.7616    0.7732 C   0  0  0  0  0  0  0  0  0  0  0  0
   -4.2371   -2.0766    1.2382 H   0  0  0  0  0  0  0  0  0  0  0  0
   -3.7681   -2.8816   -0.2818 H   0  0  0  0  0  0  0  0  0  0  0  0
   -2.1321   -2.2086    0.9112 C   0  0  0  0  0  0  0  0  0  0  0  0
   -1.2751   -2.8426    1.5112 O   0  0  0  0  0  0  0  0  0  0  0  0
   -1.9041   -1.0186    0.3602 N   0  0  0  0  0  0  0  0  0  0  0  0
   -2.6671   -0.5416   -0.0988 H   0  0  0  0  0  0  0  0  0  0  0  0
   -0.6131   -0.3236    0.3832 C   0  0  1  0  0  0  0  0  0  0  0  0
    0.1346   -0.9625   -0.0894 H   0  0  0  0  0  0  0  0  0  0  0  0
   -0.7253    0.9751   -0.4365 C   0  0  0  0  0  0  0  0  0  0  0  0
   -1.0301    1.7852    0.2294 H   0  0  0  0  0  0  0  0  0  0  0  0
    0.2524    1.2243   -0.8513 H   0  0  0  0  0  0  0  0  0  0  0  0
   -1.7372    0.8888   -1.5849 C   0  0  0  0  0  0  0  0  0  0  0  0
   -2.3388    1.7971   -1.6001 H   0  0  0  0  0  0  0  0  0  0  0  0
   -1.1925    0.8131   -2.5267 H   0  0  0  0  0  0  0  0  0  0  0  0
   -2.8597   -0.5267   -1.4584 S   0  0  0  0  0  0  0  0  0  0  0  0
   -1.6922   -1.8766   -1.7692 C   0  0  0  0  0  0  0  0  0  0  0  0
   -0.9099   -1.8682   -1.0097 H   0  0  0  0  0  0  0  0  0  0  0  0
   -2.2217   -2.8289   -1.7286 H   0  0  0  0  0  0  0  0  0  0  0  0
   -1.2453   -1.7564   -2.7564 H   0  0  0  0  0  0  0  0  0  0  0  0
   -0.1711   -0.0594    1.8296 C   0  0  0  0  0  0  0  0  0  0  0  0
    0.9865   -0.2908    2.1726 O   0  0  0  0  0  0  0  0  0  0  0  0
   -1.0921    0.4156    2.6780 N   0  0  0  0  0  0  0  0  0  0  0  0
   -2.0168    0.5953    2.3206 H   0  0  0  0  0  0  0  0  0  0  0  0
   -0.8319    0.7034    4.0877 C   0  0  0  0  0  0  0  0  0  0  0  0
   -0.0192    1.4288    4.1710 H   0  0  0  0  0  0  0  0  0  0  0  0
   -1.7255    1.1088    4.5641 H   0  0  0  0  0  0  0  0  0  0  0  0
   -0.5319   -0.2118    4.6011 H   0  0  0  0  0  0  0  0  0  0  0  0
  5  6  2  0  0  0  0
  5  7  1  0  0  0  0
  2  3  1  0  0  0  0
  2  4  1  0  0  0  0
  2  5  1  0  0  0  0
  1  2  1  0  0  0  0
 22 23  2  0  0  0  0
 22 24  1  0  0  0  0
 18 19  1  0  0  0  0
 18 20  1  0  0  0  0
 18 21  1  0  0  0  0
 17 18  1  0  0  0  0
 14 15  1  0  0  0  0
 14 16  1  0  0  0  0
 14 17  1  0  0  0  0
 11 12  1  0  0  0  0
 11 13  1  0  0  0  0
 11 14  1  0  0  0  0
  9 10  1  0  0  0  0
  9 11  1  0  0  0  0
  9 22  1  0  0  0  0
  7  8  1  0  0  0  0
  7  9  1  0  0  0  0
 26 27  1  0  0  0  0
 26 28  1  0  0  0  0
 26 29  1  0  0  0  0
 24 25  1  0  0  0  0
 24 26  1  0  0  0  0
M  END
$$$$
default_name
  -OEChem-02102213163D

 29 28  0     1  0  0  0  0  0999 V2000
   -3.5781   -3.7296    1.2702 H   0  0  0  0  0  0  0  0  0  0  0  0
   -3.5311   -2.7616    0.7732 C   0  0  0  0  0  0  0  0  0  0  0  0
   -4.2371   -2.0766    1.2382 H   0  0  0  0  0  0  0  0  0  0  0  0
   -3.7681   -2.8816   -0.2818 H   0  0  0  0  0  0  0  0  0  0  0  0
   -2.1321   -2.2086    0.9112 C   0  0  0  0  0  0  0  0  0  0  0  0
   -1.2751   -2.8426    1.5112 O   0  0  0  0  0  0  0  0  0  0  0  0
   -1.9041   -1.0186    0.3602 N   0  0  0  0  0  0  0  0  0  0  0  0
   -2.6671   -0.5416   -0.0988 H   0  0  0  0  0  0  0  0  0  0  0  0
   -0.6131   -0.3236    0.3832 C   0  0  1  0  0  0  0  0  0  0  0  0
    0.1346   -0.9625   -0.0894 H   0  0  0  0  0  0  0  0  0  0  0  0
   -0.7253    0.9751   -0.4365 C   0  0  0  0  0  0  0  0  0  0  0  0
   -1.0301    1.7852    0.2294 H   0  0  0  0  0  0  0  0  0  0  0  0
    0.2524    1.2243   -0.8513 H   0  0  0  0  0  0  0  0  0  0  0  0
   -1.7372    0.8888   -1.5849 C   0  0  0  0  0  0  0  0  0  0  0  0
   -2.1500    1.8795   -1.7727 H   0  0  0  0  0  0  0  0  0  0  0  0
   -1.2199    0.5485   -2.4827 H   0  0  0  0  0  0  0  0  0  0  0  0
   -3.1141   -0.2406   -1.2558 S   0  0  0  0  0  0  0  0  0  0  0  0
   -2.2332   -1.8230   -1.2966 C   0  0  0  0  0  0  0  0  0  0  0  0
   -1.4625   -1.8348   -0.5253 H   0  0  0  0  0  0  0  0  0  0  0  0
   -2.9382   -2.6340   -1.1119 H   0  0  0  0  0  0  0  0  0  0  0  0
   -1.7737   -1.9631   -2.2754 H   0  0  0  0  0  0  0  0  0  0  0  0
   -0.1711   -0.0594    1.8296 C   0  0  0  0  0  0  0  0  0  0  0  0
    0.9865   -0.2908    2.1726 O   0  0  0  0  0  0  0  0  0  0  0  0
   -1.0921    0.4156    2.6780 N   0  0  0  0  0  0  0  0  0  0  0  0
   -2.0168    0.5953    2.3206 H   0  0  0  0  0  0  0  0  0  0  0  0
   -0.8319    0.7034    4.0877 C   0  0  0  0  0  0  0  0  0  0  0  0
   -0.0192    1.4288    4.1710 H   0  0  0  0  0  0  0  0  0  0  0  0
   -1.7255    1.1088    4.5641 H   0  0  0  0  0  0  0  0  0  0  0  0
   -0.5319   -0.2118    4.6011 H   0  0  0  0  0  0  0  0  0  0  0  0
  5  6  2  0  0  0  0
  5  7  1  0  0  0  0
  2  3  1  0  0  0  0
  2  4  1  0  0  0  0
  2  5  1  0  0  0  0
  1  2  1  0  0  0  0
 22 23  2  0  0  0  0
 22 24  1  0  0  0  0
 18 19  1  0  0  0  0
 18 20  1  0  0  0  0
 18 21  1  0  0  0  0
 17 18  1  0  0  0  0
 14 15  1  0  0  0  0
 14 16  1  0  0  0  0
 14 17  1  0  0  0  0
 11 12  1  0  0  0  0
 11 13  1  0  0  0  0
 11 14  1  0  0  0  0
  9 10  1  0  0  0  0
  9 11  1  0  0  0  0
  9 22  1  0  0  0  0
  7  8  1  0  0  0  0
  7  9  1  0  0  0  0
 26 27  1  0  0  0  0
 26 28  1  0  0  0  0
 26 29  1  0  0  0  0
 24 25  1  0  0  0  0
 24 26  1  0  0  0  0
M  END
$$$$
default_name
  -OEChem-02102213163D

 29 28  0     1  0  0  0  0  0999 V2000
   -3.5781   -3.7296    1.2702 H   0  0  0  0  0  0  0  0  0  0  0  0
   -3.5311   -2.7616    0.7732 C   0  0  0  0  0  0  0  0  0  0  0  0
   -4.2371   -2.0766    1.2382 H   0  0  0  0  0  0  0  0  0  0  0  0
   -3.7681   -2.8816   -0.2818 H   0  0  0  0  0  0  0  0  0  0  0  0
   -2.1321   -2.2086    0.9112 C   0  0  0  0  0  0  0  0  0  0  0  0
   -1.2751   -2.8426    1.5112 O   0  0  0  0  0  0  0  0  0  0  0  0
   -1.9041   -1.0186    0.3602 N   0  0  0  0  0  0  0  0  0  0  0  0
   -2.6671   -0.5416   -0.0988 H   0  0  0  0  0  0  0  0  0  0  0  0
   -0.6131   -0.3236    0.3832 C   0  0  1  0  0  0  0  0  0  0  0  0
    0.1346   -0.9625   -0.0894 H   0  0  0  0  0  0  0  0  0  0  0  0
   -0.7253    0.9751   -0.4365 C   0  0  0  0  0  0  0  0  0  0  0  0
   -1.0301    1.7852    0.2294 H   0  0  0  0  0  0  0  0  0  0  0  0
    0.2524    1.2243   -0.8513 H   0  0  0  0  0  0  0  0  0  0  0  0
   -1.7372    0.8888   -1.5849 C   0  0  0  0  0  0  0  0  0  0  0  0
   -1.9492    1.8930   -1.9506 H   0  0  0  0  0  0  0  0  0  0  0  0
   -1.2983    0.3058   -2.3954 H   0  0  0  0  0  0  0  0  0  0  0  0
   -3.3073    0.1197   -1.1127 S   0  0  0  0  0  0  0  0  0  0  0  0
   -2.7522   -1.5857   -0.8571 C   0  0  0  0  0  0  0  0  0  0  0  0
   -1.9969   -1.6126   -0.0711 H   0  0  0  0  0  0  0  0  0  0  0  0
   -3.6015   -2.2015   -0.5600 H   0  0  0  0  0  0  0  0  0  0  0  0
   -2.3311   -1.9782   -1.7831 H   0  0  0  0  0  0  0  0  0  0  0  0
   -0.1711   -0.0594    1.8296 C   0  0  0  0  0  0  0  0  0  0  0  0
    0.9865   -0.2908    2.1726 O   0  0  0  0  0  0  0  0  0  0  0  0
   -1.0921    0.4156    2.6780 N   0  0  0  0  0  0  0  0  0  0  0  0
   -2.0168    0.5953    2.3206 H   0  0  0  0  0  0  0  0  0  0  0  0
   -0.8319    0.7034    4.0877 C   0  0  0  0  0  0  0  0  0  0  0  0
   -0.0192    1.4288    4.1710 H   0  0  0  0  0  0  0  0  0  0  0  0
   -1.7255    1.1088    4.5641 H   0  0  0  0  0  0  0  0  0  0  0  0
   -0.5319   -0.2118    4.6011 H   0  0  0  0  0  0  0  0  0  0  0  0
  5  6  2  0  0  0  0
  5  7  1  0  0  0  0
  2  3  1  0  0  0  0
  2  4  1  0  0  0  0
  2  5  1  0  0  0  0
  1  2  1  0  0  0  0
 22 23  2  0  0  0  0
 22 24  1  0  0  0  0
 18 19  1  0  0  0  0
 18 20  1  0  0  0  0
 18 21  1  0  0  0  0
 17 18  1  0  0  0  0
 14 15  1  0  0  0  0
 14 16  1  0  0  0  0
 14 17  1  0  0  0  0
 11 12  1  0  0  0  0
 11 13  1  0  0  0  0
 11 14  1  0  0  0  0
  9 10  1  0  0  0  0
  9 11  1  0  0  0  0
  9 22  1  0  0  0  0
  7  8  1  0  0  0  0
  7  9  1  0  0  0  0
 26 27  1  0  0  0  0
 26 28  1  0  0  0  0
 26 29  1  0  0  0  0
 24 25  1  0  0  0  0
 24 26  1  0  0  0  0
M  END
$$$$
default_name
  -OEChem-02102213163D

 29 28  0     1  0  0  0  0  0999 V2000
   -3.5781   -3.7296    1.2702 H   0  0  0  0  0  0  0  0  0  0  0  0
   -3.5311   -2.7616    0.7732 C   0  0  0  0  0  0  0  0  0  0  0  0
   -4.2371   -2.0766    1.2382 H   0  0  0  0  0  0  0  0  0  0  0  0
   -3.7681   -2.8816   -0.2818 H   0  0  0  0  0  0  0  0  0  0  0  0
   -2.1321   -2.2086    0.9112 C   0  0  0  0  0  0  0  0  0  0  0  0
   -1.2751   -2.8426    1.5112 O   0  0  0  0  0  0  0  0  0  0  0  0
   -1.9041   -1.0186    0.3602 N   0  0  0  0  0  0  0  0  0  0  0  0
   -2.6671   -0.5416   -0.0988 H   0  0  0  0  0  0  0  0  0  0  0  0
   -0.6131   -0.3236    0.3832 C   0  0  1  0  0  0  0  0  0  0  0  0
    0.1346   -0.9625   -0.0894 H   0  0  0  0  0  0  0  0  0  0  0  0
   -0.7253    0.9751   -0.4365 C   0  0  0  0  0  0  0  0  0  0  0  0
   -1.0301    1.7852    0.2294 H   0  0  0  0  0  0  0  0  0  0  0  0
    0.2524    1.2243   -0.8513 H   0  0  0  0  0  0  0  0  0  0  0  0
   -1.7372    0.8888   -1.5849 C   0  0  0  0  0  0  0  0  0  0  0  0
   -1.7500    1.8367   -2.1219 H   0  0  0  0  0  0  0  0  0  0  0  0
   -1.4224    0.1014   -2.2707 H   0  0  0  0  0  0  0  0  0  0  0  0
   -3.4261    0.5296   -1.0388 S   0  0  0  0  0  0  0  0  0  0  0  0
   -3.2139   -1.1808   -0.4807 C   0  0  0  0  0  0  0  0  0  0  0  0
   -2.4766   -1.2169    0.3218 H   0  0  0  0  0  0  0  0  0  0  0  0
   -4.1664   -1.5609   -0.1103 H   0  0  0  0  0  0  0  0  0  0  0  0
   -2.8796   -1.8005   -1.3131 H   0  0  0  0  0  0  0  0  0  0  0  0
   -0.1711   -0.0594    1.8296 C   0  0  0  0  0  0  0  0  0  0  0  0
    0.9865   -0.2908    2.1726 O   0  0  0  0  0  0  0  0  0  0  0  0
   -1.0921    0.4156    2.6780 N   0  0  0  0  0  0  0  0  0  0  0  0
   -2.0168    0.5953    2.3206 H   0  0  0  0  0  0  0  0  0  0  0  0
   -0.8319    0.7034    4.0877 C   0  0  0  0  0  0  0  0  0  0  0  0
   -0.0192    1.4288    4.1710 H   0  0  0  0  0  0  0  0  0  0  0  0
   -1.7255    1.1088    4.5641 H   0  0  0  0  0  0  0  0  0  0  0  0
   -0.5319   -0.2118    4.6011 H   0  0  0  0  0  0  0  0  0  0  0  0
  5  6  2  0  0  0  0
  5  7  1  0  0  0  0
  2  3  1  0  0  0  0
  2  4  1  0  0  0  0
  2  5  1  0  0  0  0
  1  2  1  0  0  0  0
 22 23  2  0  0  0  0
 22 24  1  0  0  0  0
 18 19  1  0  0  0  0
 18 20  1  0  0  0  0
 18 21  1  0  0  0  0
 17 18  1  0  0  0  0
 14 15  1  0  0  0  0
 14 16  1  0  0  0  0
 14 17  1  0  0  0  0
 11 12  1  0  0  0  0
 11 13  1  0  0  0  0
 11 14  1  0  0  0  0
  9 10  1  0  0  0  0
  9 11  1  0  0  0  0
  9 22  1  0  0  0  0
  7  8  1  0  0  0  0
  7  9  1  0  0  0  0
 26 27  1  0  0  0  0
 26 28  1  0  0  0  0
 26 29  1  0  0  0  0
 24 25  1  0  0  0  0
 24 26  1  0  0  0  0
M  END
$$$$
default_name
  -OEChem-02102213163D

 29 28  0     1  0  0  0  0  0999 V2000
   -3.5781   -3.7296    1.2702 H   0  0  0  0  0  0  0  0  0  0  0  0
   -3.5311   -2.7616    0.7732 C   0  0  0  0  0  0  0  0  0  0  0  0
   -4.2371   -2.0766    1.2382 H   0  0  0  0  0  0  0  0  0  0  0  0
   -3.7681   -2.8816   -0.2818 H   0  0  0  0  0  0  0  0  0  0  0  0
   -2.1321   -2.2086    0.9112 C   0  0  0  0  0  0  0  0  0  0  0  0
   -1.2751   -2.8426    1.5112 O   0  0  0  0  0  0  0  0  0  0  0  0
   -1.9041   -1.0186    0.3602 N   0  0  0  0  0  0  0  0  0  0  0  0
   -2.6671   -0.5416   -0.0988 H   0  0  0  0  0  0  0  0  0  0  0  0
   -0.6131   -0.3236    0.3832 C   0  0  1  0  0  0  0  0  0  0  0  0
    0.1346   -0.9625   -0.0894 H   0  0  0  0  0  0  0  0  0  0  0  0
   -0.7253    0.9751   -0.4365 C   0  0  0  0  0  0  0  0  0  0  0  0
   -1.0301    1.7852    0.2294 H   0  0  0  0  0  0  0  0  0  0  0  0
    0.2524    1.2243   -0.8513 H   0  0  0  0  0  0  0  0  0  0  0  0
   -1.7372    0.8888   -1.5849 C   0  0  0  0  0  0  0  0  0  0  0  0
   -1.5660    1.7145   -2.2749 H   0  0  0  0  0  0  0  0  0  0  0  0
   -1.5836   -0.0506   -2.1172 H   0  0  0  0  0  0  0  0  0  0  0  0
   -3.4625    0.9612   -1.0391 S   0  0  0  0  0  0  0  0  0  0  0  0
   -3.5869   -0.6358   -0.1930 C   0  0  0  0  0  0  0  0  0  0  0  0
   -2.8689   -0.6745    0.6268 H   0  0  0  0  0  0  0  0  0  0  0  0
   -4.5944   -0.7558    0.2063 H   0  0  0  0  0  0  0  0  0  0  0  0
   -3.3819   -1.4423   -0.8975 H   0  0  0  0  0  0  0  0  0  0  0  0
   -0.1711   -0.0594    1.8296 C   0  0  0  0  0  0  0  0  0  0  0  0
    0.9865   -0.2908    2.1726 O   0  0  0  0  0  0  0  0  0  0  0  0
   -1.0921    0.4156    2.6780 N   0  0  0  0  0  0  0  0  0  0  0  0
   -2.0168    0.5953    2.3206 H   0  0  0  0  0  0  0  0  0  0  0  0
   -0.8319    0.7034    4.0877 C   0  0  0  0  0  0  0  0  0  0  0  0
   -0.0192    1.4288    4.1710 H   0  0  0  0  0  0  0  0  0  0  0  0
   -1.7255    1.1088    4.5641 H   0  0  0  0  0  0  0  0  0  0  0  0
   -0.5319   -0.2118    4.6011 H   0  0  0  0  0  0  0  0  0  0  0  0
  5  6  2  0  0  0  0
  5  7  1  0  0  0  0
  2  3  1  0  0  0  0
  2  4  1  0  0  0  0
  2  5  1  0  0  0  0
  1  2  1  0  0  0  0
 22 23  2  0  0  0  0
 22 24  1  0  0  0  0
 18 19  1  0  0  0  0
 18 20  1  0  0  0  0
 18 21  1  0  0  0  0
 17 18  1  0  0  0  0
 14 15  1  0  0  0  0
 14 16  1  0  0  0  0
 14 17  1  0  0  0  0
 11 12  1  0  0  0  0
 11 13  1  0  0  0  0
 11 14  1  0  0  0  0
  9 10  1  0  0  0  0
  9 11  1  0  0  0  0
  9 22  1  0  0  0  0
  7  8  1  0  0  0  0
  7  9  1  0  0  0  0
 26 27  1  0  0  0  0
 26 28  1  0  0  0  0
 26 29  1  0  0  0  0
 24 25  1  0  0  0  0
 24 26  1  0  0  0  0
M  END
$$$$
default_name
  -OEChem-02102213163D

 29 28  0     1  0  0  0  0  0999 V2000
   -3.5781   -3.7296    1.2702 H   0  0  0  0  0  0  0  0  0  0  0  0
   -3.5311   -2.7616    0.7732 C   0  0  0  0  0  0  0  0  0  0  0  0
   -4.2371   -2.0766    1.2382 H   0  0  0  0  0  0  0  0  0  0  0  0
   -3.7681   -2.8816   -0.2818 H   0  0  0  0  0  0  0  0  0  0  0  0
   -2.1321   -2.2086    0.9112 C   0  0  0  0  0  0  0  0  0  0  0  0
   -1.2751   -2.8426    1.5112 O   0  0  0  0  0  0  0  0  0  0  0  0
   -1.9041   -1.0186    0.3602 N   0  0  0  0  0  0  0  0  0  0  0  0
   -2.6671   -0.5416   -0.0988 H   0  0  0  0  0  0  0  0  0  0  0  0
   -0.6131   -0.3236    0.3832 C   0  0  1  0  0  0  0  0  0  0  0  0
    0.1346   -0.9625   -0.0894 H   0  0  0  0  0  0  0  0  0  0  0  0
   -0.7253    0.9751   -0.4365 C   0  0  0  0  0  0  0  0  0  0  0  0
   -1.0301    1.7852    0.2294 H   0  0  0  0  0  0  0  0  0  0  0  0
    0.2524    1.2243   -0.8513 H   0  0  0  0  0  0  0  0  0  0  0  0
   -1.7372    0.8888   -1.5849 C   0  0  0  0  0  0  0  0  0  0  0  0
   -1.4097    1.5346   -2.3991 H   0  0  0  0  0  0  0  0  0  0  0  0
   -1.7711   -0.1400   -1.9453 H   0  0  0  0  0  0  0  0  0  0  0  0
   -3.4139    1.3851   -1.1137 S   0  0  0  0  0  0  0  0  0  0  0  0
   -3.8457    0.0121   -0.0136 C   0  0  0  0  0  0  0  0  0  0  0  0
   -3.1472   -0.0224    0.8230 H   0  0  0  0  0  0  0  0  0  0  0  0
   -4.8563    0.1590    0.3683 H   0  0  0  0  0  0  0  0  0  0  0  0
   -3.8036   -0.9279   -0.5645 H   0  0  0  0  0  0  0  0  0  0  0  0
   -0.1711   -0.0594    1.8296 C   0  0  0  0  0  0  0  0  0  0  0  0
    0.9865   -0.2908    2.1726 O   0  0  0  0  0  0  0  0  0  0  0  0
   -1.0921    0.4156    2.6780 N   0  0  0  0  0  0  0  0  0  0  0  0
   -2.0168    0.5953    2.3206 H   0  0  0  0  0  0  0  0  0  0  0  0
   -0.8319    0.7034    4.0877 C   0  0  0  0  0  0  0  0  0  0  0  0
   -0.0192    1.4288    4.1710 H   0  0  0  0  0  0  0  0  0  0  0  0
   -1.7255    1.1088    4.5641 H   0  0  0  0  0  0  0  0  0  0  0  0
   -0.5319   -0.2118    4.6011 H   0  0  0  0  0  0  0  0  0  0  0  0
  5  6  2  0  0  0  0
  5  7  1  0  0  0  0
  2  3  1  0  0  0  0
  2  4  1  0  0  0  0
  2  5  1  0  0  0  0
  1  2  1  0  0  0  0
 22 23  2  0  0  0  0
 22 24  1  0  0  0  0
 18 19  1  0  0  0  0
 18 20  1  0  0  0  0
 18 21  1  0  0  0  0
 17 18  1  0  0  0  0
 14 15  1  0  0  0  0
 14 16  1  0  0  0  0
 14 17  1  0  0  0  0
 11 12  1  0  0  0  0
 11 13  1  0  0  0  0
 11 14  1  0  0  0  0
  9 10  1  0  0  0  0
  9 11  1  0  0  0  0
  9 22  1  0  0  0  0
  7  8  1  0  0  0  0
  7  9  1  0  0  0  0
 26 27  1  0  0  0  0
 26 28  1  0  0  0  0
 26 29  1  0  0  0  0
 24 25  1  0  0  0  0
 24 26  1  0  0  0  0
M  END
$$$$
default_name
  -OEChem-02102213163D

 29 28  0     1  0  0  0  0  0999 V2000
   -3.5781   -3.7296    1.2702 H   0  0  0  0  0  0  0  0  0  0  0  0
   -3.5311   -2.7616    0.7732 C   0  0  0  0  0  0  0  0  0  0  0  0
   -4.2371   -2.0766    1.2382 H   0  0  0  0  0  0  0  0  0  0  0  0
   -3.7681   -2.8816   -0.2818 H   0  0  0  0  0  0  0  0  0  0  0  0
   -2.1321   -2.2086    0.9112 C   0  0  0  0  0  0  0  0  0  0  0  0
   -1.2751   -2.8426    1.5112 O   0  0  0  0  0  0  0  0  0  0  0  0
   -1.9041   -1.0186    0.3602 N   0  0  0  0  0  0  0  0  0  0  0  0
   -2.6671   -0.5416   -0.0988 H   0  0  0  0  0  0  0  0  0  0  0  0
   -0.6131   -0.3236    0.3832 C   0  0  1  0  0  0  0  0  0  0  0  0
    0.1346   -0.9625   -0.0894 H   0  0  0  0  0  0  0  0  0  0  0  0
   -0.7253    0.9751   -0.4365 C   0  0  0  0  0  0  0  0  0  0  0  0
   -1.0301    1.7852    0.2294 H   0  0  0  0  0  0  0  0  0  0  0  0
    0.2524    1.2243   -0.8513 H   0  0  0  0  0  0  0  0  0  0  0  0
   -1.7372    0.8888   -1.5849 C   0  0  0  0  0  0  0  0  0  0  0  0
   -1.2918    1.3093   -2.4860 H   0  0  0  0  0  0  0  0  0  0  0  0
   -1.9721   -0.1606   -1.7667 H   0  0  0  0  0  0  0  0  0  0  0  0
   -3.2838    1.7723   -1.2575 S   0  0  0  0  0  0  0  0  0  0  0  0
   -3.9726    0.7187    0.0452 C   0  0  0  0  0  0  0  0  0  0  0  0
   -3.2923    0.6950    0.8970 H   0  0  0  0  0  0  0  0  0  0  0  0
   -4.9342    1.1211    0.3648 H   0  0  0  0  0  0  0  0  0  0  0  0
   -4.1160   -0.2924   -0.3369 H   0  0  0  0  0  0  0  0  0  0  0  0
   -0.1711   -0.0594    1.8296 C   0  0  0  0  0  0  0  0  0  0  0  0
    0.9865   -0.2908    2.1726 O   0  0  0  0  0  0  0  0  0  0  0  0
   -1.0921    0.4156    2.6780 N   0  0  0  0  0  0  0  0  0  0  0  0
   -2.0168    0.5953    2.3206 H   0  0  0  0  0  0  0  0  0  0  0  0
   -0.8319    0.7034    4.0877 C   0  0  0  0  0  0  0  0  0  0  0  0
   -0.0192    1.4288    4.1710 H   0  0  0  0  0  0  0  0  0  0  0  0
   -1.7255    1.1088    4.5641 H   0  0  0  0  0  0  0  0  0  0  0  0
   -0.5319   -0.2118    4.6011 H   0  0  0  0  0  0  0  0  0  0  0  0
  5  6  2  0  0  0  0
  5  7  1  0  0  0  0
  2  3  1  0  0  0  0
  2  4  1  0  0  0  0
  2  5  1  0  0  0  0
  1  2  1  0  0  0  0
 22 23  2  0  0  0  0
 22 24  1  0  0  0  0
 18 19  1  0  0  0  0
 18 20  1  0  0  0  0
 18 21  1  0  0  0  0
 17 18  1  0  0  0  0
 14 15  1  0  0  0  0
 14 16  1  0  0  0  0
 14 17  1  0  0  0  0
 11 12  1  0  0  0  0
 11 13  1  0  0  0  0
 11 14  1  0  0  0  0
  9 10  1  0  0  0  0
  9 11  1  0  0  0  0
  9 22  1  0  0  0  0
  7  8  1  0  0  0  0
  7  9  1  0  0  0  0
 26 27  1  0  0  0  0
 26 28  1  0  0  0  0
 26 29  1  0  0  0  0
 24 25  1  0  0  0  0
 24 26  1  0  0  0  0
M  END
$$$$
default_name
  -OEChem-02102213163D

 29 28  0     1  0  0  0  0  0999 V2000
   -3.5781   -3.7296    1.2702 H   0  0  0  0  0  0  0  0  0  0  0  0
   -3.5311   -2.7616    0.7732 C   0  0  0  0  0  0  0  0  0  0  0  0
   -4.2371   -2.0766    1.2382 H   0  0  0  0  0  0  0  0  0  0  0  0
   -3.7681   -2.8816   -0.2818 H   0  0  0  0  0  0  0  0  0  0  0  0
   -2.1321   -2.2086    0.9112 C   0  0  0  0  0  0  0  0  0  0  0  0
   -1.2751   -2.8426    1.5112 O   0  0  0  0  0  0  0  0  0  0  0  0
   -1.9041   -1.0186    0.3602 N   0  0  0  0  0  0  0  0  0  0  0  0
   -2.6671   -0.5416   -0.0988 H   0  0  0  0  0  0  0  0  0  0  0  0
   -0.6131   -0.3236    0.3832 C   0  0  1  0  0  0  0  0  0  0  0  0
    0.1346   -0.9625   -0.0894 H   0  0  0  0  0  0  0  0  0  0  0  0
   -0.7253    0.9751   -0.4365 C   0  0  0  0  0  0  0  0  0  0  0  0
   -1.0301    1.7852    0.2294 H   0  0  0  0  0  0  0  0  0  0  0  0
    0.2524    1.2243   -0.8513 H   0  0  0  0  0  0  0  0  0  0  0  0
   -1.7372    0.8888   -1.5849 C   0  0  0  0  0  0  0  0  0  0  0  0
   -1.2204    1.0540   -2.5298 H   0  0  0  0  0  0  0  0  0  0  0  0
   -2.1728   -0.1110   -1.5936 H   0  0  0  0  0  0  0  0  0  0  0  0
   -3.0808    2.0966   -1.4606 S   0  0  0  0  0  0  0  0  0  0  0  0
   -3.9591    1.4358   -0.0206 C   0  0  0  0  0  0  0  0  0  0  0  0
   -3.2946    1.4287    0.8439 H   0  0  0  0  0  0  0  0  0  0  0  0
   -4.8230    2.0649    0.1959 H   0  0  0  0  0  0  0  0  0  0  0  0
   -4.2980    0.4209   -0.2302 H   0  0  0  0  0  0  0  0  0  0  0  0
   -0.1711   -0.0594    1.8296 C   0  0  0  0  0  0  0  0  0  0  0  0
    0.9865   -0.2908    2.1726 O   0  0  0  0  0  0  0  0  0  0  0  0
   -1.0921    0.4156    2.6780 N   0  0  0  0  0  0  0  0  0  0  0  0
   -2.0168    0.5953    2.3206 H   0  0  0  0  0  0  0  0  0  0  0  0
   -0.8319    0.7034    4.0877 C   0  0  0  0  0  0  0  0  0  0  0  0
   -0.0192    1.4288    4.1710 H   0  0  0  0  0  0  0  0  0  0  0  0
   -1.7255    1.1088    4.5641 H   0  0  0  0  0  0  0  0  0  0  0  0
   -0.5319   -0.2118    4.6011 H   0  0  0  0  0  0  0  0  0  0  0  0
  5  6  2  0  0  0  0
  5  7  1  0  0  0  0
  2  3  1  0  0  0  0
  2  4  1  0  0  0  0
  2  5  1  0  0  0  0
  1  2  1  0  0  0  0
 22 23  2  0  0  0  0
 22 24  1  0  0  0  0
 18 19  1  0  0  0  0
 18 20  1  0  0  0  0
 18 21  1  0  0  0  0
 17 18  1  0  0  0  0
 14 15  1  0  0  0  0
 14 16  1  0  0  0  0
 14 17  1  0  0  0  0
 11 12  1  0  0  0  0
 11 13  1  0  0  0  0
 11 14  1  0  0  0  0
  9 10  1  0  0  0  0
  9 11  1  0  0  0  0
  9 22  1  0  0  0  0
  7  8  1  0  0  0  0
  7  9  1  0  0  0  0
 26 27  1  0  0  0  0
 26 28  1  0  0  0  0
 26 29  1  0  0  0  0
 24 25  1  0  0  0  0
 24 26  1  0  0  0  0
M  END
$$$$
default_name
  -OEChem-02102213163D

 29 28  0     1  0  0  0  0  0999 V2000
   -3.5781   -3.7296    1.2702 H   0  0  0  0  0  0  0  0  0  0  0  0
   -3.5311   -2.7616    0.7732 C   0  0  0  0  0  0  0  0  0  0  0  0
   -4.2371   -2.0766    1.2382 H   0  0  0  0  0  0  0  0  0  0  0  0
   -3.7681   -2.8816   -0.2818 H   0  0  0  0  0  0  0  0  0  0  0  0
   -2.1321   -2.2086    0.9112 C   0  0  0  0  0  0  0  0  0  0  0  0
   -1.2751   -2.8426    1.5112 O   0  0  0  0  0  0  0  0  0  0  0  0
   -1.9041   -1.0186    0.3602 N   0  0  0  0  0  0  0  0  0  0  0  0
   -2.6671   -0.5416   -0.0988 H   0  0  0  0  0  0  0  0  0  0  0  0
   -0.6131   -0.3236    0.3832 C   0  0  1  0  0  0  0  0  0  0  0  0
    0.1346   -0.9625   -0.0894 H   0  0  0  0  0  0  0  0  0  0  0  0
   -0.7253    0.9751   -0.4365 C   0  0  0  0  0  0  0  0  0  0  0  0
   -1.0301    1.7852    0.2294 H   0  0  0  0  0  0  0  0  0  0  0  0
    0.2524    1.2243   -0.8513 H   0  0  0  0  0  0  0  0  0  0  0  0
   -1.7372    0.8888   -1.5849 C   0  0  0  0  0  0  0  0  0  0  0  0
   -1.2003    0.7861   -2.5274 H   0  0  0  0  0  0  0  0  0  0  0  0
   -2.3595    0.0054   -1.4378 H   0  0  0  0  0  0  0  0  0  0  0  0
   -2.8190    2.3358   -1.7093 S   0  0  0  0  0  0  0  0  0  0  0  0
   -3.8060    2.1147   -0.2064 C   0  0  0  0  0  0  0  0  0  0  0  0
   -3.1537    2.1287    0.6672 H   0  0  0  0  0  0  0  0  0  0  0  0
   -4.5301    2.9261   -0.1269 H   0  0  0  0  0  0  0  0  0  0  0  0
   -4.3369    1.1634   -0.2517 H   0  0  0  0  0  0  0  0  0  0  0  0
   -0.1711   -0.0594    1.8296 C   0  0  0  0  0  0  0  0  0  0  0  0
    0.9865   -0.2908    2.1726 O   0  0  0  0  0  0  0  0  0  0  0  0
   -1.0921    0.4156    2.6780 N   0  0  0  0  0  0  0  0  0  0  0  0
   -2.0168    0.5953    2.3206 H   0  0  0  0  0  0  0  0  0  0  0  0
   -0.8319    0.7034    4.0877 C   0  0  0  0  0  0  0  0  0  0  0  0
   -0.0192    1.4288    4.1710 H   0  0  0  0  0  0  0  0  0  0  0  0
   -1.7255    1.1088    4.5641 H   0  0  0  0  0  0  0  0  0  0  0  0
   -0.5319   -0.2118    4.6011 H   0  0  0  0  0  0  0  0  0  0  0  0
  5  6  2  0  0  0  0
  5  7  1  0  0  0  0
  2  3  1  0  0  0  0
  2  4  1  0  0  0  0
  2  5  1  0  0  0  0
  1  2  1  0  0  0  0
 22 23  2  0  0  0  0
 22 24  1  0  0  0  0
 18 19  1  0  0  0  0
 18 20  1  0  0  0  0
 18 21  1  0  0  0  0
 17 18  1  0  0  0  0
 14 15  1  0  0  0  0
 14 16  1  0  0  0  0
 14 17  1  0  0  0  0
 11 12  1  0  0  0  0
 11 13  1  0  0  0  0
 11 14  1  0  0  0  0
  9 10  1  0  0  0  0
  9 11  1  0  0  0  0
  9 22  1  0  0  0  0
  7  8  1  0  0  0  0
  7  9  1  0  0  0  0
 26 27  1  0  0  0  0
 26 28  1  0  0  0  0
 26 29  1  0  0  0  0
 24 25  1  0  0  0  0
 24 26  1  0  0  0  0
M  END
$$$$
default_name
  -OEChem-02102213163D

 29 28  0     1  0  0  0  0  0999 V2000
   -3.5781   -3.7296    1.2702 H   0  0  0  0  0  0  0  0  0  0  0  0
   -3.5311   -2.7616    0.7732 C   0  0  0  0  0  0  0  0  0  0  0  0
   -4.2371   -2.0766    1.2382 H   0  0  0  0  0  0  0  0  0  0  0  0
   -3.7681   -2.8816   -0.2818 H   0  0  0  0  0  0  0  0  0  0  0  0
   -2.1321   -2.2086    0.9112 C   0  0  0  0  0  0  0  0  0  0  0  0
   -1.2751   -2.8426    1.5112 O   0  0  0  0  0  0  0  0  0  0  0  0
   -1.9041   -1.0186    0.3602 N   0  0  0  0  0  0  0  0  0  0  0  0
   -2.6671   -0.5416   -0.0988 H   0  0  0  0  0  0  0  0  0  0  0  0
   -0.6131   -0.3236    0.3832 C   0  0  1  0  0  0  0  0  0  0  0  0
    0.1346   -0.9625   -0.0894 H   0  0  0  0  0  0  0  0  0  0  0  0
   -0.7253    0.9751   -0.4365 C   0  0  0  0  0  0  0  0  0  0  0  0
   -1.0301    1.7852    0.2294 H   0  0  0  0  0  0  0  0  0  0  0  0
    0.2524    1.2243   -0.8513 H   0  0  0  0  0  0  0  0  0  0  0  0
   -1.7372    0.8888   -1.5849 C   0  0  0  0  0  0  0  0  0  0  0  0
   -1.2328    0.5238   -2.4790 H   0  0  0  0  0  0  0  0  0  0  0  0
   -2.5196    0.1806   -1.3099 H   0  0  0  0  0  0  0  0  0  0  0  0
   -2.5161    2.4736   -1.9866 S   0  0  0  0  0  0  0  0  0  0  0  0
   -3.5239    2.7090   -0.4997 C   0  0  0  0  0  0  0  0  0  0  0  0
   -2.8794    2.7474    0.3790 H   0  0  0  0  0  0  0  0  0  0  0  0
   -4.0755    3.6460   -0.5815 H   0  0  0  0  0  0  0  0  0  0  0  0
   -4.2303    1.8845   -0.3998 H   0  0  0  0  0  0  0  0  0  0  0  0
   -0.1711   -0.0594    1.8296 C   0  0  0  0  0  0  0  0  0  0  0  0
    0.9865   -0.2908    2.1726 O   0  0  0  0  0  0  0  0  0  0  0  0
   -1.0921    0.4156    2.6780 N   0  0  0  0  0  0  0  0  0  0  0  0
   -2.0168    0.5953    2.3206 H   0  0  0  0  0  0  0  0  0  0  0  0
   -0.8319    0.7034    4.0877 C   0  0  0  0  0  0  0  0  0  0  0  0
   -0.0192    1.4288    4.1710 H   0  0  0  0  0  0  0  0  0  0  0  0
   -1.7255    1.1088    4.5641 H   0  0  0  0  0  0  0  0  0  0  0  0
   -0.5319   -0.2118    4.6011 H   0  0  0  0  0  0  0  0  0  0  0  0
  5  6  2  0  0  0  0
  5  7  1  0  0  0  0
  2  3  1  0  0  0  0
  2  4  1  0  0  0  0
  2  5  1  0  0  0  0
  1  2  1  0  0  0  0
 22 23  2  0  0  0  0
 22 24  1  0  0  0  0
 18 19  1  0  0  0  0
 18 20  1  0  0  0  0
 18 21  1  0  0  0  0
 17 18  1  0  0  0  0
 14 15  1  0  0  0  0
 14 16  1  0  0  0  0
 14 17  1  0  0  0  0
 11 12  1  0  0  0  0
 11 13  1  0  0  0  0
 11 14  1  0  0  0  0
  9 10  1  0  0  0  0
  9 11  1  0  0  0  0
  9 22  1  0  0  0  0
  7  8  1  0  0  0  0
  7  9  1  0  0  0  0
 26 27  1  0  0  0  0
 26 28  1  0  0  0  0
 26 29  1  0  0  0  0
 24 25  1  0  0  0  0
 24 26  1  0  0  0  0
M  END
$$$$
default_name
  -OEChem-02102213163D

 29 28  0     1  0  0  0  0  0999 V2000
   -3.5781   -3.7296    1.2702 H   0  0  0  0  0  0  0  0  0  0  0  0
   -3.5311   -2.7616    0.7732 C   0  0  0  0  0  0  0  0  0  0  0  0
   -4.2371   -2.0766    1.2382 H   0  0  0  0  0  0  0  0  0  0  0  0
   -3.7681   -2.8816   -0.2818 H   0  0  0  0  0  0  0  0  0  0  0  0
   -2.1321   -2.2086    0.9112 C   0  0  0  0  0  0  0  0  0  0  0  0
   -1.2751   -2.8426    1.5112 O   0  0  0  0  0  0  0  0  0  0  0  0
   -1.9041   -1.0186    0.3602 N   0  0  0  0  0  0  0  0  0  0  0  0
   -2.6671   -0.5416   -0.0988 H   0  0  0  0  0  0  0  0  0  0  0  0
   -0.6131   -0.3236    0.3832 C   0  0  1  0  0  0  0  0  0  0  0  0
    0.1346   -0.9625   -0.0894 H   0  0  0  0  0  0  0  0  0  0  0  0
   -0.7253    0.9751   -0.4365 C   0  0  0  0  0  0  0  0  0  0  0  0
   -1.0301    1.7852    0.2294 H   0  0  0  0  0  0  0  0  0  0  0  0
    0.2524    1.2243   -0.8513 H   0  0  0  0  0  0  0  0  0  0  0  0
   -1.7372    0.8888   -1.5849 C   0  0  0  0  0  0  0  0  0  0  0  0
   -1.3158    0.2850   -2.3880 H   0  0  0  0  0  0  0  0  0  0  0  0
   -2.6421    0.4027   -1.2186 H   0  0  0  0  0  0  0  0  0  0  0  0
   -2.1928    2.5006   -2.2735 S   0  0  0  0  0  0  0  0  0  0  0  0
   -3.1318    3.1783   -0.8804 C   0  0  0  0  0  0  0  0  0  0  0  0
   -2.4902    3.2426   -0.0011 H   0  0  0  0  0  0  0  0  0  0  0  0
   -3.4901    4.1756   -1.1371 H   0  0  0  0  0  0  0  0  0  0  0  0
   -3.9853    2.5351   -0.6645 H   0  0  0  0  0  0  0  0  0  0  0  0
   -0.1711   -0.0594    1.8296 C   0  0  0  0  0  0  0  0  0  0  0  0
    0.9865   -0.2908    2.1726 O   0  0  0  0  0  0  0  0  0  0  0  0
   -1.0921    0.4156    2.6780 N   0  0  0  0  0  0  0  0  0  0  0  0
   -2.0168    0.5953    2.3206 H   0  0  0  0  0  0  0  0  0  0  0  0
   -0.8319    0.7034    4.0877 C   0  0  0  0  0  0  0  0  0  0  0  0
   -0.0192    1.4288    4.1710 H   0  0  0  0  0  0  0  0  0  0  0  0
   -1.7255    1.1088    4.5641 H   0  0  0  0  0  0  0  0  0  0  0  0
   -0.5319   -0.2118    4.6011 H   0  0  0  0  0  0  0  0  0  0  0  0
  5  6  2  0  0  0  0
  5  7  1  0  0  0  0
  2  3  1  0  0  0  0
  2  4  1  0  0  0  0
  2  5  1  0  0  0  0
  1  2  1  0  0  0  0
 22 23  2  0  0  0  0
 22 24  1  0  0  0  0
 18 19  1  0  0  0  0
 18 20  1  0  0  0  0
 18 21  1  0  0  0  0
 17 18  1  0  0  0  0
 14 15  1  0  0  0  0
 14 16  1  0  0  0  0
 14 17  1  0  0  0  0
 11 12  1  0  0  0  0
 11 13  1  0  0  0  0
 11 14  1  0  0  0  0
  9 10  1  0  0  0  0
  9 11  1  0  0  0  0
  9 22  1  0  0  0  0
  7  8  1  0  0  0  0
  7  9  1  0  0  0  0
 26 27  1  0  0  0  0
 26 28  1  0  0  0  0
 26 29  1  0  0  0  0
 24 25  1  0  0  0  0
 24 26  1  0  0  0  0
M  END
$$$$
default_name
  -OEChem-02102213163D

 29 28  0     1  0  0  0  0  0999 V2000
   -3.5781   -3.7296    1.2702 H   0  0  0  0  0  0  0  0  0  0  0  0
   -3.5311   -2.7616    0.7732 C   0  0  0  0  0  0  0  0  0  0  0  0
   -4.2371   -2.0766    1.2382 H   0  0  0  0  0  0  0  0  0  0  0  0
   -3.7681   -2.8816   -0.2818 H   0  0  0  0  0  0  0  0  0  0  0  0
   -2.1321   -2.2086    0.9112 C   0  0  0  0  0  0  0  0  0  0  0  0
   -1.2751   -2.8426    1.5112 O   0  0  0  0  0  0  0  0  0  0  0  0
   -1.9041   -1.0186    0.3602 N   0  0  0  0  0  0  0  0  0  0  0  0
   -2.6671   -0.5416   -0.0988 H   0  0  0  0  0  0  0  0  0  0  0  0
   -0.6131   -0.3236    0.3832 C   0  0  1  0  0  0  0  0  0  0  0  0
    0.1346   -0.9625   -0.0894 H   0  0  0  0  0  0  0  0  0  0  0  0
   -0.7253    0.9751   -0.4365 C   0  0  0  0  0  0  0  0  0  0  0  0
   -0.7636    1.8223    0.2516 H   0  0  0  0  0  0  0  0  0  0  0  0
    0.1620    1.0836   -1.0619 H   0  0  0  0  0  0  0  0  0  0  0  0
   -1.9668    1.0271   -1.3344 C   0  0  0  0  0  0  0  0  0  0  0  0
   -1.9404    0.1887   -2.0297 H   0  0  0  0  0  0  0  0  0  0  0  0
   -2.8555    0.9360   -0.7088 H   0  0  0  0  0  0  0  0  0  0  0  0
   -2.1011    2.5536   -2.2995 S   0  0  0  0  0  0  0  0  0  0  0  0
   -2.4444    3.7328   -0.9678 C   0  0  0  0  0  0  0  0  0  0  0  0
   -1.6179    3.7350   -0.2566 H   0  0  0  0  0  0  0  0  0  0  0  0
   -2.5575    4.7317   -1.3899 H   0  0  0  0  0  0  0  0  0  0  0  0
   -3.3662    3.4528   -0.4571 H   0  0  0  0  0  0  0  0  0  0  0  0
   -0.1711   -0.0594    1.8296 C   0  0  0  0  0  0  0  0  0  0  0  0
    0.9865   -0.2908    2.1726 O   0  0  0  0  0  0  0  0  0  0  0  0
   -1.0921    0.4156    2.6780 N   0  0  0  0  0  0  0  0  0  0  0  0
   -2.0168    0.5953    2.3206 H   0  0  0  0  0  0  0  0  0  0  0  0
   -0.8319    0.7034    4.0877 C   0  0  0  0  0  0  0  0  0  0  0  0
   -0.0192    1.4288    4.1710 H   0  0  0  0  0  0  0  0  0  0  0  0
   -1.7255    1.1088    4.5641 H   0  0  0  0  0  0  0  0  0  0  0  0
   -0.5319   -0.2118    4.6011 H   0  0  0  0  0  0  0  0  0  0  0  0
  5  6  2  0  0  0  0
  5  7  1  0  0  0  0
  2  3  1  0  0  0  0
  2  4  1  0  0  0  0
  2  5  1  0  0  0  0
  1  2  1  0  0  0  0
 22 23  2  0  0  0  0
 22 24  1  0  0  0  0
 18 19  1  0  0  0  0
 18 20  1  0  0  0  0
 18 21  1  0  0  0  0
 17 18  1  0  0  0  0
 14 15  1  0  0  0  0
 14 16  1  0  0  0  0
 14 17  1  0  0  0  0
 11 12  1  0  0  0  0
 11 13  1  0  0  0  0
 11 14  1  0  0  0  0
  9 10  1  0  0  0  0
  9 11  1  0  0  0  0
  9 22  1  0  0  0  0
  7  8  1  0  0  0  0
  7  9  1  0  0  0  0
 26 27  1  0  0  0  0
 26 28  1  0  0  0  0
 26 29  1  0  0  0  0
 24 25  1  0  0  0  0
 24 26  1  0  0  0  0
M  END
$$$$
default_name
  -OEChem-02102213163D

 29 28  0     1  0  0  0  0  0999 V2000
   -3.5781   -3.7296    1.2702 H   0  0  0  0  0  0  0  0  0  0  0  0
   -3.5311   -2.7616    0.7732 C   0  0  0  0  0  0  0  0  0  0  0  0
   -4.2371   -2.0766    1.2382 H   0  0  0  0  0  0  0  0  0  0  0  0
   -3.7681   -2.8816   -0.2818 H   0  0  0  0  0  0  0  0  0  0  0  0
   -2.1321   -2.2086    0.9112 C   0  0  0  0  0  0  0  0  0  0  0  0
   -1.2751   -2.8426    1.5112 O   0  0  0  0  0  0  0  0  0  0  0  0
   -1.9041   -1.0186    0.3602 N   0  0  0  0  0  0  0  0  0  0  0  0
   -2.6671   -0.5416   -0.0988 H   0  0  0  0  0  0  0  0  0  0  0  0
   -0.6131   -0.3236    0.3832 C   0  0  1  0  0  0  0  0  0  0  0  0
    0.1346   -0.9625   -0.0894 H   0  0  0  0  0  0  0  0  0  0  0  0
   -0.7253    0.9751   -0.4365 C   0  0  0  0  0  0  0  0  0  0  0  0
   -0.7636    1.8223    0.2516 H   0  0  0  0  0  0  0  0  0  0  0  0
    0.1620    1.0836   -1.0619 H   0  0  0  0  0  0  0  0  0  0  0  0
   -1.9668    1.0271   -1.3344 C   0  0  0  0  0  0  0  0  0  0  0  0
   -2.0843    0.0679   -1.8377 H   0  0  0  0  0  0  0  0  0  0  0  0
   -2.8432    1.2053   -0.7102 H   0  0  0  0  0  0  0  0  0  0  0  0
   -1.8936    2.3205   -2.5999 S   0  0  0  0  0  0  0  0  0  0  0  0
   -2.0221    3.7901   -1.5485 C   0  0  0  0  0  0  0  0  0  0  0  0
   -1.1872    3.8148   -0.8475 H   0  0  0  0  0  0  0  0  0  0  0  0
   -1.9938    4.6841   -2.1720 H   0  0  0  0  0  0  0  0  0  0  0  0
   -2.9624    3.7669   -0.9971 H   0  0  0  0  0  0  0  0  0  0  0  0
   -0.1711   -0.0594    1.8296 C   0  0  0  0  0  0  0  0  0  0  0  0
    0.9865   -0.2908    2.1726 O   0  0  0  0  0  0  0  0  0  0  0  0
   -1.0921    0.4156    2.6780 N   0  0  0  0  0  0  0  0  0  0  0  0
   -2.0168    0.5953    2.3206 H   0  0  0  0  0  0  0  0  0  0  0  0
   -0.8319    0.7034    4.0877 C   0  0  0  0  0  0  0  0  0  0  0  0
   -0.0192    1.4288    4.1710 H   0  0  0  0  0  0  0  0  0  0  0  0
   -1.7255    1.1088    4.5641 H   0  0  0  0  0  0  0  0  0  0  0  0
   -0.5319   -0.2118    4.6011 H   0  0  0  0  0  0  0  0  0  0  0  0
  5  6  2  0  0  0  0
  5  7  1  0  0  0  0
  2  3  1  0  0  0  0
  2  4  1  0  0  0  0
  2  5  1  0  0  0  0
  1  2  1  0  0  0  0
 22 23  2  0  0  0  0
 22 24  1  0  0  0  0
 18 19  1  0  0  0  0
 18 20  1  0  0  0  0
 18 21  1  0  0  0  0
 17 18  1  0  0  0  0
 14 15  1  0  0  0  0
 14 16  1  0  0  0  0
 14 17  1  0  0  0  0
 11 12  1  0  0  0  0
 11 13  1  0  0  0  0
 11 14  1  0  0  0  0
  9 10  1  0  0  0  0
  9 11  1  0  0  0  0
  9 22  1  0  0  0  0
  7  8  1  0  0  0  0
  7  9  1  0  0  0  0
 26 27  1  0  0  0  0
 26 28  1  0  0  0  0
 26 29  1  0  0  0  0
 24 25  1  0  0  0  0
 24 26  1  0  0  0  0
M  END
$$$$
default_name
  -OEChem-02102213163D

 29 28  0     1  0  0  0  0  0999 V2000
   -3.5781   -3.7296    1.2702 H   0  0  0  0  0  0  0  0  0  0  0  0
   -3.5311   -2.7616    0.7732 C   0  0  0  0  0  0  0  0  0  0  0  0
   -4.2371   -2.0766    1.2382 H   0  0  0  0  0  0  0  0  0  0  0  0
   -3.7681   -2.8816   -0.2818 H   0  0  0  0  0  0  0  0  0  0  0  0
   -2.1321   -2.2086    0.9112 C   0  0  0  0  0  0  0  0  0  0  0  0
   -1.2751   -2.8426    1.5112 O   0  0  0  0  0  0  0  0  0  0  0  0
   -1.9041   -1.0186    0.3602 N   0  0  0  0  0  0  0  0  0  0  0  0
   -2.6671   -0.5416   -0.0988 H   0  0  0  0  0  0  0  0  0  0  0  0
   -0.6131   -0.3236    0.3832 C   0  0  1  0  0  0  0  0  0  0  0  0
    0.1346   -0.9625   -0.0894 H   0  0  0  0  0  0  0  0  0  0  0  0
   -0.7253    0.9751   -0.4365 C   0  0  0  0  0  0  0  0  0  0  0  0
   -0.7636    1.8223    0.2516 H   0  0  0  0  0  0  0  0  0  0  0  0
    0.1620    1.0836   -1.0619 H   0  0  0  0  0  0  0  0  0  0  0  0
   -1.9668    1.0271   -1.3344 C   0  0  0  0  0  0  0  0  0  0  0  0
   -2.2400    0.0133   -1.6256 H   0  0  0  0  0  0  0  0  0  0  0  0
   -2.7905    1.4633   -0.7682 H   0  0  0  0  0  0  0  0  0  0  0  0
   -1.7312    2.0009   -2.8430 S   0  0  0  0  0  0  0  0  0  0  0  0
   -1.6105    3.6598   -2.1251 C   0  0  0  0  0  0  0  0  0  0  0  0
   -0.7642    3.7027   -1.4389 H   0  0  0  0  0  0  0  0  0  0  0  0
   -1.4635    4.3888   -2.9225 H   0  0  0  0  0  0  0  0  0  0  0  0
   -2.5296    3.8960   -1.5881 H   0  0  0  0  0  0  0  0  0  0  0  0
   -0.1711   -0.0594    1.8296 C   0  0  0  0  0  0  0  0  0  0  0  0
    0.9865   -0.2908    2.1726 O   0  0  0  0  0  0  0  0  0  0  0  0
   -1.0921    0.4156    2.6780 N   0  0  0  0  0  0  0  0  0  0  0  0
   -2.0168    0.5953    2.3206 H   0  0  0  0  0  0  0  0  0  0  0  0
   -0.8319    0.7034    4.0877 C   0  0  0  0  0  0  0  0  0  0  0  0
   -0.0192    1.4288    4.1710 H   0  0  0  0  0  0  0  0  0  0  0  0
   -1.7255    1.1088    4.5641 H   0  0  0  0  0  0  0  0  0  0  0  0
   -0.5319   -0.2118    4.6011 H   0  0  0  0  0  0  0  0  0  0  0  0
  5  6  2  0  0  0  0
  5  7  1  0  0  0  0
  2  3  1  0  0  0  0
  2  4  1  0  0  0  0
  2  5  1  0  0  0  0
  1  2  1  0  0  0  0
 22 23  2  0  0  0  0
 22 24  1  0  0  0  0
 18 19  1  0  0  0  0
 18 20  1  0  0  0  0
 18 21  1  0  0  0  0
 17 18  1  0  0  0  0
 14 15  1  0  0  0  0
 14 16  1  0  0  0  0
 14 17  1  0  0  0  0
 11 12  1  0  0  0  0
 11 13  1  0  0  0  0
 11 14  1  0  0  0  0
  9 10  1  0  0  0  0
  9 11  1  0  0  0  0
  9 22  1  0  0  0  0
  7  8  1  0  0  0  0
  7  9  1  0  0  0  0
 26 27  1  0  0  0  0
 26 28  1  0  0  0  0
 26 29  1  0  0  0  0
 24 25  1  0  0  0  0
 24 26  1  0  0  0  0
M  END
$$$$
default_name
  -OEChem-02102213163D

 29 28  0     1  0  0  0  0  0999 V2000
   -3.5781   -3.7296    1.2702 H   0  0  0  0  0  0  0  0  0  0  0  0
   -3.5311   -2.7616    0.7732 C   0  0  0  0  0  0  0  0  0  0  0  0
   -4.2371   -2.0766    1.2382 H   0  0  0  0  0  0  0  0  0  0  0  0
   -3.7681   -2.8816   -0.2818 H   0  0  0  0  0  0  0  0  0  0  0  0
   -2.1321   -2.2086    0.9112 C   0  0  0  0  0  0  0  0  0  0  0  0
   -1.2751   -2.8426    1.5112 O   0  0  0  0  0  0  0  0  0  0  0  0
   -1.9041   -1.0186    0.3602 N   0  0  0  0  0  0  0  0  0  0  0  0
   -2.6671   -0.5416   -0.0988 H   0  0  0  0  0  0  0  0  0  0  0  0
   -0.6131   -0.3236    0.3832 C   0  0  1  0  0  0  0  0  0  0  0  0
    0.1346   -0.9625   -0.0894 H   0  0  0  0  0  0  0  0  0  0  0  0
   -0.7253    0.9751   -0.4365 C   0  0  0  0  0  0  0  0  0  0  0  0
   -0.7636    1.8223    0.2516 H   0  0  0  0  0  0  0  0  0  0  0  0
    0.1620    1.0836   -1.0619 H   0  0  0  0  0  0  0  0  0  0  0  0
   -1.9668    1.0271   -1.3344 C   0  0  0  0  0  0  0  0  0  0  0  0
   -2.3968    0.0287   -1.4079 H   0  0  0  0  0  0  0  0  0  0  0  0
   -2.7010    1.6924   -0.8786 H   0  0  0  0  0  0  0  0  0  0  0  0
   -1.6249    1.6166   -3.0122 S   0  0  0  0  0  0  0  0  0  0  0  0
   -1.2378    3.3506   -2.6584 C   0  0  0  0  0  0  0  0  0  0  0  0
   -0.3779    3.4064   -1.9903 H   0  0  0  0  0  0  0  0  0  0  0  0
   -1.0026    3.8658   -3.5901 H   0  0  0  0  0  0  0  0  0  0  0  0
   -2.0971    3.8311   -2.1899 H   0  0  0  0  0  0  0  0  0  0  0  0
   -0.1711   -0.0594    1.8296 C   0  0  0  0  0  0  0  0  0  0  0  0
    0.9865   -0.2908    2.1726 O   0  0  0  0  0  0  0  0  0  0  0  0
   -1.0921    0.4156    2.6780 N   0  0  0  0  0  0  0  0  0  0  0  0
   -2.0168    0.5953    2.3206 H   0  0  0  0  0  0  0  0  0  0  0  0
   -0.8319    0.7034    4.0877 C   0  0  0  0  0  0  0  0  0  0  0  0
   -0.0192    1.4288    4.1710 H   0  0  0  0  0  0  0  0  0  0  0  0
   -1.7255    1.1088    4.5641 H   0  0  0  0  0  0  0  0  0  0  0  0
   -0.5319   -0.2118    4.6011 H   0  0  0  0  0  0  0  0  0  0  0  0
  5  6  2  0  0  0  0
  5  7  1  0  0  0  0
  2  3  1  0  0  0  0
  2  4  1  0  0  0  0
  2  5  1  0  0  0  0
  1  2  1  0  0  0  0
 22 23  2  0  0  0  0
 22 24  1  0  0  0  0
 18 19  1  0  0  0  0
 18 20  1  0  0  0  0
 18 21  1  0  0  0  0
 17 18  1  0  0  0  0
 14 15  1  0  0  0  0
 14 16  1  0  0  0  0
 14 17  1  0  0  0  0
 11 12  1  0  0  0  0
 11 13  1  0  0  0  0
 11 14  1  0  0  0  0
  9 10  1  0  0  0  0
  9 11  1  0  0  0  0
  9 22  1  0  0  0  0
  7  8  1  0  0  0  0
  7  9  1  0  0  0  0
 26 27  1  0  0  0  0
 26 28  1  0  0  0  0
 26 29  1  0  0  0  0
 24 25  1  0  0  0  0
 24 26  1  0  0  0  0
M  END
$$$$
default_name
  -OEChem-02102213163D

 29 28  0     1  0  0  0  0  0999 V2000
   -3.5781   -3.7296    1.2702 H   0  0  0  0  0  0  0  0  0  0  0  0
   -3.5311   -2.7616    0.7732 C   0  0  0  0  0  0  0  0  0  0  0  0
   -4.2371   -2.0766    1.2382 H   0  0  0  0  0  0  0  0  0  0  0  0
   -3.7681   -2.8816   -0.2818 H   0  0  0  0  0  0  0  0  0  0  0  0
   -2.1321   -2.2086    0.9112 C   0  0  0  0  0  0  0  0  0  0  0  0
   -1.2751   -2.8426    1.5112 O   0  0  0  0  0  0  0  0  0  0  0  0
   -1.9041   -1.0186    0.3602 N   0  0  0  0  0  0  0  0  0  0  0  0
   -2.6671   -0.5416   -0.0988 H   0  0  0  0  0  0  0  0  0  0  0  0
   -0.6131   -0.3236    0.3832 C   0  0  1  0  0  0  0  0  0  0  0  0
    0.1346   -0.9625   -0.0894 H   0  0  0  0  0  0  0  0  0  0  0  0
   -0.7253    0.9751   -0.4365 C   0  0  0  0  0  0  0  0  0  0  0  0
   -0.7636    1.8223    0.2516 H   0  0  0  0  0  0  0  0  0  0  0  0
    0.1620    1.0836   -1.0619 H   0  0  0  0  0  0  0  0  0  0  0  0
   -1.9668    1.0271   -1.3344 C   0  0  0  0  0  0  0  0  0  0  0  0
   -2.5440    0.1129   -1.1995 H   0  0  0  0  0  0  0  0  0  0  0  0
   -2.5808    1.8770   -1.0342 H   0  0  0  0  0  0  0  0  0  0  0  0
   -1.5820    1.1939   -3.0961 S   0  0  0  0  0  0  0  0  0  0  0  0
   -0.9293    2.8837   -3.1119 C   0  0  0  0  0  0  0  0  0  0  0  0
   -0.0544    2.9460   -2.4642 H   0  0  0  0  0  0  0  0  0  0  0  0
   -0.6425    3.1509   -4.1294 H   0  0  0  0  0  0  0  0  0  0  0  0
   -1.6945    3.5769   -2.7613 H   0  0  0  0  0  0  0  0  0  0  0  0
   -0.1711   -0.0594    1.8296 C   0  0  0  0  0  0  0  0  0  0  0  0
    0.9865   -0.2908    2.1726 O   0  0  0  0  0  0  0  0  0  0  0  0
   -1.0921    0.4156    2.6780 N   0  0  0  0  0  0  0  0  0  0  0  0
   -2.0168    0.5953    2.3206 H   0  0  0  0  0  0  0  0  0  0  0  0
   -0.8319    0.7034    4.0877 C   0  0  0  0  0  0  0  0  0  0  0  0
   -0.0192    1.4288    4.1710 H   0  0  0  0  0  0  0  0  0  0  0  0
   -1.7255    1.1088    4.5641 H   0  0  0  0  0  0  0  0  0  0  0  0
   -0.5319   -0.2118    4.6011 H   0  0  0  0  0  0  0  0  0  0  0  0
  5  6  2  0  0  0  0
  5  7  1  0  0  0  0
  2  3  1  0  0  0  0
  2  4  1  0  0  0  0
  2  5  1  0  0  0  0
  1  2  1  0  0  0  0
 22 23  2  0  0  0  0
 22 24  1  0  0  0  0
 18 19  1  0  0  0  0
 18 20  1  0  0  0  0
 18 21  1  0  0  0  0
 17 18  1  0  0  0  0
 14 15  1  0  0  0  0
 14 16  1  0  0  0  0
 14 17  1  0  0  0  0
 11 12  1  0  0  0  0
 11 13  1  0  0  0  0
 11 14  1  0  0  0  0
  9 10  1  0  0  0  0
  9 11  1  0  0  0  0
  9 22  1  0  0  0  0
  7  8  1  0  0  0  0
  7  9  1  0  0  0  0
 26 27  1  0  0  0  0
 26 28  1  0  0  0  0
 26 29  1  0  0  0  0
 24 25  1  0  0  0  0
 24 26  1  0  0  0  0
M  END
$$$$
default_name
  -OEChem-02102213163D

 29 28  0     1  0  0  0  0  0999 V2000
   -3.5781   -3.7296    1.2702 H   0  0  0  0  0  0  0  0  0  0  0  0
   -3.5311   -2.7616    0.7732 C   0  0  0  0  0  0  0  0  0  0  0  0
   -4.2371   -2.0766    1.2382 H   0  0  0  0  0  0  0  0  0  0  0  0
   -3.7681   -2.8816   -0.2818 H   0  0  0  0  0  0  0  0  0  0  0  0
   -2.1321   -2.2086    0.9112 C   0  0  0  0  0  0  0  0  0  0  0  0
   -1.2751   -2.8426    1.5112 O   0  0  0  0  0  0  0  0  0  0  0  0
   -1.9041   -1.0186    0.3602 N   0  0  0  0  0  0  0  0  0  0  0  0
   -2.6671   -0.5416   -0.0988 H   0  0  0  0  0  0  0  0  0  0  0  0
   -0.6131   -0.3236    0.3832 C   0  0  1  0  0  0  0  0  0  0  0  0
    0.1346   -0.9625   -0.0894 H   0  0  0  0  0  0  0  0  0  0  0  0
   -0.7253    0.9751   -0.4365 C   0  0  0  0  0  0  0  0  0  0  0  0
   -0.7636    1.8223    0.2516 H   0  0  0  0  0  0  0  0  0  0  0  0
    0.1620    1.0836   -1.0619 H   0  0  0  0  0  0  0  0  0  0  0  0
   -1.9668    1.0271   -1.3344 C   0  0  0  0  0  0  0  0  0  0  0  0
   -2.6716    0.2602   -1.0145 H   0  0  0  0  0  0  0  0  0  0  0  0
   -2.4381    2.0044   -1.2241 H   0  0  0  0  0  0  0  0  0  0  0  0
   -1.6053    0.7614   -3.0889 S   0  0  0  0  0  0  0  0  0  0  0  0
   -0.7061    2.2909   -3.4549 C   0  0  0  0  0  0  0  0  0  0  0  0
    0.1841    2.3530   -2.8283 H   0  0  0  0  0  0  0  0  0  0  0  0
   -0.4078    2.2927   -4.5036 H   0  0  0  0  0  0  0  0  0  0  0  0
   -1.3492    3.1504   -3.2635 H   0  0  0  0  0  0  0  0  0  0  0  0
   -0.1711   -0.0594    1.8296 C   0  0  0  0  0  0  0  0  0  0  0  0
    0.9865   -0.2908    2.1726 O   0  0  0  0  0  0  0  0  0  0  0  0
   -1.0921    0.4156    2.6780 N   0  0  0  0  0  0  0  0  0  0  0  0
   -2.0168    0.5953    2.3206 H   0  0  0  0  0  0  0  0  0  0  0  0
   -0.8319    0.7034    4.0877 C   0  0  0  0  0  0  0  0  0  0  0  0
   -0.0192    1.4288    4.1710 H   0  0  0  0  0  0  0  0  0  0  0  0
   -1.7255    1.1088    4.5641 H   0  0  0  0  0  0  0  0  0  0  0  0
   -0.5319   -0.2118    4.6011 H   0  0  0  0  0  0  0  0  0  0  0  0
  5  6  2  0  0  0  0
  5  7  1  0  0  0  0
  2  3  1  0  0  0  0
  2  4  1  0  0  0  0
  2  5  1  0  0  0  0
  1  2  1  0  0  0  0
 22 23  2  0  0  0  0
 22 24  1  0  0  0  0
 18 19  1  0  0  0  0
 18 20  1  0  0  0  0
 18 21  1  0  0  0  0
 17 18  1  0  0  0  0
 14 15  1  0  0  0  0
 14 16  1  0  0  0  0
 14 17  1  0  0  0  0
 11 12  1  0  0  0  0
 11 13  1  0  0  0  0
 11 14  1  0  0  0  0
  9 10  1  0  0  0  0
  9 11  1  0  0  0  0
  9 22  1  0  0  0  0
  7  8  1  0  0  0  0
  7  9  1  0  0  0  0
 26 27  1  0  0  0  0
 26 28  1  0  0  0  0
 26 29  1  0  0  0  0
 24 25  1  0  0  0  0
 24 26  1  0  0  0  0
M  END
$$$$
default_name
  -OEChem-02102213163D

 29 28  0     1  0  0  0  0  0999 V2000
   -3.5781   -3.7296    1.2702 H   0  0  0  0  0  0  0  0  0  0  0  0
   -3.5311   -2.7616    0.7732 C   0  0  0  0  0  0  0  0  0  0  0  0
   -4.2371   -2.0766    1.2382 H   0  0  0  0  0  0  0  0  0  0  0  0
   -3.7681   -2.8816   -0.2818 H   0  0  0  0  0  0  0  0  0  0  0  0
   -2.1321   -2.2086    0.9112 C   0  0  0  0  0  0  0  0  0  0  0  0
   -1.2751   -2.8426    1.5112 O   0  0  0  0  0  0  0  0  0  0  0  0
   -1.9041   -1.0186    0.3602 N   0  0  0  0  0  0  0  0  0  0  0  0
   -2.6671   -0.5416   -0.0988 H   0  0  0  0  0  0  0  0  0  0  0  0
   -0.6131   -0.3236    0.3832 C   0  0  1  0  0  0  0  0  0  0  0  0
    0.1346   -0.9625   -0.0894 H   0  0  0  0  0  0  0  0  0  0  0  0
   -0.7253    0.9751   -0.4365 C   0  0  0  0  0  0  0  0  0  0  0  0
   -0.7636    1.8223    0.2516 H   0  0  0  0  0  0  0  0  0  0  0  0
    0.1620    1.0836   -1.0619 H   0  0  0  0  0  0  0  0  0  0  0  0
   -1.9668    1.0271   -1.3344 C   0  0  0  0  0  0  0  0  0  0  0  0
   -2.7709    0.4606   -0.8656 H   0  0  0  0  0  0  0  0  0  0  0  0
   -2.2826    2.0661   -1.4356 H   0  0  0  0  0  0  0  0  0  0  0  0
   -1.6933    0.3488   -2.9911 S   0  0  0  0  0  0  0  0  0  0  0  0
   -0.5834    1.6126   -3.6639 C   0  0  0  0  0  0  0  0  0  0  0  0
    0.3213    1.6677   -3.0578 H   0  0  0  0  0  0  0  0  0  0  0  0
   -0.3145    1.3497   -4.6873 H   0  0  0  0  0  0  0  0  0  0  0  0
   -1.0847    2.5809   -3.6622 H   0  0  0  0  0  0  0  0  0  0  0  0
   -0.1711   -0.0594    1.8296 C   0  0  0  0  0  0  0  0  0  0  0  0
    0.9865   -0.2908    2.1726 O   0  0  0  0  0  0  0  0  0  0  0  0
   -1.0921    0.4156    2.6780 N   0  0  0  0  0  0  0  0  0  0  0  0
   -2.0168    0.5953    2.3206 H   0  0  0  0  0  0  0  0  0  0  0  0
   -0.8319    0.7034    4.0877 C   0  0  0  0  0  0  0  0  0  0  0  0
   -0.0192    1.4288    4.1710 H   0  0  0  0  0  0  0  0  0  0  0  0
   -1.7255    1.1088    4.5641 H   0  0  0  0  0  0  0  0  0  0  0  0
   -0.5319   -0.2118    4.6011 H   0  0  0  0  0  0  0  0  0  0  0  0
  5  6  2  0  0  0  0
  5  7  1  0  0  0  0
  2  3  1  0  0  0  0
  2  4  1  0  0  0  0
  2  5  1  0  0  0  0
  1  2  1  0  0  0  0
 22 23  2  0  0  0  0
 22 24  1  0  0  0  0
 18 19  1  0  0  0  0
 18 20  1  0  0  0  0
 18 21  1  0  0  0  0
 17 18  1  0  0  0  0
 14 15  1  0  0  0  0
 14 16  1  0  0  0  0
 14 17  1  0  0  0  0
 11 12  1  0  0  0  0
 11 13  1  0  0  0  0
 11 14  1  0  0  0  0
  9 10  1  0  0  0  0
  9 11  1  0  0  0  0
  9 22  1  0  0  0  0
  7  8  1  0  0  0  0
  7  9  1  0  0  0  0
 26 27  1  0  0  0  0
 26 28  1  0  0  0  0
 26 29  1  0  0  0  0
 24 25  1  0  0  0  0
 24 26  1  0  0  0  0
M  END
$$$$
default_name
  -OEChem-02102213163D

 29 28  0     1  0  0  0  0  0999 V2000
   -3.5781   -3.7296    1.2702 H   0  0  0  0  0  0  0  0  0  0  0  0
   -3.5311   -2.7616    0.7732 C   0  0  0  0  0  0  0  0  0  0  0  0
   -4.2371   -2.0766    1.2382 H   0  0  0  0  0  0  0  0  0  0  0  0
   -3.7681   -2.8816   -0.2818 H   0  0  0  0  0  0  0  0  0  0  0  0
   -2.1321   -2.2086    0.9112 C   0  0  0  0  0  0  0  0  0  0  0  0
   -1.2751   -2.8426    1.5112 O   0  0  0  0  0  0  0  0  0  0  0  0
   -1.9041   -1.0186    0.3602 N   0  0  0  0  0  0  0  0  0  0  0  0
   -2.6671   -0.5416   -0.0988 H   0  0  0  0  0  0  0  0  0  0  0  0
   -0.6131   -0.3236    0.3832 C   0  0  1  0  0  0  0  0  0  0  0  0
    0.1346   -0.9625   -0.0894 H   0  0  0  0  0  0  0  0  0  0  0  0
   -0.7253    0.9751   -0.4365 C   0  0  0  0  0  0  0  0  0  0  0  0
   -0.7636    1.8223    0.2516 H   0  0  0  0  0  0  0  0  0  0  0  0
    0.1620    1.0836   -1.0619 H   0  0  0  0  0  0  0  0  0  0  0  0
   -1.9668    1.0271   -1.3344 C   0  0  0  0  0  0  0  0  0  0  0  0
   -2.8351    0.7005   -0.7629 H   0  0  0  0  0  0  0  0  0  0  0  0
   -2.1249    2.0577   -1.6541 H   0  0  0  0  0  0  0  0  0  0  0  0
   -1.8401   -0.0160   -2.8094 S   0  0  0  0  0  0  0  0  0  0  0  0
   -0.5696    0.8950   -3.7247 C   0  0  0  0  0  0  0  0  0  0  0  0
    0.3480    0.9368   -3.1370 H   0  0  0  0  0  0  0  0  0  0  0  0
   -0.3689    0.3862   -4.6679 H   0  0  0  0  0  0  0  0  0  0  0  0
   -0.9190    1.9071   -3.9304 H   0  0  0  0  0  0  0  0  0  0  0  0
   -0.1711   -0.0594    1.8296 C   0  0  0  0  0  0  0  0  0  0  0  0
    0.9865   -0.2908    2.1726 O   0  0  0  0  0  0  0  0  0  0  0  0
   -1.0921    0.4156    2.6780 N   0  0  0  0  0  0  0  0  0  0  0  0
   -2.0168    0.5953    2.3206 H   0  0  0  0  0  0  0  0  0  0  0  0
   -0.8319    0.7034    4.0877 C   0  0  0  0  0  0  0  0  0  0  0  0
   -0.0192    1.4288    4.1710 H   0  0  0  0  0  0  0  0  0  0  0  0
   -1.7255    1.1088    4.5641 H   0  0  0  0  0  0  0  0  0  0  0  0
   -0.5319   -0.2118    4.6011 H   0  0  0  0  0  0  0  0  0  0  0  0
  5  6  2  0  0  0  0
  5  7  1  0  0  0  0
  2  3  1  0  0  0  0
  2  4  1  0  0  0  0
  2  5  1  0  0  0  0
  1  2  1  0  0  0  0
 22 23  2  0  0  0  0
 22 24  1  0  0  0  0
 18 19  1  0  0  0  0
 18 20  1  0  0  0  0
 18 21  1  0  0  0  0
 17 18  1  0  0  0  0
 14 15  1  0  0  0  0
 14 16  1  0  0  0  0
 14 17  1  0  0  0  0
 11 12  1  0  0  0  0
 11 13  1  0  0  0  0
 11 14  1  0  0  0  0
  9 10  1  0  0  0  0
  9 11  1  0  0  0  0
  9 22  1  0  0  0  0
  7  8  1  0  0  0  0
  7  9  1  0  0  0  0
 26 27  1  0  0  0  0
 26 28  1  0  0  0  0
 26 29  1  0  0  0  0
 24 25  1  0  0  0  0
 24 26  1  0  0  0  0
M  END
$$$$
default_name
  -OEChem-02102213163D

 29 28  0     1  0  0  0  0  0999 V2000
   -3.5781   -3.7296    1.2702 H   0  0  0  0  0  0  0  0  0  0  0  0
   -3.5311   -2.7616    0.7732 C   0  0  0  0  0  0  0  0  0  0  0  0
   -4.2371   -2.0766    1.2382 H   0  0  0  0  0  0  0  0  0  0  0  0
   -3.7681   -2.8816   -0.2818 H   0  0  0  0  0  0  0  0  0  0  0  0
   -2.1321   -2.2086    0.9112 C   0  0  0  0  0  0  0  0  0  0  0  0
   -1.2751   -2.8426    1.5112 O   0  0  0  0  0  0  0  0  0  0  0  0
   -1.9041   -1.0186    0.3602 N   0  0  0  0  0  0  0  0  0  0  0  0
   -2.6671   -0.5416   -0.0988 H   0  0  0  0  0  0  0  0  0  0  0  0
   -0.6131   -0.3236    0.3832 C   0  0  1  0  0  0  0  0  0  0  0  0
    0.1346   -0.9625   -0.0894 H   0  0  0  0  0  0  0  0  0  0  0  0
   -0.7253    0.9751   -0.4365 C   0  0  0  0  0  0  0  0  0  0  0  0
   -0.7636    1.8223    0.2516 H   0  0  0  0  0  0  0  0  0  0  0  0
    0.1620    1.0836   -1.0619 H   0  0  0  0  0  0  0  0  0  0  0  0
   -1.9668    1.0271   -1.3344 C   0  0  0  0  0  0  0  0  0  0  0  0
   -2.8599    0.9634   -0.7135 H   0  0  0  0  0  0  0  0  0  0  0  0
   -1.9757    1.9799   -1.8648 H   0  0  0  0  0  0  0  0  0  0  0  0
   -2.0355   -0.3080   -2.5561 S   0  0  0  0  0  0  0  0  0  0  0  0
   -0.6655    0.1870   -3.6331 C   0  0  0  0  0  0  0  0  0  0  0  0
    0.2623    0.2102   -3.0606 H   0  0  0  0  0  0  0  0  0  0  0  0
   -0.5674   -0.5322   -4.4467 H   0  0  0  0  0  0  0  0  0  0  0  0
   -0.8635    1.1750   -4.0496 H   0  0  0  0  0  0  0  0  0  0  0  0
   -0.1711   -0.0594    1.8296 C   0  0  0  0  0  0  0  0  0  0  0  0
    0.9865   -0.2908    2.1726 O   0  0  0  0  0  0  0  0  0  0  0  0
   -1.0921    0.4156    2.6780 N   0  0  0  0  0  0  0  0  0  0  0  0
   -2.0168    0.5953    2.3206 H   0  0  0  0  0  0  0  0  0  0  0  0
   -0.8319    0.7034    4.0877 C   0  0  0  0  0  0  0  0  0  0  0  0
   -0.0192    1.4288    4.1710 H   0  0  0  0  0  0  0  0  0  0  0  0
   -1.7255    1.1088    4.5641 H   0  0  0  0  0  0  0  0  0  0  0  0
   -0.5319   -0.2118    4.6011 H   0  0  0  0  0  0  0  0  0  0  0  0
  5  6  2  0  0  0  0
  5  7  1  0  0  0  0
  2  3  1  0  0  0  0
  2  4  1  0  0  0  0
  2  5  1  0  0  0  0
  1  2  1  0  0  0  0
 22 23  2  0  0  0  0
 22 24  1  0  0  0  0
 18 19  1  0  0  0  0
 18 20  1  0  0  0  0
 18 21  1  0  0  0  0
 17 18  1  0  0  0  0
 14 15  1  0  0  0  0
 14 16  1  0  0  0  0
 14 17  1  0  0  0  0
 11 12  1  0  0  0  0
 11 13  1  0  0  0  0
 11 14  1  0  0  0  0
  9 10  1  0  0  0  0
  9 11  1  0  0  0  0
  9 22  1  0  0  0  0
  7  8  1  0  0  0  0
  7  9  1  0  0  0  0
 26 27  1  0  0  0  0
 26 28  1  0  0  0  0
 26 29  1  0  0  0  0
 24 25  1  0  0  0  0
 24 26  1  0  0  0  0
M  END
$$$$
default_name
  -OEChem-02102213163D

 29 28  0     1  0  0  0  0  0999 V2000
   -3.5781   -3.7296    1.2702 H   0  0  0  0  0  0  0  0  0  0  0  0
   -3.5311   -2.7616    0.7732 C   0  0  0  0  0  0  0  0  0  0  0  0
   -4.2371   -2.0766    1.2382 H   0  0  0  0  0  0  0  0  0  0  0  0
   -3.7681   -2.8816   -0.2818 H   0  0  0  0  0  0  0  0  0  0  0  0
   -2.1321   -2.2086    0.9112 C   0  0  0  0  0  0  0  0  0  0  0  0
   -1.2751   -2.8426    1.5112 O   0  0  0  0  0  0  0  0  0  0  0  0
   -1.9041   -1.0186    0.3602 N   0  0  0  0  0  0  0  0  0  0  0  0
   -2.6671   -0.5416   -0.0988 H   0  0  0  0  0  0  0  0  0  0  0  0
   -0.6131   -0.3236    0.3832 C   0  0  1  0  0  0  0  0  0  0  0  0
    0.1346   -0.9625   -0.0894 H   0  0  0  0  0  0  0  0  0  0  0  0
   -0.7253    0.9751   -0.4365 C   0  0  0  0  0  0  0  0  0  0  0  0
   -0.7636    1.8223    0.2516 H   0  0  0  0  0  0  0  0  0  0  0  0
    0.1620    1.0836   -1.0619 H   0  0  0  0  0  0  0  0  0  0  0  0
   -1.9668    1.0271   -1.3344 C   0  0  0  0  0  0  0  0  0  0  0  0
   -2.8435    1.2315   -0.7206 H   0  0  0  0  0  0  0  0  0  0  0  0
   -1.8453    1.8381   -2.0534 H   0  0  0  0  0  0  0  0  0  0  0  0
   -2.2663   -0.5073   -2.2485 S   0  0  0  0  0  0  0  0  0  0  0  0
   -0.8646   -0.4631   -3.3954 C   0  0  0  0  0  0  0  0  0  0  0  0
    0.0700   -0.4626   -2.8338 H   0  0  0  0  0  0  0  0  0  0  0  0
   -0.8963   -1.3428   -4.0388 H   0  0  0  0  0  0  0  0  0  0  0  0
   -0.9219    0.4344   -4.0118 H   0  0  0  0  0  0  0  0  0  0  0  0
   -0.1711   -0.0594    1.8296 C   0  0  0  0  0  0  0  0  0  0  0  0
    0.9865   -0.2908    2.1726 O   0  0  0  0  0  0  0  0  0  0  0  0
   -1.0921    0.4156    2.6780 N   0  0  0  0  0  0  0  0  0  0  0  0
   -2.0168    0.5953    2.3206 H   0  0  0  0  0  0  0  0  0  0  0  0
   -0.8319    0.7034    4.0877 C   0  0  0  0  0  0  0  0  0  0  0  0
   -0.0192    1.4288    4.1710 H   0  0  0  0  0  0  0  0  0  0  0  0
   -1.7255    1.1088    4.5641 H   0  0  0  0  0  0  0  0  0  0  0  0
   -0.5319   -0.2118    4.6011 H   0  0  0  0  0  0  0  0  0  0  0  0
  5  6  2  0  0  0  0
  5  7  1  0  0  0  0
  2  3  1  0  0  0  0
  2  4  1  0  0  0  0
  2  5  1  0  0  0  0
  1  2  1  0  0  0  0
 22 23  2  0  0  0  0
 22 24  1  0  0  0  0
 18 19  1  0  0  0  0
 18 20  1  0  0  0  0
 18 21  1  0  0  0  0
 17 18  1  0  0  0  0
 14 15  1  0  0  0  0
 14 16  1  0  0  0  0
 14 17  1  0  0  0  0
 11 12  1  0  0  0  0
 11 13  1  0  0  0  0
 11 14  1  0  0  0  0
  9 10  1  0  0  0  0
  9 11  1  0  0  0  0
  9 22  1  0  0  0  0
  7  8  1  0  0  0  0
  7  9  1  0  0  0  0
 26 27  1  0  0  0  0
 26 28  1  0  0  0  0
 26 29  1  0  0  0  0
 24 25  1  0  0  0  0
 24 26  1  0  0  0  0
M  END
$$$$
default_name
  -OEChem-02102213163D

 29 28  0     1  0  0  0  0  0999 V2000
   -3.5781   -3.7296    1.2702 H   0  0  0  0  0  0  0  0  0  0  0  0
   -3.5311   -2.7616    0.7732 C   0  0  0  0  0  0  0  0  0  0  0  0
   -4.2371   -2.0766    1.2382 H   0  0  0  0  0  0  0  0  0  0  0  0
   -3.7681   -2.8816   -0.2818 H   0  0  0  0  0  0  0  0  0  0  0  0
   -2.1321   -2.2086    0.9112 C   0  0  0  0  0  0  0  0  0  0  0  0
   -1.2751   -2.8426    1.5112 O   0  0  0  0  0  0  0  0  0  0  0  0
   -1.9041   -1.0186    0.3602 N   0  0  0  0  0  0  0  0  0  0  0  0
   -2.6671   -0.5416   -0.0988 H   0  0  0  0  0  0  0  0  0  0  0  0
   -0.6131   -0.3236    0.3832 C   0  0  1  0  0  0  0  0  0  0  0  0
    0.1346   -0.9625   -0.0894 H   0  0  0  0  0  0  0  0  0  0  0  0
   -0.7253    0.9751   -0.4365 C   0  0  0  0  0  0  0  0  0  0  0  0
   -0.7636    1.8223    0.2516 H   0  0  0  0  0  0  0  0  0  0  0  0
    0.1620    1.0836   -1.0619 H   0  0  0  0  0  0  0  0  0  0  0  0
   -1.9668    1.0271   -1.3344 C   0  0  0  0  0  0  0  0  0  0  0  0
   -2.7871    1.4865   -0.7837 H   0  0  0  0  0  0  0  0  0  0  0  0
   -1.7425    1.6417   -2.2069 H   0  0  0  0  0  0  0  0  0  0  0  0
   -2.5167   -0.6004   -1.9076 S   0  0  0  0  0  0  0  0  0  0  0  0
   -1.1535   -1.0111   -3.0277 C   0  0  0  0  0  0  0  0  0  0  0  0
   -0.2157   -1.0358   -2.4719 H   0  0  0  0  0  0  0  0  0  0  0  0
   -1.3334   -1.9904   -3.4721 H   0  0  0  0  0  0  0  0  0  0  0  0
   -1.0902   -0.2641   -3.8195 H   0  0  0  0  0  0  0  0  0  0  0  0
   -0.1711   -0.0594    1.8296 C   0  0  0  0  0  0  0  0  0  0  0  0
    0.9865   -0.2908    2.1726 O   0  0  0  0  0  0  0  0  0  0  0  0
   -1.0921    0.4156    2.6780 N   0  0  0  0  0  0  0  0  0  0  0  0
   -2.0168    0.5953    2.3206 H   0  0  0  0  0  0  0  0  0  0  0  0
   -0.8319    0.7034    4.0877 C   0  0  0  0  0  0  0  0  0  0  0  0
   -0.0192    1.4288    4.1710 H   0  0  0  0  0  0  0  0  0  0  0  0
   -1.7255    1.1088    4.5641 H   0  0  0  0  0  0  0  0  0  0  0  0
   -0.5319   -0.2118    4.6011 H   0  0  0  0  0  0  0  0  0  0  0  0
  5  6  2  0  0  0  0
  5  7  1  0  0  0  0
  2  3  1  0  0  0  0
  2  4  1  0  0  0  0
  2  5  1  0  0  0  0
  1  2  1  0  0  0  0
 22 23  2  0  0  0  0
 22 24  1  0  0  0  0
 18 19  1  0  0  0  0
 18 20  1  0  0  0  0
 18 21  1  0  0  0  0
 17 18  1  0  0  0  0
 14 15  1  0  0  0  0
 14 16  1  0  0  0  0
 14 17  1  0  0  0  0
 11 12  1  0  0  0  0
 11 13  1  0  0  0  0
 11 14  1  0  0  0  0
  9 10  1  0  0  0  0
  9 11  1  0  0  0  0
  9 22  1  0  0  0  0
  7  8  1  0  0  0  0
  7  9  1  0  0  0  0
 26 27  1  0  0  0  0
 26 28  1  0  0  0  0
 26 29  1  0  0  0  0
 24 25  1  0  0  0  0
 24 26  1  0  0  0  0
M  END
$$$$
default_name
  -OEChem-02102213163D

 29 28  0     1  0  0  0  0  0999 V2000
   -3.5781   -3.7296    1.2702 H   0  0  0  0  0  0  0  0  0  0  0  0
   -3.5311   -2.7616    0.7732 C   0  0  0  0  0  0  0  0  0  0  0  0
   -4.2371   -2.0766    1.2382 H   0  0  0  0  0  0  0  0  0  0  0  0
   -3.7681   -2.8816   -0.2818 H   0  0  0  0  0  0  0  0  0  0  0  0
   -2.1321   -2.2086    0.9112 C   0  0  0  0  0  0  0  0  0  0  0  0
   -1.2751   -2.8426    1.5112 O   0  0  0  0  0  0  0  0  0  0  0  0
   -1.9041   -1.0186    0.3602 N   0  0  0  0  0  0  0  0  0  0  0  0
   -2.6671   -0.5416   -0.0988 H   0  0  0  0  0  0  0  0  0  0  0  0
   -0.6131   -0.3236    0.3832 C   0  0  1  0  0  0  0  0  0  0  0  0
    0.1346   -0.9625   -0.0894 H   0  0  0  0  0  0  0  0  0  0  0  0
   -0.7253    0.9751   -0.4365 C   0  0  0  0  0  0  0  0  0  0  0  0
   -0.7636    1.8223    0.2516 H   0  0  0  0  0  0  0  0  0  0  0  0
    0.1620    1.0836   -1.0619 H   0  0  0  0  0  0  0  0  0  0  0  0
   -1.9668    1.0271   -1.3344 C   0  0  0  0  0  0  0  0  0  0  0  0
   -2.6945    1.7110   -0.8987 H   0  0  0  0  0  0  0  0  0  0  0  0
   -1.6743    1.4043   -2.3150 H   0  0  0  0  0  0  0  0  0  0  0  0
   -2.7698   -0.5809   -1.5566 S   0  0  0  0  0  0  0  0  0  0  0  0
   -1.5123   -1.4196   -2.5552 C   0  0  0  0  0  0  0  0  0  0  0  0
   -0.5754   -1.4704   -1.9998 H   0  0  0  0  0  0  0  0  0  0  0  0
   -1.8487   -2.4309   -2.7850 H   0  0  0  0  0  0  0  0  0  0  0  0
   -1.3570   -0.8731   -3.4859 H   0  0  0  0  0  0  0  0  0  0  0  0
   -0.1711   -0.0594    1.8296 C   0  0  0  0  0  0  0  0  0  0  0  0
    0.9865   -0.2908    2.1726 O   0  0  0  0  0  0  0  0  0  0  0  0
   -1.0921    0.4156    2.6780 N   0  0  0  0  0  0  0  0  0  0  0  0
   -2.0168    0.5953    2.3206 H   0  0  0  0  0  0  0  0  0  0  0  0
   -0.8319    0.7034    4.0877 C   0  0  0  0  0  0  0  0  0  0  0  0
   -0.0192    1.4288    4.1710 H   0  0  0  0  0  0  0  0  0  0  0  0
   -1.7255    1.1088    4.5641 H   0  0  0  0  0  0  0  0  0  0  0  0
   -0.5319   -0.2118    4.6011 H   0  0  0  0  0  0  0  0  0  0  0  0
  5  6  2  0  0  0  0
  5  7  1  0  0  0  0
  2  3  1  0  0  0  0
  2  4  1  0  0  0  0
  2  5  1  0  0  0  0
  1  2  1  0  0  0  0
 22 23  2  0  0  0  0
 22 24  1  0  0  0  0
 18 19  1  0  0  0  0
 18 20  1  0  0  0  0
 18 21  1  0  0  0  0
 17 18  1  0  0  0  0
 14 15  1  0  0  0  0
 14 16  1  0  0  0  0
 14 17  1  0  0  0  0
 11 12  1  0  0  0  0
 11 13  1  0  0  0  0
 11 14  1  0  0  0  0
  9 10  1  0  0  0  0
  9 11  1  0  0  0  0
  9 22  1  0  0  0  0
  7  8  1  0  0  0  0
  7  9  1  0  0  0  0
 26 27  1  0  0  0  0
 26 28  1  0  0  0  0
 26 29  1  0  0  0  0
 24 25  1  0  0  0  0
 24 26  1  0  0  0  0
M  END
$$$$
default_name
  -OEChem-02102213163D

 29 28  0     1  0  0  0  0  0999 V2000
   -3.5781   -3.7296    1.2702 H   0  0  0  0  0  0  0  0  0  0  0  0
   -3.5311   -2.7616    0.7732 C   0  0  0  0  0  0  0  0  0  0  0  0
   -4.2371   -2.0766    1.2382 H   0  0  0  0  0  0  0  0  0  0  0  0
   -3.7681   -2.8816   -0.2818 H   0  0  0  0  0  0  0  0  0  0  0  0
   -2.1321   -2.2086    0.9112 C   0  0  0  0  0  0  0  0  0  0  0  0
   -1.2751   -2.8426    1.5112 O   0  0  0  0  0  0  0  0  0  0  0  0
   -1.9041   -1.0186    0.3602 N   0  0  0  0  0  0  0  0  0  0  0  0
   -2.6671   -0.5416   -0.0988 H   0  0  0  0  0  0  0  0  0  0  0  0
   -0.6131   -0.3236    0.3832 C   0  0  1  0  0  0  0  0  0  0  0  0
    0.1346   -0.9625   -0.0894 H   0  0  0  0  0  0  0  0  0  0  0  0
   -0.7253    0.9751   -0.4365 C   0  0  0  0  0  0  0  0  0  0  0  0
   -0.7636    1.8223    0.2516 H   0  0  0  0  0  0  0  0  0  0  0  0
    0.1620    1.0836   -1.0619 H   0  0  0  0  0  0  0  0  0  0  0  0
   -1.9668    1.0271   -1.3344 C   0  0  0  0  0  0  0  0  0  0  0  0
   -2.5721    1.8898   -1.0577 H   0  0  0  0  0  0  0  0  0  0  0  0
   -1.6454    1.1420   -2.3702 H   0  0  0  0  0  0  0  0  0  0  0  0
   -3.0081   -0.4501   -1.2195 S   0  0  0  0  0  0  0  0  0  0  0  0
   -1.9167   -1.6607   -2.0101 C   0  0  0  0  0  0  0  0  0  0  0  0
   -0.9845   -1.7366   -1.4495 H   0  0  0  0  0  0  0  0  0  0  0  0
   -2.4072   -2.6343   -2.0246 H   0  0  0  0  0  0  0  0  0  0  0  0
   -1.7041   -1.3509   -3.0337 H   0  0  0  0  0  0  0  0  0  0  0  0
   -0.1711   -0.0594    1.8296 C   0  0  0  0  0  0  0  0  0  0  0  0
    0.9865   -0.2908    2.1726 O   0  0  0  0  0  0  0  0  0  0  0  0
   -1.0921    0.4156    2.6780 N   0  0  0  0  0  0  0  0  0  0  0  0
   -2.0168    0.5953    2.3206 H   0  0  0  0  0  0  0  0  0  0  0  0
   -0.8319    0.7034    4.0877 C   0  0  0  0  0  0  0  0  0  0  0  0
   -0.0192    1.4288    4.1710 H   0  0  0  0  0  0  0  0  0  0  0  0
   -1.7255    1.1088    4.5641 H   0  0  0  0  0  0  0  0  0  0  0  0
   -0.5319   -0.2118    4.6011 H   0  0  0  0  0  0  0  0  0  0  0  0
  5  6  2  0  0  0  0
  5  7  1  0  0  0  0
  2  3  1  0  0  0  0
  2  4  1  0  0  0  0
  2  5  1  0  0  0  0
  1  2  1  0  0  0  0
 22 23  2  0  0  0  0
 22 24  1  0  0  0  0
 18 19  1  0  0  0  0
 18 20  1  0  0  0  0
 18 21  1  0  0  0  0
 17 18  1  0  0  0  0
 14 15  1  0  0  0  0
 14 16  1  0  0  0  0
 14 17  1  0  0  0  0
 11 12  1  0  0  0  0
 11 13  1  0  0  0  0
 11 14  1  0  0  0  0
  9 10  1  0  0  0  0
  9 11  1  0  0  0  0
  9 22  1  0  0  0  0
  7  8  1  0  0  0  0
  7  9  1  0  0  0  0
 26 27  1  0  0  0  0
 26 28  1  0  0  0  0
 26 29  1  0  0  0  0
 24 25  1  0  0  0  0
 24 26  1  0  0  0  0
M  END
$$$$
default_name
  -OEChem-02102213163D

 29 28  0     1  0  0  0  0  0999 V2000
   -3.5781   -3.7296    1.2702 H   0  0  0  0  0  0  0  0  0  0  0  0
   -3.5311   -2.7616    0.7732 C   0  0  0  0  0  0  0  0  0  0  0  0
   -4.2371   -2.0766    1.2382 H   0  0  0  0  0  0  0  0  0  0  0  0
   -3.7681   -2.8816   -0.2818 H   0  0  0  0  0  0  0  0  0  0  0  0
   -2.1321   -2.2086    0.9112 C   0  0  0  0  0  0  0  0  0  0  0  0
   -1.2751   -2.8426    1.5112 O   0  0  0  0  0  0  0  0  0  0  0  0
   -1.9041   -1.0186    0.3602 N   0  0  0  0  0  0  0  0  0  0  0  0
   -2.6671   -0.5416   -0.0988 H   0  0  0  0  0  0  0  0  0  0  0  0
   -0.6131   -0.3236    0.3832 C   0  0  1  0  0  0  0  0  0  0  0  0
    0.1346   -0.9625   -0.0894 H   0  0  0  0  0  0  0  0  0  0  0  0
   -0.7253    0.9751   -0.4365 C   0  0  0  0  0  0  0  0  0  0  0  0
   -0.7636    1.8223    0.2516 H   0  0  0  0  0  0  0  0  0  0  0  0
    0.1620    1.0836   -1.0619 H   0  0  0  0  0  0  0  0  0  0  0  0
   -1.9668    1.0271   -1.3344 C   0  0  0  0  0  0  0  0  0  0  0  0
   -2.4281    2.0105   -1.2497 H   0  0  0  0  0  0  0  0  0  0  0  0
   -1.6577    0.8726   -2.3688 H   0  0  0  0  0  0  0  0  0  0  0  0
   -3.2156   -0.2170   -0.9191 S   0  0  0  0  0  0  0  0  0  0  0  0
   -2.3391   -1.7180   -1.4294 C   0  0  0  0  0  0  0  0  0  0  0  0
   -1.4153   -1.8164   -0.8585 H   0  0  0  0  0  0  0  0  0  0  0  0
   -2.9709   -2.5867   -1.2424 H   0  0  0  0  0  0  0  0  0  0  0  0
   -2.1078   -1.6651   -2.4936 H   0  0  0  0  0  0  0  0  0  0  0  0
   -0.1711   -0.0594    1.8296 C   0  0  0  0  0  0  0  0  0  0  0  0
    0.9865   -0.2908    2.1726 O   0  0  0  0  0  0  0  0  0  0  0  0
   -1.0921    0.4156    2.6780 N   0  0  0  0  0  0  0  0  0  0  0  0
   -2.0168    0.5953    2.3206 H   0  0  0  0  0  0  0  0  0  0  0  0
   -0.8319    0.7034    4.0877 C   0  0  0  0  0  0  0  0  0  0  0  0
   -0.0192    1.4288    4.1710 H   0  0  0  0  0  0  0  0  0  0  0  0
   -1.7255    1.1088    4.5641 H   0  0  0  0  0  0  0  0  0  0  0  0
   -0.5319   -0.2118    4.6011 H   0  0  0  0  0  0  0  0  0  0  0  0
  5  6  2  0  0  0  0
  5  7  1  0  0  0  0
  2  3  1  0  0  0  0
  2  4  1  0  0  0  0
  2  5  1  0  0  0  0
  1  2  1  0  0  0  0
 22 23  2  0  0  0  0
 22 24  1  0  0  0  0
 18 19  1  0  0  0  0
 18 20  1  0  0  0  0
 18 21  1  0  0  0  0
 17 18  1  0  0  0  0
 14 15  1  0  0  0  0
 14 16  1  0  0  0  0
 14 17  1  0  0  0  0
 11 12  1  0  0  0  0
 11 13  1  0  0  0  0
 11 14  1  0  0  0  0
  9 10  1  0  0  0  0
  9 11  1  0  0  0  0
  9 22  1  0  0  0  0
  7  8  1  0  0  0  0
  7  9  1  0  0  0  0
 26 27  1  0  0  0  0
 26 28  1  0  0  0  0
 26 29  1  0  0  0  0
 24 25  1  0  0  0  0
 24 26  1  0  0  0  0
M  END
$$$$
default_name
  -OEChem-02102213163D

 29 28  0     1  0  0  0  0  0999 V2000
   -3.5781   -3.7296    1.2702 H   0  0  0  0  0  0  0  0  0  0  0  0
   -3.5311   -2.7616    0.7732 C   0  0  0  0  0  0  0  0  0  0  0  0
   -4.2371   -2.0766    1.2382 H   0  0  0  0  0  0  0  0  0  0  0  0
   -3.7681   -2.8816   -0.2818 H   0  0  0  0  0  0  0  0  0  0  0  0
   -2.1321   -2.2086    0.9112 C   0  0  0  0  0  0  0  0  0  0  0  0
   -1.2751   -2.8426    1.5112 O   0  0  0  0  0  0  0  0  0  0  0  0
   -1.9041   -1.0186    0.3602 N   0  0  0  0  0  0  0  0  0  0  0  0
   -2.6671   -0.5416   -0.0988 H   0  0  0  0  0  0  0  0  0  0  0  0
   -0.6131   -0.3236    0.3832 C   0  0  1  0  0  0  0  0  0  0  0  0
    0.1346   -0.9625   -0.0894 H   0  0  0  0  0  0  0  0  0  0  0  0
   -0.7253    0.9751   -0.4365 C   0  0  0  0  0  0  0  0  0  0  0  0
   -0.7636    1.8223    0.2516 H   0  0  0  0  0  0  0  0  0  0  0  0
    0.1620    1.0836   -1.0619 H   0  0  0  0  0  0  0  0  0  0  0  0
   -1.9668    1.0271   -1.3344 C   0  0  0  0  0  0  0  0  0  0  0  0
   -2.2724    2.0651   -1.4618 H   0  0  0  0  0  0  0  0  0  0  0  0
   -1.7104    0.6146   -2.3109 H   0  0  0  0  0  0  0  0  0  0  0  0
   -3.3780    0.1026   -0.6760 S   0  0  0  0  0  0  0  0  0  0  0  0
   -2.7506   -1.5877   -0.8528 C   0  0  0  0  0  0  0  0  0  0  0  0
   -1.8383   -1.7043   -0.2672 H   0  0  0  0  0  0  0  0  0  0  0  0
   -3.5012   -2.2914   -0.4920 H   0  0  0  0  0  0  0  0  0  0  0  0
   -2.5406   -1.7941   -1.9026 H   0  0  0  0  0  0  0  0  0  0  0  0
   -0.1711   -0.0594    1.8296 C   0  0  0  0  0  0  0  0  0  0  0  0
    0.9865   -0.2908    2.1726 O   0  0  0  0  0  0  0  0  0  0  0  0
   -1.0921    0.4156    2.6780 N   0  0  0  0  0  0  0  0  0  0  0  0
   -2.0168    0.5953    2.3206 H   0  0  0  0  0  0  0  0  0  0  0  0
   -0.8319    0.7034    4.0877 C   0  0  0  0  0  0  0  0  0  0  0  0
   -0.0192    1.4288    4.1710 H   0  0  0  0  0  0  0  0  0  0  0  0
   -1.7255    1.1088    4.5641 H   0  0  0  0  0  0  0  0  0  0  0  0
   -0.5319   -0.2118    4.6011 H   0  0  0  0  0  0  0  0  0  0  0  0
  5  6  2  0  0  0  0
  5  7  1  0  0  0  0
  2  3  1  0  0  0  0
  2  4  1  0  0  0  0
  2  5  1  0  0  0  0
  1  2  1  0  0  0  0
 22 23  2  0  0  0  0
 22 24  1  0  0  0  0
 18 19  1  0  0  0  0
 18 20  1  0  0  0  0
 18 21  1  0  0  0  0
 17 18  1  0  0  0  0
 14 15  1  0  0  0  0
 14 16  1  0  0  0  0
 14 17  1  0  0  0  0
 11 12  1  0  0  0  0
 11 13  1  0  0  0  0
 11 14  1  0  0  0  0
  9 10  1  0  0  0  0
  9 11  1  0  0  0  0
  9 22  1  0  0  0  0
  7  8  1  0  0  0  0
  7  9  1  0  0  0  0
 26 27  1  0  0  0  0
 26 28  1  0  0  0  0
 26 29  1  0  0  0  0
 24 25  1  0  0  0  0
 24 26  1  0  0  0  0
M  END
$$$$
default_name
  -OEChem-02102213163D

 29 28  0     1  0  0  0  0  0999 V2000
   -3.5781   -3.7296    1.2702 H   0  0  0  0  0  0  0  0  0  0  0  0
   -3.5311   -2.7616    0.7732 C   0  0  0  0  0  0  0  0  0  0  0  0
   -4.2371   -2.0766    1.2382 H   0  0  0  0  0  0  0  0  0  0  0  0
   -3.7681   -2.8816   -0.2818 H   0  0  0  0  0  0  0  0  0  0  0  0
   -2.1321   -2.2086    0.9112 C   0  0  0  0  0  0  0  0  0  0  0  0
   -1.2751   -2.8426    1.5112 O   0  0  0  0  0  0  0  0  0  0  0  0
   -1.9041   -1.0186    0.3602 N   0  0  0  0  0  0  0  0  0  0  0  0
   -2.6671   -0.5416   -0.0988 H   0  0  0  0  0  0  0  0  0  0  0  0
   -0.6131   -0.3236    0.3832 C   0  0  1  0  0  0  0  0  0  0  0  0
    0.1346   -0.9625   -0.0894 H   0  0  0  0  0  0  0  0  0  0  0  0
   -0.7253    0.9751   -0.4365 C   0  0  0  0  0  0  0  0  0  0  0  0
   -0.7636    1.8223    0.2516 H   0  0  0  0  0  0  0  0  0  0  0  0
    0.1620    1.0836   -1.0619 H   0  0  0  0  0  0  0  0  0  0  0  0
   -1.9668    1.0271   -1.3344 C   0  0  0  0  0  0  0  0  0  0  0  0
   -2.1157    2.0498   -1.6795 H   0  0  0  0  0  0  0  0  0  0  0  0
   -1.7999    0.3855   -2.2004 H   0  0  0  0  0  0  0  0  0  0  0  0
   -3.4843    0.4868   -0.5067 S   0  0  0  0  0  0  0  0  0  0  0  0
   -3.1233   -1.2785   -0.3196 C   0  0  0  0  0  0  0  0  0  0  0  0
   -2.2246   -1.4080    0.2842 H   0  0  0  0  0  0  0  0  0  0  0  0
   -3.9622   -1.7684    0.1756 H   0  0  0  0  0  0  0  0  0  0  0  0
   -2.9731   -1.7293   -1.3009 H   0  0  0  0  0  0  0  0  0  0  0  0
   -0.1711   -0.0594    1.8296 C   0  0  0  0  0  0  0  0  0  0  0  0
    0.9865   -0.2908    2.1726 O   0  0  0  0  0  0  0  0  0  0  0  0
   -1.0921    0.4156    2.6780 N   0  0  0  0  0  0  0  0  0  0  0  0
   -2.0168    0.5953    2.3206 H   0  0  0  0  0  0  0  0  0  0  0  0
   -0.8319    0.7034    4.0877 C   0  0  0  0  0  0  0  0  0  0  0  0
   -0.0192    1.4288    4.1710 H   0  0  0  0  0  0  0  0  0  0  0  0
   -1.7255    1.1088    4.5641 H   0  0  0  0  0  0  0  0  0  0  0  0
   -0.5319   -0.2118    4.6011 H   0  0  0  0  0  0  0  0  0  0  0  0
  5  6  2  0  0  0  0
  5  7  1  0  0  0  0
  2  3  1  0  0  0  0
  2  4  1  0  0  0  0
  2  5  1  0  0  0  0
  1  2  1  0  0  0  0
 22 23  2  0  0  0  0
 22 24  1  0  0  0  0
 18 19  1  0  0  0  0
 18 20  1  0  0  0  0
 18 21  1  0  0  0  0
 17 18  1  0  0  0  0
 14 15  1  0  0  0  0
 14 16  1  0  0  0  0
 14 17  1  0  0  0  0
 11 12  1  0  0  0  0
 11 13  1  0  0  0  0
 11 14  1  0  0  0  0
  9 10  1  0  0  0  0
  9 11  1  0  0  0  0
  9 22  1  0  0  0  0
  7  8  1  0  0  0  0
  7  9  1  0  0  0  0
 26 27  1  0  0  0  0
 26 28  1  0  0  0  0
 26 29  1  0  0  0  0
 24 25  1  0  0  0  0
 24 26  1  0  0  0  0
M  END
$$$$
default_name
  -OEChem-02102213163D

 29 28  0     1  0  0  0  0  0999 V2000
   -3.5781   -3.7296    1.2702 H   0  0  0  0  0  0  0  0  0  0  0  0
   -3.5311   -2.7616    0.7732 C   0  0  0  0  0  0  0  0  0  0  0  0
   -4.2371   -2.0766    1.2382 H   0  0  0  0  0  0  0  0  0  0  0  0
   -3.7681   -2.8816   -0.2818 H   0  0  0  0  0  0  0  0  0  0  0  0
   -2.1321   -2.2086    0.9112 C   0  0  0  0  0  0  0  0  0  0  0  0
   -1.2751   -2.8426    1.5112 O   0  0  0  0  0  0  0  0  0  0  0  0
   -1.9041   -1.0186    0.3602 N   0  0  0  0  0  0  0  0  0  0  0  0
   -2.6671   -0.5416   -0.0988 H   0  0  0  0  0  0  0  0  0  0  0  0
   -0.6131   -0.3236    0.3832 C   0  0  1  0  0  0  0  0  0  0  0  0
    0.1346   -0.9625   -0.0894 H   0  0  0  0  0  0  0  0  0  0  0  0
   -0.7253    0.9751   -0.4365 C   0  0  0  0  0  0  0  0  0  0  0  0
   -0.7636    1.8223    0.2516 H   0  0  0  0  0  0  0  0  0  0  0  0
    0.1620    1.0836   -1.0619 H   0  0  0  0  0  0  0  0  0  0  0  0
   -1.9668    1.0271   -1.3344 C   0  0  0  0  0  0  0  0  0  0  0  0
   -1.9685    1.9656   -1.8879 H   0  0  0  0  0  0  0  0  0  0  0  0
   -1.9201    0.2010   -2.0449 H   0  0  0  0  0  0  0  0  0  0  0  0
   -3.5273    0.9096   -0.4229 S   0  0  0  0  0  0  0  0  0  0  0  0
   -3.4318   -0.8116    0.1340 C   0  0  0  0  0  0  0  0  0  0  0  0
   -2.5481   -0.9477    0.7581 H   0  0  0  0  0  0  0  0  0  0  0  0
   -4.3222   -1.0535    0.7149 H   0  0  0  0  0  0  0  0  0  0  0  0
   -3.3757   -1.4750   -0.7295 H   0  0  0  0  0  0  0  0  0  0  0  0
   -0.1711   -0.0594    1.8296 C   0  0  0  0  0  0  0  0  0  0  0  0
    0.9865   -0.2908    2.1726 O   0  0  0  0  0  0  0  0  0  0  0  0
   -1.0921    0.4156    2.6780 N   0  0  0  0  0  0  0  0  0  0  0  0
   -2.0168    0.5953    2.3206 H   0  0  0  0  0  0  0  0  0  0  0  0
   -0.8319    0.7034    4.0877 C   0  0  0  0  0  0  0  0  0  0  0  0
   -0.0192    1.4288    4.1710 H   0  0  0  0  0  0  0  0  0  0  0  0
   -1.7255    1.1088    4.5641 H   0  0  0  0  0  0  0  0  0  0  0  0
   -0.5319   -0.2118    4.6011 H   0  0  0  0  0  0  0  0  0  0  0  0
  5  6  2  0  0  0  0
  5  7  1  0  0  0  0
  2  3  1  0  0  0  0
  2  4  1  0  0  0  0
  2  5  1  0  0  0  0
  1  2  1  0  0  0  0
 22 23  2  0  0  0  0
 22 24  1  0  0  0  0
 18 19  1  0  0  0  0
 18 20  1  0  0  0  0
 18 21  1  0  0  0  0
 17 18  1  0  0  0  0
 14 15  1  0  0  0  0
 14 16  1  0  0  0  0
 14 17  1  0  0  0  0
 11 12  1  0  0  0  0
 11 13  1  0  0  0  0
 11 14  1  0  0  0  0
  9 10  1  0  0  0  0
  9 11  1  0  0  0  0
  9 22  1  0  0  0  0
  7  8  1  0  0  0  0
  7  9  1  0  0  0  0
 26 27  1  0  0  0  0
 26 28  1  0  0  0  0
 26 29  1  0  0  0  0
 24 25  1  0  0  0  0
 24 26  1  0  0  0  0
M  END
$$$$
default_name
  -OEChem-02102213163D

 29 28  0     1  0  0  0  0  0999 V2000
   -3.5781   -3.7296    1.2702 H   0  0  0  0  0  0  0  0  0  0  0  0
   -3.5311   -2.7616    0.7732 C   0  0  0  0  0  0  0  0  0  0  0  0
   -4.2371   -2.0766    1.2382 H   0  0  0  0  0  0  0  0  0  0  0  0
   -3.7681   -2.8816   -0.2818 H   0  0  0  0  0  0  0  0  0  0  0  0
   -2.1321   -2.2086    0.9112 C   0  0  0  0  0  0  0  0  0  0  0  0
   -1.2751   -2.8426    1.5112 O   0  0  0  0  0  0  0  0  0  0  0  0
   -1.9041   -1.0186    0.3602 N   0  0  0  0  0  0  0  0  0  0  0  0
   -2.6671   -0.5416   -0.0988 H   0  0  0  0  0  0  0  0  0  0  0  0
   -0.6131   -0.3236    0.3832 C   0  0  1  0  0  0  0  0  0  0  0  0
    0.1346   -0.9625   -0.0894 H   0  0  0  0  0  0  0  0  0  0  0  0
   -0.7253    0.9751   -0.4365 C   0  0  0  0  0  0  0  0  0  0  0  0
   -0.7636    1.8223    0.2516 H   0  0  0  0  0  0  0  0  0  0  0  0
    0.1620    1.0836   -1.0619 H   0  0  0  0  0  0  0  0  0  0  0  0
   -1.9668    1.0271   -1.3344 C   0  0  0  0  0  0  0  0  0  0  0  0
   -1.8409    1.8182   -2.0729 H   0  0  0  0  0  0  0  0  0  0  0  0
   -2.0628    0.0736   -1.8549 H   0  0  0  0  0  0  0  0  0  0  0  0
   -3.5039    1.3420   -0.4301 S   0  0  0  0  0  0  0  0  0  0  0  0
   -3.6550   -0.2188    0.4770 C   0  0  0  0  0  0  0  0  0  0  0  0
   -2.7866   -0.3546    1.1223 H   0  0  0  0  0  0  0  0  0  0  0  0
   -4.5569   -0.1953    1.0892 H   0  0  0  0  0  0  0  0  0  0  0  0
   -3.7211   -1.0486   -0.2273 H   0  0  0  0  0  0  0  0  0  0  0  0
   -0.1711   -0.0594    1.8296 C   0  0  0  0  0  0  0  0  0  0  0  0
    0.9865   -0.2908    2.1726 O   0  0  0  0  0  0  0  0  0  0  0  0
   -1.0921    0.4156    2.6780 N   0  0  0  0  0  0  0  0  0  0  0  0
   -2.0168    0.5953    2.3206 H   0  0  0  0  0  0  0  0  0  0  0  0
   -0.8319    0.7034    4.0877 C   0  0  0  0  0  0  0  0  0  0  0  0
   -0.0192    1.4288    4.1710 H   0  0  0  0  0  0  0  0  0  0  0  0
   -1.7255    1.1088    4.5641 H   0  0  0  0  0  0  0  0  0  0  0  0
   -0.5319   -0.2118    4.6011 H   0  0  0  0  0  0  0  0  0  0  0  0
  5  6  2  0  0  0  0
  5  7  1  0  0  0  0
  2  3  1  0  0  0  0
  2  4  1  0  0  0  0
  2  5  1  0  0  0  0
  1  2  1  0  0  0  0
 22 23  2  0  0  0  0
 22 24  1  0  0  0  0
 18 19  1  0  0  0  0
 18 20  1  0  0  0  0
 18 21  1  0  0  0  0
 17 18  1  0  0  0  0
 14 15  1  0  0  0  0
 14 16  1  0  0  0  0
 14 17  1  0  0  0  0
 11 12  1  0  0  0  0
 11 13  1  0  0  0  0
 11 14  1  0  0  0  0
  9 10  1  0  0  0  0
  9 11  1  0  0  0  0
  9 22  1  0  0  0  0
  7  8  1  0  0  0  0
  7  9  1  0  0  0  0
 26 27  1  0  0  0  0
 26 28  1  0  0  0  0
 26 29  1  0  0  0  0
 24 25  1  0  0  0  0
 24 26  1  0  0  0  0
M  END
$$$$
default_name
  -OEChem-02102213163D

 29 28  0     1  0  0  0  0  0999 V2000
   -3.5781   -3.7296    1.2702 H   0  0  0  0  0  0  0  0  0  0  0  0
   -3.5311   -2.7616    0.7732 C   0  0  0  0  0  0  0  0  0  0  0  0
   -4.2371   -2.0766    1.2382 H   0  0  0  0  0  0  0  0  0  0  0  0
   -3.7681   -2.8816   -0.2818 H   0  0  0  0  0  0  0  0  0  0  0  0
   -2.1321   -2.2086    0.9112 C   0  0  0  0  0  0  0  0  0  0  0  0
   -1.2751   -2.8426    1.5112 O   0  0  0  0  0  0  0  0  0  0  0  0
   -1.9041   -1.0186    0.3602 N   0  0  0  0  0  0  0  0  0  0  0  0
   -2.6671   -0.5416   -0.0988 H   0  0  0  0  0  0  0  0  0  0  0  0
   -0.6131   -0.3236    0.3832 C   0  0  1  0  0  0  0  0  0  0  0  0
    0.1346   -0.9625   -0.0894 H   0  0  0  0  0  0  0  0  0  0  0  0
   -0.7253    0.9751   -0.4365 C   0  0  0  0  0  0  0  0  0  0  0  0
   -0.7636    1.8223    0.2516 H   0  0  0  0  0  0  0  0  0  0  0  0
    0.1620    1.0836   -1.0619 H   0  0  0  0  0  0  0  0  0  0  0  0
   -1.9668    1.0271   -1.3344 C   0  0  0  0  0  0  0  0  0  0  0  0
   -1.7416    1.6178   -2.2218 H   0  0  0  0  0  0  0  0  0  0  0  0
   -2.2183    0.0119   -1.6434 H   0  0  0  0  0  0  0  0  0  0  0  0
   -3.4159    1.7547   -0.5279 S   0  0  0  0  0  0  0  0  0  0  0  0
   -3.7777    0.4595    0.6860 C   0  0  0  0  0  0  0  0  0  0  0  0
   -2.9238    0.3307    1.3518 H   0  0  0  0  0  0  0  0  0  0  0  0
   -4.6502    0.7477    1.2728 H   0  0  0  0  0  0  0  0  0  0  0  0
   -3.9856   -0.4791    0.1715 H   0  0  0  0  0  0  0  0  0  0  0  0
   -0.1711   -0.0594    1.8296 C   0  0  0  0  0  0  0  0  0  0  0  0
    0.9865   -0.2908    2.1726 O   0  0  0  0  0  0  0  0  0  0  0  0
   -1.0921    0.4156    2.6780 N   0  0  0  0  0  0  0  0  0  0  0  0
   -2.0168    0.5953    2.3206 H   0  0  0  0  0  0  0  0  0  0  0  0
   -0.8319    0.7034    4.0877 C   0  0  0  0  0  0  0  0  0  0  0  0
   -0.0192    1.4288    4.1710 H   0  0  0  0  0  0  0  0  0  0  0  0
   -1.7255    1.1088    4.5641 H   0  0  0  0  0  0  0  0  0  0  0  0
   -0.5319   -0.2118    4.6011 H   0  0  0  0  0  0  0  0  0  0  0  0
  5  6  2  0  0  0  0
  5  7  1  0  0  0  0
  2  3  1  0  0  0  0
  2  4  1  0  0  0  0
  2  5  1  0  0  0  0
  1  2  1  0  0  0  0
 22 23  2  0  0  0  0
 22 24  1  0  0  0  0
 18 19  1  0  0  0  0
 18 20  1  0  0  0  0
 18 21  1  0  0  0  0
 17 18  1  0  0  0  0
 14 15  1  0  0  0  0
 14 16  1  0  0  0  0
 14 17  1  0  0  0  0
 11 12  1  0  0  0  0
 11 13  1  0  0  0  0
 11 14  1  0  0  0  0
  9 10  1  0  0  0  0
  9 11  1  0  0  0  0
  9 22  1  0  0  0  0
  7  8  1  0  0  0  0
  7  9  1  0  0  0  0
 26 27  1  0  0  0  0
 26 28  1  0  0  0  0
 26 29  1  0  0  0  0
 24 25  1  0  0  0  0
 24 26  1  0  0  0  0
M  END
$$$$
default_name
  -OEChem-02102213163D

 29 28  0     1  0  0  0  0  0999 V2000
   -3.5781   -3.7296    1.2702 H   0  0  0  0  0  0  0  0  0  0  0  0
   -3.5311   -2.7616    0.7732 C   0  0  0  0  0  0  0  0  0  0  0  0
   -4.2371   -2.0766    1.2382 H   0  0  0  0  0  0  0  0  0  0  0  0
   -3.7681   -2.8816   -0.2818 H   0  0  0  0  0  0  0  0  0  0  0  0
   -2.1321   -2.2086    0.9112 C   0  0  0  0  0  0  0  0  0  0  0  0
   -1.2751   -2.8426    1.5112 O   0  0  0  0  0  0  0  0  0  0  0  0
   -1.9041   -1.0186    0.3602 N   0  0  0  0  0  0  0  0  0  0  0  0
   -2.6671   -0.5416   -0.0988 H   0  0  0  0  0  0  0  0  0  0  0  0
   -0.6131   -0.3236    0.3832 C   0  0  1  0  0  0  0  0  0  0  0  0
    0.1346   -0.9625   -0.0894 H   0  0  0  0  0  0  0  0  0  0  0  0
   -0.7253    0.9751   -0.4365 C   0  0  0  0  0  0  0  0  0  0  0  0
   -0.7636    1.8223    0.2516 H   0  0  0  0  0  0  0  0  0  0  0  0
    0.1620    1.0836   -1.0619 H   0  0  0  0  0  0  0  0  0  0  0  0
   -1.9668    1.0271   -1.3344 C   0  0  0  0  0  0  0  0  0  0  0  0
   -1.6774    1.3780   -2.3245 H   0  0  0  0  0  0  0  0  0  0  0  0
   -2.3760    0.0202   -1.4249 H   0  0  0  0  0  0  0  0  0  0  0  0
   -3.2692    2.1194   -0.7096 S   0  0  0  0  0  0  0  0  0  0  0  0
   -3.7916    1.1771    0.7467 C   0  0  0  0  0  0  0  0  0  0  0  0
   -2.9505    1.0615    1.4310 H   0  0  0  0  0  0  0  0  0  0  0  0
   -4.5958    1.7112    1.2534 H   0  0  0  0  0  0  0  0  0  0  0  0
   -4.1512    0.1947    0.4396 H   0  0  0  0  0  0  0  0  0  0  0  0
   -0.1711   -0.0594    1.8296 C   0  0  0  0  0  0  0  0  0  0  0  0
    0.9865   -0.2908    2.1726 O   0  0  0  0  0  0  0  0  0  0  0  0
   -1.0921    0.4156    2.6780 N   0  0  0  0  0  0  0  0  0  0  0  0
   -2.0168    0.5953    2.3206 H   0  0  0  0  0  0  0  0  0  0  0  0
   -0.8319    0.7034    4.0877 C   0  0  0  0  0  0  0  0  0  0  0  0
   -0.0192    1.4288    4.1710 H   0  0  0  0  0  0  0  0  0  0  0  0
   -1.7255    1.1088    4.5641 H   0  0  0  0  0  0  0  0  0  0  0  0
   -0.5319   -0.2118    4.6011 H   0  0  0  0  0  0  0  0  0  0  0  0
  5  6  2  0  0  0  0
  5  7  1  0  0  0  0
  2  3  1  0  0  0  0
  2  4  1  0  0  0  0
  2  5  1  0  0  0  0
  1  2  1  0  0  0  0
 22 23  2  0  0  0  0
 22 24  1  0  0  0  0
 18 19  1  0  0  0  0
 18 20  1  0  0  0  0
 18 21  1  0  0  0  0
 17 18  1  0  0  0  0
 14 15  1  0  0  0  0
 14 16  1  0  0  0  0
 14 17  1  0  0  0  0
 11 12  1  0  0  0  0
 11 13  1  0  0  0  0
 11 14  1  0  0  0  0
  9 10  1  0  0  0  0
  9 11  1  0  0  0  0
  9 22  1  0  0  0  0
  7  8  1  0  0  0  0
  7  9  1  0  0  0  0
 26 27  1  0  0  0  0
 26 28  1  0  0  0  0
 26 29  1  0  0  0  0
 24 25  1  0  0  0  0
 24 26  1  0  0  0  0
M  END
$$$$
default_name
  -OEChem-02102213163D

 29 28  0     1  0  0  0  0  0999 V2000
   -3.5781   -3.7296    1.2702 H   0  0  0  0  0  0  0  0  0  0  0  0
   -3.5311   -2.7616    0.7732 C   0  0  0  0  0  0  0  0  0  0  0  0
   -4.2371   -2.0766    1.2382 H   0  0  0  0  0  0  0  0  0  0  0  0
   -3.7681   -2.8816   -0.2818 H   0  0  0  0  0  0  0  0  0  0  0  0
   -2.1321   -2.2086    0.9112 C   0  0  0  0  0  0  0  0  0  0  0  0
   -1.2751   -2.8426    1.5112 O   0  0  0  0  0  0  0  0  0  0  0  0
   -1.9041   -1.0186    0.3602 N   0  0  0  0  0  0  0  0  0  0  0  0
   -2.6671   -0.5416   -0.0988 H   0  0  0  0  0  0  0  0  0  0  0  0
   -0.6131   -0.3236    0.3832 C   0  0  1  0  0  0  0  0  0  0  0  0
    0.1346   -0.9625   -0.0894 H   0  0  0  0  0  0  0  0  0  0  0  0
   -0.7253    0.9751   -0.4365 C   0  0  0  0  0  0  0  0  0  0  0  0
   -0.7636    1.8223    0.2516 H   0  0  0  0  0  0  0  0  0  0  0  0
    0.1620    1.0836   -1.0619 H   0  0  0  0  0  0  0  0  0  0  0  0
   -1.9668    1.0271   -1.3344 C   0  0  0  0  0  0  0  0  0  0  0  0
   -1.6526    1.1150   -2.3739 H   0  0  0  0  0  0  0  0  0  0  0  0
   -2.5252    0.0980   -1.2142 H   0  0  0  0  0  0  0  0  0  0  0  0
   -3.0737    2.4114   -0.9629 S   0  0  0  0  0  0  0  0  0  0  0  0
   -3.6956    1.8851    0.6551 C   0  0  0  0  0  0  0  0  0  0  0  0
   -2.8648    1.7882    1.3546 H   0  0  0  0  0  0  0  0  0  0  0  0
   -4.3974    2.6296    1.0322 H   0  0  0  0  0  0  0  0  0  0  0  0
   -4.2068    0.9268    0.5588 H   0  0  0  0  0  0  0  0  0  0  0  0
   -0.1711   -0.0594    1.8296 C   0  0  0  0  0  0  0  0  0  0  0  0
    0.9865   -0.2908    2.1726 O   0  0  0  0  0  0  0  0  0  0  0  0
   -1.0921    0.4156    2.6780 N   0  0  0  0  0  0  0  0  0  0  0  0
   -2.0168    0.5953    2.3206 H   0  0  0  0  0  0  0  0  0  0  0  0
   -0.8319    0.7034    4.0877 C   0  0  0  0  0  0  0  0  0  0  0  0
   -0.0192    1.4288    4.1710 H   0  0  0  0  0  0  0  0  0  0  0  0
   -1.7255    1.1088    4.5641 H   0  0  0  0  0  0  0  0  0  0  0  0
   -0.5319   -0.2118    4.6011 H   0  0  0  0  0  0  0  0  0  0  0  0
  5  6  2  0  0  0  0
  5  7  1  0  0  0  0
  2  3  1  0  0  0  0
  2  4  1  0  0  0  0
  2  5  1  0  0  0  0
  1  2  1  0  0  0  0
 22 23  2  0  0  0  0
 22 24  1  0  0  0  0
 18 19  1  0  0  0  0
 18 20  1  0  0  0  0
 18 21  1  0  0  0  0
 17 18  1  0  0  0  0
 14 15  1  0  0  0  0
 14 16  1  0  0  0  0
 14 17  1  0  0  0  0
 11 12  1  0  0  0  0
 11 13  1  0  0  0  0
 11 14  1  0  0  0  0
  9 10  1  0  0  0  0
  9 11  1  0  0  0  0
  9 22  1  0  0  0  0
  7  8  1  0  0  0  0
  7  9  1  0  0  0  0
 26 27  1  0  0  0  0
 26 28  1  0  0  0  0
 26 29  1  0  0  0  0
 24 25  1  0  0  0  0
 24 26  1  0  0  0  0
M  END
$$$$
default_name
  -OEChem-02102213163D

 29 28  0     1  0  0  0  0  0999 V2000
   -3.5781   -3.7296    1.2702 H   0  0  0  0  0  0  0  0  0  0  0  0
   -3.5311   -2.7616    0.7732 C   0  0  0  0  0  0  0  0  0  0  0  0
   -4.2371   -2.0766    1.2382 H   0  0  0  0  0  0  0  0  0  0  0  0
   -3.7681   -2.8816   -0.2818 H   0  0  0  0  0  0  0  0  0  0  0  0
   -2.1321   -2.2086    0.9112 C   0  0  0  0  0  0  0  0  0  0  0  0
   -1.2751   -2.8426    1.5112 O   0  0  0  0  0  0  0  0  0  0  0  0
   -1.9041   -1.0186    0.3602 N   0  0  0  0  0  0  0  0  0  0  0  0
   -2.6671   -0.5416   -0.0988 H   0  0  0  0  0  0  0  0  0  0  0  0
   -0.6131   -0.3236    0.3832 C   0  0  1  0  0  0  0  0  0  0  0  0
    0.1346   -0.9625   -0.0894 H   0  0  0  0  0  0  0  0  0  0  0  0
   -0.7253    0.9751   -0.4365 C   0  0  0  0  0  0  0  0  0  0  0  0
   -0.7636    1.8223    0.2516 H   0  0  0  0  0  0  0  0  0  0  0  0
    0.1620    1.0836   -1.0619 H   0  0  0  0  0  0  0  0  0  0  0  0
   -1.9668    1.0271   -1.3344 C   0  0  0  0  0  0  0  0  0  0  0  0
   -1.6690    0.8469   -2.3668 H   0  0  0  0  0  0  0  0  0  0  0  0
   -2.6556    0.2399   -1.0256 H   0  0  0  0  0  0  0  0  0  0  0  0
   -2.8429    2.6107   -1.2705 S   0  0  0  0  0  0  0  0  0  0  0  0
   -3.4965    2.5352    0.4174 C   0  0  0  0  0  0  0  0  0  0  0  0
   -2.6725    2.4610    1.1277 H   0  0  0  0  0  0  0  0  0  0  0  0
   -4.0684    3.4402    0.6244 H   0  0  0  0  0  0  0  0  0  0  0  0
   -4.1484    1.6674    0.5210 H   0  0  0  0  0  0  0  0  0  0  0  0
   -0.1711   -0.0594    1.8296 C   0  0  0  0  0  0  0  0  0  0  0  0
    0.9865   -0.2908    2.1726 O   0  0  0  0  0  0  0  0  0  0  0  0
   -1.0921    0.4156    2.6780 N   0  0  0  0  0  0  0  0  0  0  0  0
   -2.0168    0.5953    2.3206 H   0  0  0  0  0  0  0  0  0  0  0  0
   -0.8319    0.7034    4.0877 C   0  0  0  0  0  0  0  0  0  0  0  0
   -0.0192    1.4288    4.1710 H   0  0  0  0  0  0  0  0  0  0  0  0
   -1.7255    1.1088    4.5641 H   0  0  0  0  0  0  0  0  0  0  0  0
   -0.5319   -0.2118    4.6011 H   0  0  0  0  0  0  0  0  0  0  0  0
  5  6  2  0  0  0  0
  5  7  1  0  0  0  0
  2  3  1  0  0  0  0
  2  4  1  0  0  0  0
  2  5  1  0  0  0  0
  1  2  1  0  0  0  0
 22 23  2  0  0  0  0
 22 24  1  0  0  0  0
 18 19  1  0  0  0  0
 18 20  1  0  0  0  0
 18 21  1  0  0  0  0
 17 18  1  0  0  0  0
 14 15  1  0  0  0  0
 14 16  1  0  0  0  0
 14 17  1  0  0  0  0
 11 12  1  0  0  0  0
 11 13  1  0  0  0  0
 11 14  1  0  0  0  0
  9 10  1  0  0  0  0
  9 11  1  0  0  0  0
  9 22  1  0  0  0  0
  7  8  1  0  0  0  0
  7  9  1  0  0  0  0
 26 27  1  0  0  0  0
 26 28  1  0  0  0  0
 26 29  1  0  0  0  0
 24 25  1  0  0  0  0
 24 26  1  0  0  0  0
M  END
$$$$
default_name
  -OEChem-02102213163D

 29 28  0     1  0  0  0  0  0999 V2000
   -3.5781   -3.7296    1.2702 H   0  0  0  0  0  0  0  0  0  0  0  0
   -3.5311   -2.7616    0.7732 C   0  0  0  0  0  0  0  0  0  0  0  0
   -4.2371   -2.0766    1.2382 H   0  0  0  0  0  0  0  0  0  0  0  0
   -3.7681   -2.8816   -0.2818 H   0  0  0  0  0  0  0  0  0  0  0  0
   -2.1321   -2.2086    0.9112 C   0  0  0  0  0  0  0  0  0  0  0  0
   -1.2751   -2.8426    1.5112 O   0  0  0  0  0  0  0  0  0  0  0  0
   -1.9041   -1.0186    0.3602 N   0  0  0  0  0  0  0  0  0  0  0  0
   -2.6671   -0.5416   -0.0988 H   0  0  0  0  0  0  0  0  0  0  0  0
   -0.6131   -0.3236    0.3832 C   0  0  1  0  0  0  0  0  0  0  0  0
    0.1346   -0.9625   -0.0894 H   0  0  0  0  0  0  0  0  0  0  0  0
   -0.7253    0.9751   -0.4365 C   0  0  0  0  0  0  0  0  0  0  0  0
   -0.7636    1.8223    0.2516 H   0  0  0  0  0  0  0  0  0  0  0  0
    0.1620    1.0836   -1.0619 H   0  0  0  0  0  0  0  0  0  0  0  0
   -1.9668    1.0271   -1.3344 C   0  0  0  0  0  0  0  0  0  0  0  0
   -1.7254    0.5919   -2.3036 H   0  0  0  0  0  0  0  0  0  0  0  0
   -2.7584    0.4363   -0.8721 H   0  0  0  0  0  0  0  0  0  0  0  0
   -2.5925    2.7038   -1.6114 S   0  0  0  0  0  0  0  0  0  0  0  0
   -3.2076    3.0832    0.0498 C   0  0  0  0  0  0  0  0  0  0  0  0
   -2.3868    3.0342    0.7659 H   0  0  0  0  0  0  0  0  0  0  0  0
   -3.6314    4.0878    0.0576 H   0  0  0  0  0  0  0  0  0  0  0  0
   -3.9800    2.3660    0.3287 H   0  0  0  0  0  0  0  0  0  0  0  0
   -0.1711   -0.0594    1.8296 C   0  0  0  0  0  0  0  0  0  0  0  0
    0.9865   -0.2908    2.1726 O   0  0  0  0  0  0  0  0  0  0  0  0
   -1.0921    0.4156    2.6780 N   0  0  0  0  0  0  0  0  0  0  0  0
   -2.0168    0.5953    2.3206 H   0  0  0  0  0  0  0  0  0  0  0  0
   -0.8319    0.7034    4.0877 C   0  0  0  0  0  0  0  0  0  0  0  0
   -0.0192    1.4288    4.1710 H   0  0  0  0  0  0  0  0  0  0  0  0
   -1.7255    1.1088    4.5641 H   0  0  0  0  0  0  0  0  0  0  0  0
   -0.5319   -0.2118    4.6011 H   0  0  0  0  0  0  0  0  0  0  0  0
  5  6  2  0  0  0  0
  5  7  1  0  0  0  0
  2  3  1  0  0  0  0
  2  4  1  0  0  0  0
  2  5  1  0  0  0  0
  1  2  1  0  0  0  0
 22 23  2  0  0  0  0
 22 24  1  0  0  0  0
 18 19  1  0  0  0  0
 18 20  1  0  0  0  0
 18 21  1  0  0  0  0
 17 18  1  0  0  0  0
 14 15  1  0  0  0  0
 14 16  1  0  0  0  0
 14 17  1  0  0  0  0
 11 12  1  0  0  0  0
 11 13  1  0  0  0  0
 11 14  1  0  0  0  0
  9 10  1  0  0  0  0
  9 11  1  0  0  0  0
  9 22  1  0  0  0  0
  7  8  1  0  0  0  0
  7  9  1  0  0  0  0
 26 27  1  0  0  0  0
 26 28  1  0  0  0  0
 26 29  1  0  0  0  0
 24 25  1  0  0  0  0
 24 26  1  0  0  0  0
M  END
$$$$
default_name
  -OEChem-02102213163D

 29 28  0     1  0  0  0  0  0999 V2000
   -3.5781   -3.7296    1.2702 H   0  0  0  0  0  0  0  0  0  0  0  0
   -3.5311   -2.7616    0.7732 C   0  0  0  0  0  0  0  0  0  0  0  0
   -4.2371   -2.0766    1.2382 H   0  0  0  0  0  0  0  0  0  0  0  0
   -3.7681   -2.8816   -0.2818 H   0  0  0  0  0  0  0  0  0  0  0  0
   -2.1321   -2.2086    0.9112 C   0  0  0  0  0  0  0  0  0  0  0  0
   -1.2751   -2.8426    1.5112 O   0  0  0  0  0  0  0  0  0  0  0  0
   -1.9041   -1.0186    0.3602 N   0  0  0  0  0  0  0  0  0  0  0  0
   -2.6671   -0.5416   -0.0988 H   0  0  0  0  0  0  0  0  0  0  0  0
   -0.6131   -0.3236    0.3832 C   0  0  1  0  0  0  0  0  0  0  0  0
    0.1346   -0.9625   -0.0894 H   0  0  0  0  0  0  0  0  0  0  0  0
   -0.7253    0.9751   -0.4365 C   0  0  0  0  0  0  0  0  0  0  0  0
   -0.7636    1.8223    0.2516 H   0  0  0  0  0  0  0  0  0  0  0  0
    0.1620    1.0836   -1.0619 H   0  0  0  0  0  0  0  0  0  0  0  0
   -1.9668    1.0271   -1.3344 C   0  0  0  0  0  0  0  0  0  0  0  0
   -1.8179    0.3674   -2.1887 H   0  0  0  0  0  0  0  0  0  0  0  0
   -2.8266    0.6737   -0.7640 H   0  0  0  0  0  0  0  0  0  0  0  0
   -2.3395    2.6843   -1.9624 S   0  0  0  0  0  0  0  0  0  0  0  0
   -2.8488    3.4917   -0.4227 C   0  0  0  0  0  0  0  0  0  0  0  0
   -2.0271    3.4688    0.2937 H   0  0  0  0  0  0  0  0  0  0  0  0
   -3.1160    4.5283   -0.6294 H   0  0  0  0  0  0  0  0  0  0  0  0
   -3.7132    2.9749   -0.0049 H   0  0  0  0  0  0  0  0  0  0  0  0
   -0.1711   -0.0594    1.8296 C   0  0  0  0  0  0  0  0  0  0  0  0
    0.9865   -0.2908    2.1726 O   0  0  0  0  0  0  0  0  0  0  0  0
   -1.0921    0.4156    2.6780 N   0  0  0  0  0  0  0  0  0  0  0  0
   -2.0168    0.5953    2.3206 H   0  0  0  0  0  0  0  0  0  0  0  0
   -0.8319    0.7034    4.0877 C   0  0  0  0  0  0  0  0  0  0  0  0
   -0.0192    1.4288    4.1710 H   0  0  0  0  0  0  0  0  0  0  0  0
   -1.7255    1.1088    4.5641 H   0  0  0  0  0  0  0  0  0  0  0  0
   -0.5319   -0.2118    4.6011 H   0  0  0  0  0  0  0  0  0  0  0  0
  5  6  2  0  0  0  0
  5  7  1  0  0  0  0
  2  3  1  0  0  0  0
  2  4  1  0  0  0  0
  2  5  1  0  0  0  0
  1  2  1  0  0  0  0
 22 23  2  0  0  0  0
 22 24  1  0  0  0  0
 18 19  1  0  0  0  0
 18 20  1  0  0  0  0
 18 21  1  0  0  0  0
 17 18  1  0  0  0  0
 14 15  1  0  0  0  0
 14 16  1  0  0  0  0
 14 17  1  0  0  0  0
 11 12  1  0  0  0  0
 11 13  1  0  0  0  0
 11 14  1  0  0  0  0
  9 10  1  0  0  0  0
  9 11  1  0  0  0  0
  9 22  1  0  0  0  0
  7  8  1  0  0  0  0
  7  9  1  0  0  0  0
 26 27  1  0  0  0  0
 26 28  1  0  0  0  0
 26 29  1  0  0  0  0
 24 25  1  0  0  0  0
 24 26  1  0  0  0  0
M  END
$$$$
default_name
  -OEChem-02102213163D

 29 28  0     1  0  0  0  0  0999 V2000
   -3.5781   -3.7296    1.2702 H   0  0  0  0  0  0  0  0  0  0  0  0
   -3.5311   -2.7616    0.7732 C   0  0  0  0  0  0  0  0  0  0  0  0
   -4.2371   -2.0766    1.2382 H   0  0  0  0  0  0  0  0  0  0  0  0
   -3.7681   -2.8816   -0.2818 H   0  0  0  0  0  0  0  0  0  0  0  0
   -2.1321   -2.2086    0.9112 C   0  0  0  0  0  0  0  0  0  0  0  0
   -1.2751   -2.8426    1.5112 O   0  0  0  0  0  0  0  0  0  0  0  0
   -1.9041   -1.0186    0.3602 N   0  0  0  0  0  0  0  0  0  0  0  0
   -2.6671   -0.5416   -0.0988 H   0  0  0  0  0  0  0  0  0  0  0  0
   -0.6131   -0.3236    0.3832 C   0  0  1  0  0  0  0  0  0  0  0  0
    0.1346   -0.9625   -0.0894 H   0  0  0  0  0  0  0  0  0  0  0  0
   -0.7253    0.9751   -0.4365 C   0  0  0  0  0  0  0  0  0  0  0  0
   -0.4963    1.8218    0.2141 H   0  0  0  0  0  0  0  0  0  0  0  0
    0.0093    0.9562   -1.2428 H   0  0  0  0  0  0  0  0  0  0  0  0
   -2.1148    1.1970   -1.0449 C   0  0  0  0  0  0  0  0  0  0  0  0
   -2.3558    0.3607   -1.7003 H   0  0  0  0  0  0  0  0  0  0  0  0
   -2.8484    1.2334   -0.2387 H   0  0  0  0  0  0  0  0  0  0  0  0
   -2.2494    2.7238   -2.0095 S   0  0  0  0  0  0  0  0  0  0  0  0
   -2.1287    3.9442   -0.6761 C   0  0  0  0  0  0  0  0  0  0  0  0
   -1.1737    3.8333   -0.1616 H   0  0  0  0  0  0  0  0  0  0  0  0
   -2.1950    4.9477   -1.0975 H   0  0  0  0  0  0  0  0  0  0  0  0
   -2.9450    3.7977    0.0317 H   0  0  0  0  0  0  0  0  0  0  0  0
   -0.1711   -0.0594    1.8296 C   0  0  0  0  0  0  0  0  0  0  0  0
    0.9865   -0.2908    2.1726 O   0  0  0  0  0  0  0  0  0  0  0  0
   -1.0921    0.4156    2.6780 N   0  0  0  0  0  0  0  0  0  0  0  0
   -2.0168    0.5953    2.3206 H   0  0  0  0  0  0  0  0  0  0  0  0
   -0.8319    0.7034    4.0877 C   0  0  0  0  0  0  0  0  0  0  0  0
   -0.0192    1.4288    4.1710 H   0  0  0  0  0  0  0  0  0  0  0  0
   -1.7255    1.1088    4.5641 H   0  0  0  0  0  0  0  0  0  0  0  0
   -0.5319   -0.2118    4.6011 H   0  0  0  0  0  0  0  0  0  0  0  0
  5  6  2  0  0  0  0
  5  7  1  0  0  0  0
  2  3  1  0  0  0  0
  2  4  1  0  0  0  0
  2  5  1  0  0  0  0
  1  2  1  0  0  0  0
 22 23  2  0  0  0  0
 22 24  1  0  0  0  0
 18 19  1  0  0  0  0
 18 20  1  0  0  0  0
 18 21  1  0  0  0  0
 17 18  1  0  0  0  0
 14 15  1  0  0  0  0
 14 16  1  0  0  0  0
 14 17  1  0  0  0  0
 11 12  1  0  0  0  0
 11 13  1  0  0  0  0
 11 14  1  0  0  0  0
  9 10  1  0  0  0  0
  9 11  1  0  0  0  0
  9 22  1  0  0  0  0
  7  8  1  0  0  0  0
  7  9  1  0  0  0  0
 26 27  1  0  0  0  0
 26 28  1  0  0  0  0
 26 29  1  0  0  0  0
 24 25  1  0  0  0  0
 24 26  1  0  0  0  0
M  END
$$$$
default_name
  -OEChem-02102213163D

 29 28  0     1  0  0  0  0  0999 V2000
   -3.5781   -3.7296    1.2702 H   0  0  0  0  0  0  0  0  0  0  0  0
   -3.5311   -2.7616    0.7732 C   0  0  0  0  0  0  0  0  0  0  0  0
   -4.2371   -2.0766    1.2382 H   0  0  0  0  0  0  0  0  0  0  0  0
   -3.7681   -2.8816   -0.2818 H   0  0  0  0  0  0  0  0  0  0  0  0
   -2.1321   -2.2086    0.9112 C   0  0  0  0  0  0  0  0  0  0  0  0
   -1.2751   -2.8426    1.5112 O   0  0  0  0  0  0  0  0  0  0  0  0
   -1.9041   -1.0186    0.3602 N   0  0  0  0  0  0  0  0  0  0  0  0
   -2.6671   -0.5416   -0.0988 H   0  0  0  0  0  0  0  0  0  0  0  0
   -0.6131   -0.3236    0.3832 C   0  0  1  0  0  0  0  0  0  0  0  0
    0.1346   -0.9625   -0.0894 H   0  0  0  0  0  0  0  0  0  0  0  0
   -0.7253    0.9751   -0.4365 C   0  0  0  0  0  0  0  0  0  0  0  0
   -0.4963    1.8218    0.2141 H   0  0  0  0  0  0  0  0  0  0  0  0
    0.0093    0.9562   -1.2428 H   0  0  0  0  0  0  0  0  0  0  0  0
   -2.1148    1.1970   -1.0449 C   0  0  0  0  0  0  0  0  0  0  0  0
   -2.4691    0.2619   -1.4776 H   0  0  0  0  0  0  0  0  0  0  0  0
   -2.8003    1.4983   -0.2519 H   0  0  0  0  0  0  0  0  0  0  0  0
   -2.1466    2.4629   -2.3395 S   0  0  0  0  0  0  0  0  0  0  0  0
   -1.8404    3.9398   -1.3362 C   0  0  0  0  0  0  0  0  0  0  0  0
   -0.8765    3.8500   -0.8343 H   0  0  0  0  0  0  0  0  0  0  0  0
   -1.8287    4.8189   -1.9811 H   0  0  0  0  0  0  0  0  0  0  0  0
   -2.6309    4.0504   -0.5934 H   0  0  0  0  0  0  0  0  0  0  0  0
   -0.1711   -0.0594    1.8296 C   0  0  0  0  0  0  0  0  0  0  0  0
    0.9865   -0.2908    2.1726 O   0  0  0  0  0  0  0  0  0  0  0  0
   -1.0921    0.4156    2.6780 N   0  0  0  0  0  0  0  0  0  0  0  0
   -2.0168    0.5953    2.3206 H   0  0  0  0  0  0  0  0  0  0  0  0
   -0.8319    0.7034    4.0877 C   0  0  0  0  0  0  0  0  0  0  0  0
   -0.0192    1.4288    4.1710 H   0  0  0  0  0  0  0  0  0  0  0  0
   -1.7255    1.1088    4.5641 H   0  0  0  0  0  0  0  0  0  0  0  0
   -0.5319   -0.2118    4.6011 H   0  0  0  0  0  0  0  0  0  0  0  0
  5  6  2  0  0  0  0
  5  7  1  0  0  0  0
  2  3  1  0  0  0  0
  2  4  1  0  0  0  0
  2  5  1  0  0  0  0
  1  2  1  0  0  0  0
 22 23  2  0  0  0  0
 22 24  1  0  0  0  0
 18 19  1  0  0  0  0
 18 20  1  0  0  0  0
 18 21  1  0  0  0  0
 17 18  1  0  0  0  0
 14 15  1  0  0  0  0
 14 16  1  0  0  0  0
 14 17  1  0  0  0  0
 11 12  1  0  0  0  0
 11 13  1  0  0  0  0
 11 14  1  0  0  0  0
  9 10  1  0  0  0  0
  9 11  1  0  0  0  0
  9 22  1  0  0  0  0
  7  8  1  0  0  0  0
  7  9  1  0  0  0  0
 26 27  1  0  0  0  0
 26 28  1  0  0  0  0
 26 29  1  0  0  0  0
 24 25  1  0  0  0  0
 24 26  1  0  0  0  0
M  END
$$$$
default_name
  -OEChem-02102213163D

 29 28  0     1  0  0  0  0  0999 V2000
   -3.5781   -3.7296    1.2702 H   0  0  0  0  0  0  0  0  0  0  0  0
   -3.5311   -2.7616    0.7732 C   0  0  0  0  0  0  0  0  0  0  0  0
   -4.2371   -2.0766    1.2382 H   0  0  0  0  0  0  0  0  0  0  0  0
   -3.7681   -2.8816   -0.2818 H   0  0  0  0  0  0  0  0  0  0  0  0
   -2.1321   -2.2086    0.9112 C   0  0  0  0  0  0  0  0  0  0  0  0
   -1.2751   -2.8426    1.5112 O   0  0  0  0  0  0  0  0  0  0  0  0
   -1.9041   -1.0186    0.3602 N   0  0  0  0  0  0  0  0  0  0  0  0
   -2.6671   -0.5416   -0.0988 H   0  0  0  0  0  0  0  0  0  0  0  0
   -0.6131   -0.3236    0.3832 C   0  0  1  0  0  0  0  0  0  0  0  0
    0.1346   -0.9625   -0.0894 H   0  0  0  0  0  0  0  0  0  0  0  0
   -0.7253    0.9751   -0.4365 C   0  0  0  0  0  0  0  0  0  0  0  0
   -0.4963    1.8218    0.2141 H   0  0  0  0  0  0  0  0  0  0  0  0
    0.0093    0.9562   -1.2428 H   0  0  0  0  0  0  0  0  0  0  0  0
   -2.1148    1.1970   -1.0449 C   0  0  0  0  0  0  0  0  0  0  0  0
   -2.5803    0.2304   -1.2350 H   0  0  0  0  0  0  0  0  0  0  0  0
   -2.7271    1.7462   -0.3287 H   0  0  0  0  0  0  0  0  0  0  0  0
   -2.0864    2.1229   -2.6010 S   0  0  0  0  0  0  0  0  0  0  0  0
   -1.5871    3.7511   -1.9836 C   0  0  0  0  0  0  0  0  0  0  0  0
   -0.6129    3.6778   -1.4991 H   0  0  0  0  0  0  0  0  0  0  0  0
   -1.5212    4.4496   -2.8182 H   0  0  0  0  0  0  0  0  0  0  0  0
   -2.3250    4.1155   -1.2683 H   0  0  0  0  0  0  0  0  0  0  0  0
   -0.1711   -0.0594    1.8296 C   0  0  0  0  0  0  0  0  0  0  0  0
    0.9865   -0.2908    2.1726 O   0  0  0  0  0  0  0  0  0  0  0  0
   -1.0921    0.4156    2.6780 N   0  0  0  0  0  0  0  0  0  0  0  0
   -2.0168    0.5953    2.3206 H   0  0  0  0  0  0  0  0  0  0  0  0
   -0.8319    0.7034    4.0877 C   0  0  0  0  0  0  0  0  0  0  0  0
   -0.0192    1.4288    4.1710 H   0  0  0  0  0  0  0  0  0  0  0  0
   -1.7255    1.1088    4.5641 H   0  0  0  0  0  0  0  0  0  0  0  0
   -0.5319   -0.2118    4.6011 H   0  0  0  0  0  0  0  0  0  0  0  0
  5  6  2  0  0  0  0
  5  7  1  0  0  0  0
  2  3  1  0  0  0  0
  2  4  1  0  0  0  0
  2  5  1  0  0  0  0
  1  2  1  0  0  0  0
 22 23  2  0  0  0  0
 22 24  1  0  0  0  0
 18 19  1  0  0  0  0
 18 20  1  0  0  0  0
 18 21  1  0  0  0  0
 17 18  1  0  0  0  0
 14 15  1  0  0  0  0
 14 16  1  0  0  0  0
 14 17  1  0  0  0  0
 11 12  1  0  0  0  0
 11 13  1  0  0  0  0
 11 14  1  0  0  0  0
  9 10  1  0  0  0  0
  9 11  1  0  0  0  0
  9 22  1  0  0  0  0
  7  8  1  0  0  0  0
  7  9  1  0  0  0  0
 26 27  1  0  0  0  0
 26 28  1  0  0  0  0
 26 29  1  0  0  0  0
 24 25  1  0  0  0  0
 24 26  1  0  0  0  0
M  END
$$$$
default_name
  -OEChem-02102213163D

 29 28  0     1  0  0  0  0  0999 V2000
   -3.5781   -3.7296    1.2702 H   0  0  0  0  0  0  0  0  0  0  0  0
   -3.5311   -2.7616    0.7732 C   0  0  0  0  0  0  0  0  0  0  0  0
   -4.2371   -2.0766    1.2382 H   0  0  0  0  0  0  0  0  0  0  0  0
   -3.7681   -2.8816   -0.2818 H   0  0  0  0  0  0  0  0  0  0  0  0
   -2.1321   -2.2086    0.9112 C   0  0  0  0  0  0  0  0  0  0  0  0
   -1.2751   -2.8426    1.5112 O   0  0  0  0  0  0  0  0  0  0  0  0
   -1.9041   -1.0186    0.3602 N   0  0  0  0  0  0  0  0  0  0  0  0
   -2.6671   -0.5416   -0.0988 H   0  0  0  0  0  0  0  0  0  0  0  0
   -0.6131   -0.3236    0.3832 C   0  0  1  0  0  0  0  0  0  0  0  0
    0.1346   -0.9625   -0.0894 H   0  0  0  0  0  0  0  0  0  0  0  0
   -0.7253    0.9751   -0.4365 C   0  0  0  0  0  0  0  0  0  0  0  0
   -0.4963    1.8218    0.2141 H   0  0  0  0  0  0  0  0  0  0  0  0
    0.0093    0.9562   -1.2428 H   0  0  0  0  0  0  0  0  0  0  0  0
   -2.1148    1.1970   -1.0449 C   0  0  0  0  0  0  0  0  0  0  0  0
   -2.6819    0.2683   -0.9892 H   0  0  0  0  0  0  0  0  0  0  0  0
   -2.6338    1.9601   -0.4637 H   0  0  0  0  0  0  0  0  0  0  0  0
   -2.0730    1.7270   -2.7761 S   0  0  0  0  0  0  0  0  0  0  0  0
   -1.3860    3.3910   -2.5741 C   0  0  0  0  0  0  0  0  0  0  0  0
   -0.4010    3.3283   -2.1108 H   0  0  0  0  0  0  0  0  0  0  0  0
   -1.2935    3.8649   -3.5517 H   0  0  0  0  0  0  0  0  0  0  0  0
   -2.0482    3.9887   -1.9470 H   0  0  0  0  0  0  0  0  0  0  0  0
   -0.1711   -0.0594    1.8296 C   0  0  0  0  0  0  0  0  0  0  0  0
    0.9865   -0.2908    2.1726 O   0  0  0  0  0  0  0  0  0  0  0  0
   -1.0921    0.4156    2.6780 N   0  0  0  0  0  0  0  0  0  0  0  0
   -2.0168    0.5953    2.3206 H   0  0  0  0  0  0  0  0  0  0  0  0
   -0.8319    0.7034    4.0877 C   0  0  0  0  0  0  0  0  0  0  0  0
   -0.0192    1.4288    4.1710 H   0  0  0  0  0  0  0  0  0  0  0  0
   -1.7255    1.1088    4.5641 H   0  0  0  0  0  0  0  0  0  0  0  0
   -0.5319   -0.2118    4.6011 H   0  0  0  0  0  0  0  0  0  0  0  0
  5  6  2  0  0  0  0
  5  7  1  0  0  0  0
  2  3  1  0  0  0  0
  2  4  1  0  0  0  0
  2  5  1  0  0  0  0
  1  2  1  0  0  0  0
 22 23  2  0  0  0  0
 22 24  1  0  0  0  0
 18 19  1  0  0  0  0
 18 20  1  0  0  0  0
 18 21  1  0  0  0  0
 17 18  1  0  0  0  0
 14 15  1  0  0  0  0
 14 16  1  0  0  0  0
 14 17  1  0  0  0  0
 11 12  1  0  0  0  0
 11 13  1  0  0  0  0
 11 14  1  0  0  0  0
  9 10  1  0  0  0  0
  9 11  1  0  0  0  0
  9 22  1  0  0  0  0
  7  8  1  0  0  0  0
  7  9  1  0  0  0  0
 26 27  1  0  0  0  0
 26 28  1  0  0  0  0
 26 29  1  0  0  0  0
 24 25  1  0  0  0  0
 24 26  1  0  0  0  0
M  END
$$$$
default_name
  -OEChem-02102213163D

 29 28  0     1  0  0  0  0  0999 V2000
   -3.5781   -3.7296    1.2702 H   0  0  0  0  0  0  0  0  0  0  0  0
   -3.5311   -2.7616    0.7732 C   0  0  0  0  0  0  0  0  0  0  0  0
   -4.2371   -2.0766    1.2382 H   0  0  0  0  0  0  0  0  0  0  0  0
   -3.7681   -2.8816   -0.2818 H   0  0  0  0  0  0  0  0  0  0  0  0
   -2.1321   -2.2086    0.9112 C   0  0  0  0  0  0  0  0  0  0  0  0
   -1.2751   -2.8426    1.5112 O   0  0  0  0  0  0  0  0  0  0  0  0
   -1.9041   -1.0186    0.3602 N   0  0  0  0  0  0  0  0  0  0  0  0
   -2.6671   -0.5416   -0.0988 H   0  0  0  0  0  0  0  0  0  0  0  0
   -0.6131   -0.3236    0.3832 C   0  0  1  0  0  0  0  0  0  0  0  0
    0.1346   -0.9625   -0.0894 H   0  0  0  0  0  0  0  0  0  0  0  0
   -0.7253    0.9751   -0.4365 C   0  0  0  0  0  0  0  0  0  0  0  0
   -0.4963    1.8218    0.2141 H   0  0  0  0  0  0  0  0  0  0  0  0
    0.0093    0.9562   -1.2428 H   0  0  0  0  0  0  0  0  0  0  0  0
   -2.1148    1.1970   -1.0449 C   0  0  0  0  0  0  0  0  0  0  0  0
   -2.7669    0.3730   -0.7568 H   0  0  0  0  0  0  0  0  0  0  0  0
   -2.5268    2.1255   -0.6478 H   0  0  0  0  0  0  0  0  0  0  0  0
   -2.1073    1.3021   -2.8528 S   0  0  0  0  0  0  0  0  0  0  0  0
   -1.2510    2.8839   -3.0676 C   0  0  0  0  0  0  0  0  0  0  0  0
   -0.2550    2.8256   -2.6276 H   0  0  0  0  0  0  0  0  0  0  0  0
   -1.1611    3.1047   -4.1315 H   0  0  0  0  0  0  0  0  0  0  0  0
   -1.8192    3.6785   -2.5831 H   0  0  0  0  0  0  0  0  0  0  0  0
   -0.1711   -0.0594    1.8296 C   0  0  0  0  0  0  0  0  0  0  0  0
    0.9865   -0.2908    2.1726 O   0  0  0  0  0  0  0  0  0  0  0  0
   -1.0921    0.4156    2.6780 N   0  0  0  0  0  0  0  0  0  0  0  0
   -2.0168    0.5953    2.3206 H   0  0  0  0  0  0  0  0  0  0  0  0
   -0.8319    0.7034    4.0877 C   0  0  0  0  0  0  0  0  0  0  0  0
   -0.0192    1.4288    4.1710 H   0  0  0  0  0  0  0  0  0  0  0  0
   -1.7255    1.1088    4.5641 H   0  0  0  0  0  0  0  0  0  0  0  0
   -0.5319   -0.2118    4.6011 H   0  0  0  0  0  0  0  0  0  0  0  0
  5  6  2  0  0  0  0
  5  7  1  0  0  0  0
  2  3  1  0  0  0  0
  2  4  1  0  0  0  0
  2  5  1  0  0  0  0
  1  2  1  0  0  0  0
 22 23  2  0  0  0  0
 22 24  1  0  0  0  0
 18 19  1  0  0  0  0
 18 20  1  0  0  0  0
 18 21  1  0  0  0  0
 17 18  1  0  0  0  0
 14 15  1  0  0  0  0
 14 16  1  0  0  0  0
 14 17  1  0  0  0  0
 11 12  1  0  0  0  0
 11 13  1  0  0  0  0
 11 14  1  0  0  0  0
  9 10  1  0  0  0  0
  9 11  1  0  0  0  0
  9 22  1  0  0  0  0
  7  8  1  0  0  0  0
  7  9  1  0  0  0  0
 26 27  1  0  0  0  0
 26 28  1  0  0  0  0
 26 29  1  0  0  0  0
 24 25  1  0  0  0  0
 24 26  1  0  0  0  0
M  END
$$$$
default_name
  -OEChem-02102213163D

 29 28  0     1  0  0  0  0  0999 V2000
   -3.5781   -3.7296    1.2702 H   0  0  0  0  0  0  0  0  0  0  0  0
   -3.5311   -2.7616    0.7732 C   0  0  0  0  0  0  0  0  0  0  0  0
   -4.2371   -2.0766    1.2382 H   0  0  0  0  0  0  0  0  0  0  0  0
   -3.7681   -2.8816   -0.2818 H   0  0  0  0  0  0  0  0  0  0  0  0
   -2.1321   -2.2086    0.9112 C   0  0  0  0  0  0  0  0  0  0  0  0
   -1.2751   -2.8426    1.5112 O   0  0  0  0  0  0  0  0  0  0  0  0
   -1.9041   -1.0186    0.3602 N   0  0  0  0  0  0  0  0  0  0  0  0
   -2.6671   -0.5416   -0.0988 H   0  0  0  0  0  0  0  0  0  0  0  0
   -0.6131   -0.3236    0.3832 C   0  0  1  0  0  0  0  0  0  0  0  0
    0.1346   -0.9625   -0.0894 H   0  0  0  0  0  0  0  0  0  0  0  0
   -0.7253    0.9751   -0.4365 C   0  0  0  0  0  0  0  0  0  0  0  0
   -0.4963    1.8218    0.2141 H   0  0  0  0  0  0  0  0  0  0  0  0
    0.0093    0.9562   -1.2428 H   0  0  0  0  0  0  0  0  0  0  0  0
   -2.1148    1.1970   -1.0449 C   0  0  0  0  0  0  0  0  0  0  0  0
   -2.8296    0.5374   -0.5537 H   0  0  0  0  0  0  0  0  0  0  0  0
   -2.4133    2.2310   -0.8684 H   0  0  0  0  0  0  0  0  0  0  0  0
   -2.1870    0.8772   -2.8259 S   0  0  0  0  0  0  0  0  0  0  0  0
   -1.1911    2.2645   -3.4303 C   0  0  0  0  0  0  0  0  0  0  0  0
   -0.1850    2.2037   -3.0143 H   0  0  0  0  0  0  0  0  0  0  0  0
   -1.1330    2.2208   -4.5182 H   0  0  0  0  0  0  0  0  0  0  0  0
   -1.6537    3.2062   -3.1334 H   0  0  0  0  0  0  0  0  0  0  0  0
   -0.1711   -0.0594    1.8296 C   0  0  0  0  0  0  0  0  0  0  0  0
    0.9865   -0.2908    2.1726 O   0  0  0  0  0  0  0  0  0  0  0  0
   -1.0921    0.4156    2.6780 N   0  0  0  0  0  0  0  0  0  0  0  0
   -2.0168    0.5953    2.3206 H   0  0  0  0  0  0  0  0  0  0  0  0
   -0.8319    0.7034    4.0877 C   0  0  0  0  0  0  0  0  0  0  0  0
   -0.0192    1.4288    4.1710 H   0  0  0  0  0  0  0  0  0  0  0  0
   -1.7255    1.1088    4.5641 H   0  0  0  0  0  0  0  0  0  0  0  0
   -0.5319   -0.2118    4.6011 H   0  0  0  0  0  0  0  0  0  0  0  0
  5  6  2  0  0  0  0
  5  7  1  0  0  0  0
  2  3  1  0  0  0  0
  2  4  1  0  0  0  0
  2  5  1  0  0  0  0
  1  2  1  0  0  0  0
 22 23  2  0  0  0  0
 22 24  1  0  0  0  0
 18 19  1  0  0  0  0
 18 20  1  0  0  0  0
 18 21  1  0  0  0  0
 17 18  1  0  0  0  0
 14 15  1  0  0  0  0
 14 16  1  0  0  0  0
 14 17  1  0  0  0  0
 11 12  1  0  0  0  0
 11 13  1  0  0  0  0
 11 14  1  0  0  0  0
  9 10  1  0  0  0  0
  9 11  1  0  0  0  0
  9 22  1  0  0  0  0
  7  8  1  0  0  0  0
  7  9  1  0  0  0  0
 26 27  1  0  0  0  0
 26 28  1  0  0  0  0
 26 29  1  0  0  0  0
 24 25  1  0  0  0  0
 24 26  1  0  0  0  0
M  END
$$$$
default_name
  -OEChem-02102213163D

 29 28  0     1  0  0  0  0  0999 V2000
   -3.5781   -3.7296    1.2702 H   0  0  0  0  0  0  0  0  0  0  0  0
   -3.5311   -2.7616    0.7732 C   0  0  0  0  0  0  0  0  0  0  0  0
   -4.2371   -2.0766    1.2382 H   0  0  0  0  0  0  0  0  0  0  0  0
   -3.7681   -2.8816   -0.2818 H   0  0  0  0  0  0  0  0  0  0  0  0
   -2.1321   -2.2086    0.9112 C   0  0  0  0  0  0  0  0  0  0  0  0
   -1.2751   -2.8426    1.5112 O   0  0  0  0  0  0  0  0  0  0  0  0
   -1.9041   -1.0186    0.3602 N   0  0  0  0  0  0  0  0  0  0  0  0
   -2.6671   -0.5416   -0.0988 H   0  0  0  0  0  0  0  0  0  0  0  0
   -0.6131   -0.3236    0.3832 C   0  0  1  0  0  0  0  0  0  0  0  0
    0.1346   -0.9625   -0.0894 H   0  0  0  0  0  0  0  0  0  0  0  0
   -0.7253    0.9751   -0.4365 C   0  0  0  0  0  0  0  0  0  0  0  0
   -0.4963    1.8218    0.2141 H   0  0  0  0  0  0  0  0  0  0  0  0
    0.0093    0.9562   -1.2428 H   0  0  0  0  0  0  0  0  0  0  0  0
   -2.1148    1.1970   -1.0449 C   0  0  0  0  0  0  0  0  0  0  0  0
   -2.8656    0.7503   -0.3938 H   0  0  0  0  0  0  0  0  0  0  0  0
   -2.3012    2.2696   -1.1106 H   0  0  0  0  0  0  0  0  0  0  0  0
   -2.3065    0.4812   -2.6973 S   0  0  0  0  0  0  0  0  0  0  0  0
   -1.2105    1.5750   -3.6376 C   0  0  0  0  0  0  0  0  0  0  0  0
   -0.1958    1.5051   -3.2445 H   0  0  0  0  0  0  0  0  0  0  0  0
   -1.2111    1.2734   -4.6854 H   0  0  0  0  0  0  0  0  0  0  0  0
   -1.5630    2.6039   -3.5604 H   0  0  0  0  0  0  0  0  0  0  0  0
   -0.1711   -0.0594    1.8296 C   0  0  0  0  0  0  0  0  0  0  0  0
    0.9865   -0.2908    2.1726 O   0  0  0  0  0  0  0  0  0  0  0  0
   -1.0921    0.4156    2.6780 N   0  0  0  0  0  0  0  0  0  0  0  0
   -2.0168    0.5953    2.3206 H   0  0  0  0  0  0  0  0  0  0  0  0
   -0.8319    0.7034    4.0877 C   0  0  0  0  0  0  0  0  0  0  0  0
   -0.0192    1.4288    4.1710 H   0  0  0  0  0  0  0  0  0  0  0  0
   -1.7255    1.1088    4.5641 H   0  0  0  0  0  0  0  0  0  0  0  0
   -0.5319   -0.2118    4.6011 H   0  0  0  0  0  0  0  0  0  0  0  0
  5  6  2  0  0  0  0
  5  7  1  0  0  0  0
  2  3  1  0  0  0  0
  2  4  1  0  0  0  0
  2  5  1  0  0  0  0
  1  2  1  0  0  0  0
 22 23  2  0  0  0  0
 22 24  1  0  0  0  0
 18 19  1  0  0  0  0
 18 20  1  0  0  0  0
 18 21  1  0  0  0  0
 17 18  1  0  0  0  0
 14 15  1  0  0  0  0
 14 16  1  0  0  0  0
 14 17  1  0  0  0  0
 11 12  1  0  0  0  0
 11 13  1  0  0  0  0
 11 14  1  0  0  0  0
  9 10  1  0  0  0  0
  9 11  1  0  0  0  0
  9 22  1  0  0  0  0
  7  8  1  0  0  0  0
  7  9  1  0  0  0  0
 26 27  1  0  0  0  0
 26 28  1  0  0  0  0
 26 29  1  0  0  0  0
 24 25  1  0  0  0  0
 24 26  1  0  0  0  0
M  END
$$$$
default_name
  -OEChem-02102213163D

 29 28  0     1  0  0  0  0  0999 V2000
   -3.5781   -3.7296    1.2702 H   0  0  0  0  0  0  0  0  0  0  0  0
   -3.5311   -2.7616    0.7732 C   0  0  0  0  0  0  0  0  0  0  0  0
   -4.2371   -2.0766    1.2382 H   0  0  0  0  0  0  0  0  0  0  0  0
   -3.7681   -2.8816   -0.2818 H   0  0  0  0  0  0  0  0  0  0  0  0
   -2.1321   -2.2086    0.9112 C   0  0  0  0  0  0  0  0  0  0  0  0
   -1.2751   -2.8426    1.5112 O   0  0  0  0  0  0  0  0  0  0  0  0
   -1.9041   -1.0186    0.3602 N   0  0  0  0  0  0  0  0  0  0  0  0
   -2.6671   -0.5416   -0.0988 H   0  0  0  0  0  0  0  0  0  0  0  0
   -0.6131   -0.3236    0.3832 C   0  0  1  0  0  0  0  0  0  0  0  0
    0.1346   -0.9625   -0.0894 H   0  0  0  0  0  0  0  0  0  0  0  0
   -0.7253    0.9751   -0.4365 C   0  0  0  0  0  0  0  0  0  0  0  0
   -0.4963    1.8218    0.2141 H   0  0  0  0  0  0  0  0  0  0  0  0
    0.0093    0.9562   -1.2428 H   0  0  0  0  0  0  0  0  0  0  0  0
   -2.1148    1.1970   -1.0449 C   0  0  0  0  0  0  0  0  0  0  0  0
   -2.8725    0.9971   -0.2878 H   0  0  0  0  0  0  0  0  0  0  0  0
   -2.1979    2.2385   -1.3577 H   0  0  0  0  0  0  0  0  0  0  0  0
   -2.4579    0.1412   -2.4757 S   0  0  0  0  0  0  0  0  0  0  0  0
   -1.3078    0.8623   -3.6754 C   0  0  0  0  0  0  0  0  0  0  0  0
   -0.2866    0.7775   -3.3027 H   0  0  0  0  0  0  0  0  0  0  0  0
   -1.3901    0.3270   -4.6218 H   0  0  0  0  0  0  0  0  0  0  0  0
   -1.5532    1.9126   -3.8349 H   0  0  0  0  0  0  0  0  0  0  0  0
   -0.1711   -0.0594    1.8296 C   0  0  0  0  0  0  0  0  0  0  0  0
    0.9865   -0.2908    2.1726 O   0  0  0  0  0  0  0  0  0  0  0  0
   -1.0921    0.4156    2.6780 N   0  0  0  0  0  0  0  0  0  0  0  0
   -2.0168    0.5953    2.3206 H   0  0  0  0  0  0  0  0  0  0  0  0
   -0.8319    0.7034    4.0877 C   0  0  0  0  0  0  0  0  0  0  0  0
   -0.0192    1.4288    4.1710 H   0  0  0  0  0  0  0  0  0  0  0  0
   -1.7255    1.1088    4.5641 H   0  0  0  0  0  0  0  0  0  0  0  0
   -0.5319   -0.2118    4.6011 H   0  0  0  0  0  0  0  0  0  0  0  0
  5  6  2  0  0  0  0
  5  7  1  0  0  0  0
  2  3  1  0  0  0  0
  2  4  1  0  0  0  0
  2  5  1  0  0  0  0
  1  2  1  0  0  0  0
 22 23  2  0  0  0  0
 22 24  1  0  0  0  0
 18 19  1  0  0  0  0
 18 20  1  0  0  0  0
 18 21  1  0  0  0  0
 17 18  1  0  0  0  0
 14 15  1  0  0  0  0
 14 16  1  0  0  0  0
 14 17  1  0  0  0  0
 11 12  1  0  0  0  0
 11 13  1  0  0  0  0
 11 14  1  0  0  0  0
  9 10  1  0  0  0  0
  9 11  1  0  0  0  0
  9 22  1  0  0  0  0
  7  8  1  0  0  0  0
  7  9  1  0  0  0  0
 26 27  1  0  0  0  0
 26 28  1  0  0  0  0
 26 29  1  0  0  0  0
 24 25  1  0  0  0  0
 24 26  1  0  0  0  0
M  END
$$$$
default_name
  -OEChem-02102213163D

 29 28  0     1  0  0  0  0  0999 V2000
   -3.5781   -3.7296    1.2702 H   0  0  0  0  0  0  0  0  0  0  0  0
   -3.5311   -2.7616    0.7732 C   0  0  0  0  0  0  0  0  0  0  0  0
   -4.2371   -2.0766    1.2382 H   0  0  0  0  0  0  0  0  0  0  0  0
   -3.7681   -2.8816   -0.2818 H   0  0  0  0  0  0  0  0  0  0  0  0
   -2.1321   -2.2086    0.9112 C   0  0  0  0  0  0  0  0  0  0  0  0
   -1.2751   -2.8426    1.5112 O   0  0  0  0  0  0  0  0  0  0  0  0
   -1.9041   -1.0186    0.3602 N   0  0  0  0  0  0  0  0  0  0  0  0
   -2.6671   -0.5416   -0.0988 H   0  0  0  0  0  0  0  0  0  0  0  0
   -0.6131   -0.3236    0.3832 C   0  0  1  0  0  0  0  0  0  0  0  0
    0.1346   -0.9625   -0.0894 H   0  0  0  0  0  0  0  0  0  0  0  0
   -0.7253    0.9751   -0.4365 C   0  0  0  0  0  0  0  0  0  0  0  0
   -0.4963    1.8218    0.2141 H   0  0  0  0  0  0  0  0  0  0  0  0
    0.0093    0.9562   -1.2428 H   0  0  0  0  0  0  0  0  0  0  0  0
   -2.1148    1.1970   -1.0449 C   0  0  0  0  0  0  0  0  0  0  0  0
   -2.8499    1.2611   -0.2432 H   0  0  0  0  0  0  0  0  0  0  0  0
   -2.1107    2.1399   -1.5930 H   0  0  0  0  0  0  0  0  0  0  0  0
   -2.6306   -0.1196   -2.1762 S   0  0  0  0  0  0  0  0  0  0  0  0
   -1.4764    0.1750   -3.5411 C   0  0  0  0  0  0  0  0  0  0  0  0
   -0.4512    0.0703   -3.1847 H   0  0  0  0  0  0  0  0  0  0  0  0
   -1.6579   -0.5537   -4.3316 H   0  0  0  0  0  0  0  0  0  0  0  0
   -1.6251    1.1795   -3.9382 H   0  0  0  0  0  0  0  0  0  0  0  0
   -0.1711   -0.0594    1.8296 C   0  0  0  0  0  0  0  0  0  0  0  0
    0.9865   -0.2908    2.1726 O   0  0  0  0  0  0  0  0  0  0  0  0
   -1.0921    0.4156    2.6780 N   0  0  0  0  0  0  0  0  0  0  0  0
   -2.0168    0.5953    2.3206 H   0  0  0  0  0  0  0  0  0  0  0  0
   -0.8319    0.7034    4.0877 C   0  0  0  0  0  0  0  0  0  0  0  0
   -0.0192    1.4288    4.1710 H   0  0  0  0  0  0  0  0  0  0  0  0
   -1.7255    1.1088    4.5641 H   0  0  0  0  0  0  0  0  0  0  0  0
   -0.5319   -0.2118    4.6011 H   0  0  0  0  0  0  0  0  0  0  0  0
  5  6  2  0  0  0  0
  5  7  1  0  0  0  0
  2  3  1  0  0  0  0
  2  4  1  0  0  0  0
  2  5  1  0  0  0  0
  1  2  1  0  0  0  0
 22 23  2  0  0  0  0
 22 24  1  0  0  0  0
 18 19  1  0  0  0  0
 18 20  1  0  0  0  0
 18 21  1  0  0  0  0
 17 18  1  0  0  0  0
 14 15  1  0  0  0  0
 14 16  1  0  0  0  0
 14 17  1  0  0  0  0
 11 12  1  0  0  0  0
 11 13  1  0  0  0  0
 11 14  1  0  0  0  0
  9 10  1  0  0  0  0
  9 11  1  0  0  0  0
  9 22  1  0  0  0  0
  7  8  1  0  0  0  0
  7  9  1  0  0  0  0
 26 27  1  0  0  0  0
 26 28  1  0  0  0  0
 26 29  1  0  0  0  0
 24 25  1  0  0  0  0
 24 26  1  0  0  0  0
M  END
$$$$
default_name
  -OEChem-02102213163D

 29 28  0     1  0  0  0  0  0999 V2000
   -3.5781   -3.7296    1.2702 H   0  0  0  0  0  0  0  0  0  0  0  0
   -3.5311   -2.7616    0.7732 C   0  0  0  0  0  0  0  0  0  0  0  0
   -4.2371   -2.0766    1.2382 H   0  0  0  0  0  0  0  0  0  0  0  0
   -3.7681   -2.8816   -0.2818 H   0  0  0  0  0  0  0  0  0  0  0  0
   -2.1321   -2.2086    0.9112 C   0  0  0  0  0  0  0  0  0  0  0  0
   -1.2751   -2.8426    1.5112 O   0  0  0  0  0  0  0  0  0  0  0  0
   -1.9041   -1.0186    0.3602 N   0  0  0  0  0  0  0  0  0  0  0  0
   -2.6671   -0.5416   -0.0988 H   0  0  0  0  0  0  0  0  0  0  0  0
   -0.6131   -0.3236    0.3832 C   0  0  1  0  0  0  0  0  0  0  0  0
    0.1346   -0.9625   -0.0894 H   0  0  0  0  0  0  0  0  0  0  0  0
   -0.7253    0.9751   -0.4365 C   0  0  0  0  0  0  0  0  0  0  0  0
   -0.4963    1.8218    0.2141 H   0  0  0  0  0  0  0  0  0  0  0  0
    0.0093    0.9562   -1.2428 H   0  0  0  0  0  0  0  0  0  0  0  0
   -2.1148    1.1970   -1.0449 C   0  0  0  0  0  0  0  0  0  0  0  0
   -2.7993    1.5243   -0.2628 H   0  0  0  0  0  0  0  0  0  0  0  0
   -2.0453    1.9805   -1.8004 H   0  0  0  0  0  0  0  0  0  0  0  0
   -2.8131   -0.2836   -1.8193 S   0  0  0  0  0  0  0  0  0  0  0  0
   -1.7049   -0.4401   -3.2437 C   0  0  0  0  0  0  0  0  0  0  0  0
   -0.6785   -0.5683   -2.8987 H   0  0  0  0  0  0  0  0  0  0  0  0
   -1.9961   -1.3089   -3.8346 H   0  0  0  0  0  0  0  0  0  0  0  0
   -1.7737    0.4545   -3.8633 H   0  0  0  0  0  0  0  0  0  0  0  0
   -0.1711   -0.0594    1.8296 C   0  0  0  0  0  0  0  0  0  0  0  0
    0.9865   -0.2908    2.1726 O   0  0  0  0  0  0  0  0  0  0  0  0
   -1.0921    0.4156    2.6780 N   0  0  0  0  0  0  0  0  0  0  0  0
   -2.0168    0.5953    2.3206 H   0  0  0  0  0  0  0  0  0  0  0  0
   -0.8319    0.7034    4.0877 C   0  0  0  0  0  0  0  0  0  0  0  0
   -0.0192    1.4288    4.1710 H   0  0  0  0  0  0  0  0  0  0  0  0
   -1.7255    1.1088    4.5641 H   0  0  0  0  0  0  0  0  0  0  0  0
   -0.5319   -0.2118    4.6011 H   0  0  0  0  0  0  0  0  0  0  0  0
  5  6  2  0  0  0  0
  5  7  1  0  0  0  0
  2  3  1  0  0  0  0
  2  4  1  0  0  0  0
  2  5  1  0  0  0  0
  1  2  1  0  0  0  0
 22 23  2  0  0  0  0
 22 24  1  0  0  0  0
 18 19  1  0  0  0  0
 18 20  1  0  0  0  0
 18 21  1  0  0  0  0
 17 18  1  0  0  0  0
 14 15  1  0  0  0  0
 14 16  1  0  0  0  0
 14 17  1  0  0  0  0
 11 12  1  0  0  0  0
 11 13  1  0  0  0  0
 11 14  1  0  0  0  0
  9 10  1  0  0  0  0
  9 11  1  0  0  0  0
  9 22  1  0  0  0  0
  7  8  1  0  0  0  0
  7  9  1  0  0  0  0
 26 27  1  0  0  0  0
 26 28  1  0  0  0  0
 26 29  1  0  0  0  0
 24 25  1  0  0  0  0
 24 26  1  0  0  0  0
M  END
$$$$
default_name
  -OEChem-02102213163D

 29 28  0     1  0  0  0  0  0999 V2000
   -3.5781   -3.7296    1.2702 H   0  0  0  0  0  0  0  0  0  0  0  0
   -3.5311   -2.7616    0.7732 C   0  0  0  0  0  0  0  0  0  0  0  0
   -4.2371   -2.0766    1.2382 H   0  0  0  0  0  0  0  0  0  0  0  0
   -3.7681   -2.8816   -0.2818 H   0  0  0  0  0  0  0  0  0  0  0  0
   -2.1321   -2.2086    0.9112 C   0  0  0  0  0  0  0  0  0  0  0  0
   -1.2751   -2.8426    1.5112 O   0  0  0  0  0  0  0  0  0  0  0  0
   -1.9041   -1.0186    0.3602 N   0  0  0  0  0  0  0  0  0  0  0  0
   -2.6671   -0.5416   -0.0988 H   0  0  0  0  0  0  0  0  0  0  0  0
   -0.6131   -0.3236    0.3832 C   0  0  1  0  0  0  0  0  0  0  0  0
    0.1346   -0.9625   -0.0894 H   0  0  0  0  0  0  0  0  0  0  0  0
   -0.7253    0.9751   -0.4365 C   0  0  0  0  0  0  0  0  0  0  0  0
   -0.4963    1.8218    0.2141 H   0  0  0  0  0  0  0  0  0  0  0  0
    0.0093    0.9562   -1.2428 H   0  0  0  0  0  0  0  0  0  0  0  0
   -2.1148    1.1970   -1.0449 C   0  0  0  0  0  0  0  0  0  0  0  0
   -2.7241    1.7686   -0.3454 H   0  0  0  0  0  0  0  0  0  0  0  0
   -2.0064    1.7711   -1.9658 H   0  0  0  0  0  0  0  0  0  0  0  0
   -2.9928   -0.3395   -1.4292 S   0  0  0  0  0  0  0  0  0  0  0  0
   -1.9775   -0.9409   -2.8037 C   0  0  0  0  0  0  0  0  0  0  0  0
   -0.9528   -1.0946   -2.4641 H   0  0  0  0  0  0  0  0  0  0  0  0
   -2.3818   -1.8870   -3.1647 H   0  0  0  0  0  0  0  0  0  0  0  0
   -1.9889   -0.2130   -3.6154 H   0  0  0  0  0  0  0  0  0  0  0  0
   -0.1711   -0.0594    1.8296 C   0  0  0  0  0  0  0  0  0  0  0  0
    0.9865   -0.2908    2.1726 O   0  0  0  0  0  0  0  0  0  0  0  0
   -1.0921    0.4156    2.6780 N   0  0  0  0  0  0  0  0  0  0  0  0
   -2.0168    0.5953    2.3206 H   0  0  0  0  0  0  0  0  0  0  0  0
   -0.8319    0.7034    4.0877 C   0  0  0  0  0  0  0  0  0  0  0  0
   -0.0192    1.4288    4.1710 H   0  0  0  0  0  0  0  0  0  0  0  0
   -1.7255    1.1088    4.5641 H   0  0  0  0  0  0  0  0  0  0  0  0
   -0.5319   -0.2118    4.6011 H   0  0  0  0  0  0  0  0  0  0  0  0
  5  6  2  0  0  0  0
  5  7  1  0  0  0  0
  2  3  1  0  0  0  0
  2  4  1  0  0  0  0
  2  5  1  0  0  0  0
  1  2  1  0  0  0  0
 22 23  2  0  0  0  0
 22 24  1  0  0  0  0
 18 19  1  0  0  0  0
 18 20  1  0  0  0  0
 18 21  1  0  0  0  0
 17 18  1  0  0  0  0
 14 15  1  0  0  0  0
 14 16  1  0  0  0  0
 14 17  1  0  0  0  0
 11 12  1  0  0  0  0
 11 13  1  0  0  0  0
 11 14  1  0  0  0  0
  9 10  1  0  0  0  0
  9 11  1  0  0  0  0
  9 22  1  0  0  0  0
  7  8  1  0  0  0  0
  7  9  1  0  0  0  0
 26 27  1  0  0  0  0
 26 28  1  0  0  0  0
 26 29  1  0  0  0  0
 24 25  1  0  0  0  0
 24 26  1  0  0  0  0
M  END
$$$$
default_name
  -OEChem-02102213163D

 29 28  0     1  0  0  0  0  0999 V2000
   -3.5781   -3.7296    1.2702 H   0  0  0  0  0  0  0  0  0  0  0  0
   -3.5311   -2.7616    0.7732 C   0  0  0  0  0  0  0  0  0  0  0  0
   -4.2371   -2.0766    1.2382 H   0  0  0  0  0  0  0  0  0  0  0  0
   -3.7681   -2.8816   -0.2818 H   0  0  0  0  0  0  0  0  0  0  0  0
   -2.1321   -2.2086    0.9112 C   0  0  0  0  0  0  0  0  0  0  0  0
   -1.2751   -2.8426    1.5112 O   0  0  0  0  0  0  0  0  0  0  0  0
   -1.9041   -1.0186    0.3602 N   0  0  0  0  0  0  0  0  0  0  0  0
   -2.6671   -0.5416   -0.0988 H   0  0  0  0  0  0  0  0  0  0  0  0
   -0.6131   -0.3236    0.3832 C   0  0  1  0  0  0  0  0  0  0  0  0
    0.1346   -0.9625   -0.0894 H   0  0  0  0  0  0  0  0  0  0  0  0
   -0.7253    0.9751   -0.4365 C   0  0  0  0  0  0  0  0  0  0  0  0
   -0.4963    1.8218    0.2141 H   0  0  0  0  0  0  0  0  0  0  0  0
    0.0093    0.9562   -1.2428 H   0  0  0  0  0  0  0  0  0  0  0  0
   -2.1148    1.1970   -1.0449 C   0  0  0  0  0  0  0  0  0  0  0  0
   -2.6294    1.9776   -0.4853 H   0  0  0  0  0  0  0  0  0  0  0  0
   -1.9964    1.5261   -2.0779 H   0  0  0  0  0  0  0  0  0  0  0  0
   -3.1576   -0.2836   -1.0325 S   0  0  0  0  0  0  0  0  0  0  0  0
   -2.2759   -1.2935   -2.2509 C   0  0  0  0  0  0  0  0  0  0  0  0
   -1.2556   -1.4729   -1.9106 H   0  0  0  0  0  0  0  0  0  0  0  0
   -2.7885   -2.2487   -2.3676 H   0  0  0  0  0  0  0  0  0  0  0  0
   -2.2560   -0.7774   -3.2112 H   0  0  0  0  0  0  0  0  0  0  0  0
   -0.1711   -0.0594    1.8296 C   0  0  0  0  0  0  0  0  0  0  0  0
    0.9865   -0.2908    2.1726 O   0  0  0  0  0  0  0  0  0  0  0  0
   -1.0921    0.4156    2.6780 N   0  0  0  0  0  0  0  0  0  0  0  0
   -2.0168    0.5953    2.3206 H   0  0  0  0  0  0  0  0  0  0  0  0
   -0.8319    0.7034    4.0877 C   0  0  0  0  0  0  0  0  0  0  0  0
   -0.0192    1.4288    4.1710 H   0  0  0  0  0  0  0  0  0  0  0  0
   -1.7255    1.1088    4.5641 H   0  0  0  0  0  0  0  0  0  0  0  0
   -0.5319   -0.2118    4.6011 H   0  0  0  0  0  0  0  0  0  0  0  0
  5  6  2  0  0  0  0
  5  7  1  0  0  0  0
  2  3  1  0  0  0  0
  2  4  1  0  0  0  0
  2  5  1  0  0  0  0
  1  2  1  0  0  0  0
 22 23  2  0  0  0  0
 22 24  1  0  0  0  0
 18 19  1  0  0  0  0
 18 20  1  0  0  0  0
 18 21  1  0  0  0  0
 17 18  1  0  0  0  0
 14 15  1  0  0  0  0
 14 16  1  0  0  0  0
 14 17  1  0  0  0  0
 11 12  1  0  0  0  0
 11 13  1  0  0  0  0
 11 14  1  0  0  0  0
  9 10  1  0  0  0  0
  9 11  1  0  0  0  0
  9 22  1  0  0  0  0
  7  8  1  0  0  0  0
  7  9  1  0  0  0  0
 26 27  1  0  0  0  0
 26 28  1  0  0  0  0
 26 29  1  0  0  0  0
 24 25  1  0  0  0  0
 24 26  1  0  0  0  0
M  END
$$$$
default_name
  -OEChem-02102213163D

 29 28  0     1  0  0  0  0  0999 V2000
   -3.5781   -3.7296    1.2702 H   0  0  0  0  0  0  0  0  0  0  0  0
   -3.5311   -2.7616    0.7732 C   0  0  0  0  0  0  0  0  0  0  0  0
   -4.2371   -2.0766    1.2382 H   0  0  0  0  0  0  0  0  0  0  0  0
   -3.7681   -2.8816   -0.2818 H   0  0  0  0  0  0  0  0  0  0  0  0
   -2.1321   -2.2086    0.9112 C   0  0  0  0  0  0  0  0  0  0  0  0
   -1.2751   -2.8426    1.5112 O   0  0  0  0  0  0  0  0  0  0  0  0
   -1.9041   -1.0186    0.3602 N   0  0  0  0  0  0  0  0  0  0  0  0
   -2.6671   -0.5416   -0.0988 H   0  0  0  0  0  0  0  0  0  0  0  0
   -0.6131   -0.3236    0.3832 C   0  0  1  0  0  0  0  0  0  0  0  0
    0.1346   -0.9625   -0.0894 H   0  0  0  0  0  0  0  0  0  0  0  0
   -0.7253    0.9751   -0.4365 C   0  0  0  0  0  0  0  0  0  0  0  0
   -0.4963    1.8218    0.2141 H   0  0  0  0  0  0  0  0  0  0  0  0
    0.0093    0.9562   -1.2428 H   0  0  0  0  0  0  0  0  0  0  0  0
   -2.1148    1.1970   -1.0449 C   0  0  0  0  0  0  0  0  0  0  0  0
   -2.5218    2.1369   -0.6731 H   0  0  0  0  0  0  0  0  0  0  0  0
   -2.0162    1.2621   -2.1290 H   0  0  0  0  0  0  0  0  0  0  0  0
   -3.2961   -0.1196   -0.6564 S   0  0  0  0  0  0  0  0  0  0  0  0
   -2.5795   -1.4737   -1.6231 C   0  0  0  0  0  0  0  0  0  0  0  0
   -1.5662   -1.6773   -1.2759 H   0  0  0  0  0  0  0  0  0  0  0  0
   -3.1887   -2.3692   -1.4976 H   0  0  0  0  0  0  0  0  0  0  0  0
   -2.5569   -1.2004   -2.6784 H   0  0  0  0  0  0  0  0  0  0  0  0
   -0.1711   -0.0594    1.8296 C   0  0  0  0  0  0  0  0  0  0  0  0
    0.9865   -0.2908    2.1726 O   0  0  0  0  0  0  0  0  0  0  0  0
   -1.0921    0.4156    2.6780 N   0  0  0  0  0  0  0  0  0  0  0  0
   -2.0168    0.5953    2.3206 H   0  0  0  0  0  0  0  0  0  0  0  0
   -0.8319    0.7034    4.0877 C   0  0  0  0  0  0  0  0  0  0  0  0
   -0.0192    1.4288    4.1710 H   0  0  0  0  0  0  0  0  0  0  0  0
   -1.7255    1.1088    4.5641 H   0  0  0  0  0  0  0  0  0  0  0  0
   -0.5319   -0.2118    4.6011 H   0  0  0  0  0  0  0  0  0  0  0  0
  5  6  2  0  0  0  0
  5  7  1  0  0  0  0
  2  3  1  0  0  0  0
  2  4  1  0  0  0  0
  2  5  1  0  0  0  0
  1  2  1  0  0  0  0
 22 23  2  0  0  0  0
 22 24  1  0  0  0  0
 18 19  1  0  0  0  0
 18 20  1  0  0  0  0
 18 21  1  0  0  0  0
 17 18  1  0  0  0  0
 14 15  1  0  0  0  0
 14 16  1  0  0  0  0
 14 17  1  0  0  0  0
 11 12  1  0  0  0  0
 11 13  1  0  0  0  0
 11 14  1  0  0  0  0
  9 10  1  0  0  0  0
  9 11  1  0  0  0  0
  9 22  1  0  0  0  0
  7  8  1  0  0  0  0
  7  9  1  0  0  0  0
 26 27  1  0  0  0  0
 26 28  1  0  0  0  0
 26 29  1  0  0  0  0
 24 25  1  0  0  0  0
 24 26  1  0  0  0  0
M  END
$$$$
default_name
  -OEChem-02102213163D

 29 28  0     1  0  0  0  0  0999 V2000
   -3.5781   -3.7296    1.2702 H   0  0  0  0  0  0  0  0  0  0  0  0
   -3.5311   -2.7616    0.7732 C   0  0  0  0  0  0  0  0  0  0  0  0
   -4.2371   -2.0766    1.2382 H   0  0  0  0  0  0  0  0  0  0  0  0
   -3.7681   -2.8816   -0.2818 H   0  0  0  0  0  0  0  0  0  0  0  0
   -2.1321   -2.2086    0.9112 C   0  0  0  0  0  0  0  0  0  0  0  0
   -1.2751   -2.8426    1.5112 O   0  0  0  0  0  0  0  0  0  0  0  0
   -1.9041   -1.0186    0.3602 N   0  0  0  0  0  0  0  0  0  0  0  0
   -2.6671   -0.5416   -0.0988 H   0  0  0  0  0  0  0  0  0  0  0  0
   -0.6131   -0.3236    0.3832 C   0  0  1  0  0  0  0  0  0  0  0  0
    0.1346   -0.9625   -0.0894 H   0  0  0  0  0  0  0  0  0  0  0  0
   -0.7253    0.9751   -0.4365 C   0  0  0  0  0  0  0  0  0  0  0  0
   -0.4963    1.8218    0.2141 H   0  0  0  0  0  0  0  0  0  0  0  0
    0.0093    0.9562   -1.2428 H   0  0  0  0  0  0  0  0  0  0  0  0
   -2.1148    1.1970   -1.0449 C   0  0  0  0  0  0  0  0  0  0  0  0
   -2.4085    2.2356   -0.8958 H   0  0  0  0  0  0  0  0  0  0  0  0
   -2.0643    0.9972   -2.1158 H   0  0  0  0  0  0  0  0  0  0  0  0
   -3.3989    0.1413   -0.3263 S   0  0  0  0  0  0  0  0  0  0  0  0
   -2.8678   -1.4693   -0.9630 C   0  0  0  0  0  0  0  0  0  0  0  0
   -1.8633   -1.6939   -0.6031 H   0  0  0  0  0  0  0  0  0  0  0  0
   -3.5551   -2.2405   -0.6139 H   0  0  0  0  0  0  0  0  0  0  0  0
   -2.8709   -1.4531   -2.0533 H   0  0  0  0  0  0  0  0  0  0  0  0
   -0.1711   -0.0594    1.8296 C   0  0  0  0  0  0  0  0  0  0  0  0
    0.9865   -0.2908    2.1726 O   0  0  0  0  0  0  0  0  0  0  0  0
   -1.0921    0.4156    2.6780 N   0  0  0  0  0  0  0  0  0  0  0  0
   -2.0168    0.5953    2.3206 H   0  0  0  0  0  0  0  0  0  0  0  0
   -0.8319    0.7034    4.0877 C   0  0  0  0  0  0  0  0  0  0  0  0
   -0.0192    1.4288    4.1710 H   0  0  0  0  0  0  0  0  0  0  0  0
   -1.7255    1.1088    4.5641 H   0  0  0  0  0  0  0  0  0  0  0  0
   -0.5319   -0.2118    4.6011 H   0  0  0  0  0  0  0  0  0  0  0  0
  5  6  2  0  0  0  0
  5  7  1  0  0  0  0
  2  3  1  0  0  0  0
  2  4  1  0  0  0  0
  2  5  1  0  0  0  0
  1  2  1  0  0  0  0
 22 23  2  0  0  0  0
 22 24  1  0  0  0  0
 18 19  1  0  0  0  0
 18 20  1  0  0  0  0
 18 21  1  0  0  0  0
 17 18  1  0  0  0  0
 14 15  1  0  0  0  0
 14 16  1  0  0  0  0
 14 17  1  0  0  0  0
 11 12  1  0  0  0  0
 11 13  1  0  0  0  0
 11 14  1  0  0  0  0
  9 10  1  0  0  0  0
  9 11  1  0  0  0  0
  9 22  1  0  0  0  0
  7  8  1  0  0  0  0
  7  9  1  0  0  0  0
 26 27  1  0  0  0  0
 26 28  1  0  0  0  0
 26 29  1  0  0  0  0
 24 25  1  0  0  0  0
 24 26  1  0  0  0  0
M  END
$$$$
default_name
  -OEChem-02102213163D

 29 28  0     1  0  0  0  0  0999 V2000
   -3.5781   -3.7296    1.2702 H   0  0  0  0  0  0  0  0  0  0  0  0
   -3.5311   -2.7616    0.7732 C   0  0  0  0  0  0  0  0  0  0  0  0
   -4.2371   -2.0766    1.2382 H   0  0  0  0  0  0  0  0  0  0  0  0
   -3.7681   -2.8816   -0.2818 H   0  0  0  0  0  0  0  0  0  0  0  0
   -2.1321   -2.2086    0.9112 C   0  0  0  0  0  0  0  0  0  0  0  0
   -1.2751   -2.8426    1.5112 O   0  0  0  0  0  0  0  0  0  0  0  0
   -1.9041   -1.0186    0.3602 N   0  0  0  0  0  0  0  0  0  0  0  0
   -2.6671   -0.5416   -0.0988 H   0  0  0  0  0  0  0  0  0  0  0  0
   -0.6131   -0.3236    0.3832 C   0  0  1  0  0  0  0  0  0  0  0  0
    0.1346   -0.9625   -0.0894 H   0  0  0  0  0  0  0  0  0  0  0  0
   -0.7253    0.9751   -0.4365 C   0  0  0  0  0  0  0  0  0  0  0  0
   -0.4963    1.8218    0.2141 H   0  0  0  0  0  0  0  0  0  0  0  0
    0.0093    0.9562   -1.2428 H   0  0  0  0  0  0  0  0  0  0  0  0
   -2.1148    1.1970   -1.0449 C   0  0  0  0  0  0  0  0  0  0  0  0
   -2.2973    2.2671   -1.1383 H   0  0  0  0  0  0  0  0  0  0  0  0
   -2.1375    0.7493   -2.0390 H   0  0  0  0  0  0  0  0  0  0  0  0
   -3.4591    0.4814   -0.0648 S   0  0  0  0  0  0  0  0  0  0  0  0
   -3.1211   -1.2806   -0.3157 C   0  0  0  0  0  0  0  0  0  0  0  0
   -2.1269   -1.5217    0.0617 H   0  0  0  0  0  0  0  0  0  0  0  0
   -3.8626   -1.8712    0.2232 H   0  0  0  0  0  0  0  0  0  0  0  0
   -3.1768   -1.5182   -1.3784 H   0  0  0  0  0  0  0  0  0  0  0  0
   -0.1711   -0.0594    1.8296 C   0  0  0  0  0  0  0  0  0  0  0  0
    0.9865   -0.2908    2.1726 O   0  0  0  0  0  0  0  0  0  0  0  0
   -1.0921    0.4156    2.6780 N   0  0  0  0  0  0  0  0  0  0  0  0
   -2.0168    0.5953    2.3206 H   0  0  0  0  0  0  0  0  0  0  0  0
   -0.8319    0.7034    4.0877 C   0  0  0  0  0  0  0  0  0  0  0  0
   -0.0192    1.4288    4.1710 H   0  0  0  0  0  0  0  0  0  0  0  0
   -1.7255    1.1088    4.5641 H   0  0  0  0  0  0  0  0  0  0  0  0
   -0.5319   -0.2118    4.6011 H   0  0  0  0  0  0  0  0  0  0  0  0
  5  6  2  0  0  0  0
  5  7  1  0  0  0  0
  2  3  1  0  0  0  0
  2  4  1  0  0  0  0
  2  5  1  0  0  0  0
  1  2  1  0  0  0  0
 22 23  2  0  0  0  0
 22 24  1  0  0  0  0
 18 19  1  0  0  0  0
 18 20  1  0  0  0  0
 18 21  1  0  0  0  0
 17 18  1  0  0  0  0
 14 15  1  0  0  0  0
 14 16  1  0  0  0  0
 14 17  1  0  0  0  0
 11 12  1  0  0  0  0
 11 13  1  0  0  0  0
 11 14  1  0  0  0  0
  9 10  1  0  0  0  0
  9 11  1  0  0  0  0
  9 22  1  0  0  0  0
  7  8  1  0  0  0  0
  7  9  1  0  0  0  0
 26 27  1  0  0  0  0
 26 28  1  0  0  0  0
 26 29  1  0  0  0  0
 24 25  1  0  0  0  0
 24 26  1  0  0  0  0
M  END
$$$$
default_name
  -OEChem-02102213163D

 29 28  0     1  0  0  0  0  0999 V2000
   -3.5781   -3.7296    1.2702 H   0  0  0  0  0  0  0  0  0  0  0  0
   -3.5311   -2.7616    0.7732 C   0  0  0  0  0  0  0  0  0  0  0  0
   -4.2371   -2.0766    1.2382 H   0  0  0  0  0  0  0  0  0  0  0  0
   -3.7681   -2.8816   -0.2818 H   0  0  0  0  0  0  0  0  0  0  0  0
   -2.1321   -2.2086    0.9112 C   0  0  0  0  0  0  0  0  0  0  0  0
   -1.2751   -2.8426    1.5112 O   0  0  0  0  0  0  0  0  0  0  0  0
   -1.9041   -1.0186    0.3602 N   0  0  0  0  0  0  0  0  0  0  0  0
   -2.6671   -0.5416   -0.0988 H   0  0  0  0  0  0  0  0  0  0  0  0
   -0.6131   -0.3236    0.3832 C   0  0  1  0  0  0  0  0  0  0  0  0
    0.1346   -0.9625   -0.0894 H   0  0  0  0  0  0  0  0  0  0  0  0
   -0.7253    0.9751   -0.4365 C   0  0  0  0  0  0  0  0  0  0  0  0
   -0.4963    1.8218    0.2141 H   0  0  0  0  0  0  0  0  0  0  0  0
    0.0093    0.9562   -1.2428 H   0  0  0  0  0  0  0  0  0  0  0  0
   -2.1148    1.1970   -1.0449 C   0  0  0  0  0  0  0  0  0  0  0  0
   -2.1957    2.2292   -1.3842 H   0  0  0  0  0  0  0  0  0  0  0  0
   -2.2308    0.5354   -1.9040 H   0  0  0  0  0  0  0  0  0  0  0  0
   -3.4725    0.8773    0.1103 S   0  0  0  0  0  0  0  0  0  0  0  0
   -3.3221   -0.9205    0.2749 C   0  0  0  0  0  0  0  0  0  0  0  0
   -2.3389   -1.1723    0.6734 H   0  0  0  0  0  0  0  0  0  0  0  0
   -4.0903   -1.2865    0.9567 H   0  0  0  0  0  0  0  0  0  0  0  0
   -3.4537   -1.3914   -0.6997 H   0  0  0  0  0  0  0  0  0  0  0  0
   -0.1711   -0.0594    1.8296 C   0  0  0  0  0  0  0  0  0  0  0  0
    0.9865   -0.2908    2.1726 O   0  0  0  0  0  0  0  0  0  0  0  0
   -1.0921    0.4156    2.6780 N   0  0  0  0  0  0  0  0  0  0  0  0
   -2.0168    0.5953    2.3206 H   0  0  0  0  0  0  0  0  0  0  0  0
   -0.8319    0.7034    4.0877 C   0  0  0  0  0  0  0  0  0  0  0  0
   -0.0192    1.4288    4.1710 H   0  0  0  0  0  0  0  0  0  0  0  0
   -1.7255    1.1088    4.5641 H   0  0  0  0  0  0  0  0  0  0  0  0
   -0.5319   -0.2118    4.6011 H   0  0  0  0  0  0  0  0  0  0  0  0
  5  6  2  0  0  0  0
  5  7  1  0  0  0  0
  2  3  1  0  0  0  0
  2  4  1  0  0  0  0
  2  5  1  0  0  0  0
  1  2  1  0  0  0  0
 22 23  2  0  0  0  0
 22 24  1  0  0  0  0
 18 19  1  0  0  0  0
 18 20  1  0  0  0  0
 18 21  1  0  0  0  0
 17 18  1  0  0  0  0
 14 15  1  0  0  0  0
 14 16  1  0  0  0  0
 14 17  1  0  0  0  0
 11 12  1  0  0  0  0
 11 13  1  0  0  0  0
 11 14  1  0  0  0  0
  9 10  1  0  0  0  0
  9 11  1  0  0  0  0
  9 22  1  0  0  0  0
  7  8  1  0  0  0  0
  7  9  1  0  0  0  0
 26 27  1  0  0  0  0
 26 28  1  0  0  0  0
 26 29  1  0  0  0  0
 24 25  1  0  0  0  0
 24 26  1  0  0  0  0
M  END
$$$$
default_name
  -OEChem-02102213163D

 29 28  0     1  0  0  0  0  0999 V2000
   -3.5781   -3.7296    1.2702 H   0  0  0  0  0  0  0  0  0  0  0  0
   -3.5311   -2.7616    0.7732 C   0  0  0  0  0  0  0  0  0  0  0  0
   -4.2371   -2.0766    1.2382 H   0  0  0  0  0  0  0  0  0  0  0  0
   -3.7681   -2.8816   -0.2818 H   0  0  0  0  0  0  0  0  0  0  0  0
   -2.1321   -2.2086    0.9112 C   0  0  0  0  0  0  0  0  0  0  0  0
   -1.2751   -2.8426    1.5112 O   0  0  0  0  0  0  0  0  0  0  0  0
   -1.9041   -1.0186    0.3602 N   0  0  0  0  0  0  0  0  0  0  0  0
   -2.6671   -0.5416   -0.0988 H   0  0  0  0  0  0  0  0  0  0  0  0
   -0.6131   -0.3236    0.3832 C   0  0  1  0  0  0  0  0  0  0  0  0
    0.1346   -0.9625   -0.0894 H   0  0  0  0  0  0  0  0  0  0  0  0
   -0.7253    0.9751   -0.4365 C   0  0  0  0  0  0  0  0  0  0  0  0
   -0.4963    1.8218    0.2141 H   0  0  0  0  0  0  0  0  0  0  0  0
    0.0093    0.9562   -1.2428 H   0  0  0  0  0  0  0  0  0  0  0  0
   -2.1148    1.1970   -1.0449 C   0  0  0  0  0  0  0  0  0  0  0  0
   -2.1107    2.1245   -1.6166 H   0  0  0  0  0  0  0  0  0  0  0  0
   -2.3378    0.3700   -1.7199 H   0  0  0  0  0  0  0  0  0  0  0  0
   -3.4382    1.3022    0.1870 S   0  0  0  0  0  0  0  0  0  0  0  0
   -3.4572   -0.4134    0.7683 C   0  0  0  0  0  0  0  0  0  0  0  0
   -2.4848   -0.6695    1.1901 H   0  0  0  0  0  0  0  0  0  0  0  0
   -4.2227   -0.5263    1.5365 H   0  0  0  0  0  0  0  0  0  0  0  0
   -3.6827   -1.0812   -0.0636 H   0  0  0  0  0  0  0  0  0  0  0  0
   -0.1711   -0.0594    1.8296 C   0  0  0  0  0  0  0  0  0  0  0  0
    0.9865   -0.2908    2.1726 O   0  0  0  0  0  0  0  0  0  0  0  0
   -1.0921    0.4156    2.6780 N   0  0  0  0  0  0  0  0  0  0  0  0
   -2.0168    0.5953    2.3206 H   0  0  0  0  0  0  0  0  0  0  0  0
   -0.8319    0.7034    4.0877 C   0  0  0  0  0  0  0  0  0  0  0  0
   -0.0192    1.4288    4.1710 H   0  0  0  0  0  0  0  0  0  0  0  0
   -1.7255    1.1088    4.5641 H   0  0  0  0  0  0  0  0  0  0  0  0
   -0.5319   -0.2118    4.6011 H   0  0  0  0  0  0  0  0  0  0  0  0
  5  6  2  0  0  0  0
  5  7  1  0  0  0  0
  2  3  1  0  0  0  0
  2  4  1  0  0  0  0
  2  5  1  0  0  0  0
  1  2  1  0  0  0  0
 22 23  2  0  0  0  0
 22 24  1  0  0  0  0
 18 19  1  0  0  0  0
 18 20  1  0  0  0  0
 18 21  1  0  0  0  0
 17 18  1  0  0  0  0
 14 15  1  0  0  0  0
 14 16  1  0  0  0  0
 14 17  1  0  0  0  0
 11 12  1  0  0  0  0
 11 13  1  0  0  0  0
 11 14  1  0  0  0  0
  9 10  1  0  0  0  0
  9 11  1  0  0  0  0
  9 22  1  0  0  0  0
  7  8  1  0  0  0  0
  7  9  1  0  0  0  0
 26 27  1  0  0  0  0
 26 28  1  0  0  0  0
 26 29  1  0  0  0  0
 24 25  1  0  0  0  0
 24 26  1  0  0  0  0
M  END
$$$$
default_name
  -OEChem-02102213163D

 29 28  0     1  0  0  0  0  0999 V2000
   -3.5781   -3.7296    1.2702 H   0  0  0  0  0  0  0  0  0  0  0  0
   -3.5311   -2.7616    0.7732 C   0  0  0  0  0  0  0  0  0  0  0  0
   -4.2371   -2.0766    1.2382 H   0  0  0  0  0  0  0  0  0  0  0  0
   -3.7681   -2.8816   -0.2818 H   0  0  0  0  0  0  0  0  0  0  0  0
   -2.1321   -2.2086    0.9112 C   0  0  0  0  0  0  0  0  0  0  0  0
   -1.2751   -2.8426    1.5112 O   0  0  0  0  0  0  0  0  0  0  0  0
   -1.9041   -1.0186    0.3602 N   0  0  0  0  0  0  0  0  0  0  0  0
   -2.6671   -0.5416   -0.0988 H   0  0  0  0  0  0  0  0  0  0  0  0
   -0.6131   -0.3236    0.3832 C   0  0  1  0  0  0  0  0  0  0  0  0
    0.1346   -0.9625   -0.0894 H   0  0  0  0  0  0  0  0  0  0  0  0
   -0.7253    0.9751   -0.4365 C   0  0  0  0  0  0  0  0  0  0  0  0
   -0.4963    1.8218    0.2141 H   0  0  0  0  0  0  0  0  0  0  0  0
    0.0093    0.9562   -1.2428 H   0  0  0  0  0  0  0  0  0  0  0  0
   -2.1148    1.1970   -1.0449 C   0  0  0  0  0  0  0  0  0  0  0  0
   -2.0480    1.9601   -1.8197 H   0  0  0  0  0  0  0  0  0  0  0  0
   -2.4513    0.2644   -1.4993 H   0  0  0  0  0  0  0  0  0  0  0  0
   -3.3585    1.7271    0.1601 S   0  0  0  0  0  0  0  0  0  0  0  0
   -3.5171    0.2060    1.1311 C   0  0  0  0  0  0  0  0  0  0  0  0
   -2.5548   -0.0477    1.5768 H   0  0  0  0  0  0  0  0  0  0  0  0
   -4.2508    0.3576    1.9232 H   0  0  0  0  0  0  0  0  0  0  0  0
   -3.8482   -0.6089    0.4867 H   0  0  0  0  0  0  0  0  0  0  0  0
   -0.1711   -0.0594    1.8296 C   0  0  0  0  0  0  0  0  0  0  0  0
    0.9865   -0.2908    2.1726 O   0  0  0  0  0  0  0  0  0  0  0  0
   -1.0921    0.4156    2.6780 N   0  0  0  0  0  0  0  0  0  0  0  0
   -2.0168    0.5953    2.3206 H   0  0  0  0  0  0  0  0  0  0  0  0
   -0.8319    0.7034    4.0877 C   0  0  0  0  0  0  0  0  0  0  0  0
   -0.0192    1.4288    4.1710 H   0  0  0  0  0  0  0  0  0  0  0  0
   -1.7255    1.1088    4.5641 H   0  0  0  0  0  0  0  0  0  0  0  0
   -0.5319   -0.2118    4.6011 H   0  0  0  0  0  0  0  0  0  0  0  0
  5  6  2  0  0  0  0
  5  7  1  0  0  0  0
  2  3  1  0  0  0  0
  2  4  1  0  0  0  0
  2  5  1  0  0  0  0
  1  2  1  0  0  0  0
 22 23  2  0  0  0  0
 22 24  1  0  0  0  0
 18 19  1  0  0  0  0
 18 20  1  0  0  0  0
 18 21  1  0  0  0  0
 17 18  1  0  0  0  0
 14 15  1  0  0  0  0
 14 16  1  0  0  0  0
 14 17  1  0  0  0  0
 11 12  1  0  0  0  0
 11 13  1  0  0  0  0
 11 14  1  0  0  0  0
  9 10  1  0  0  0  0
  9 11  1  0  0  0  0
  9 22  1  0  0  0  0
  7  8  1  0  0  0  0
  7  9  1  0  0  0  0
 26 27  1  0  0  0  0
 26 28  1  0  0  0  0
 26 29  1  0  0  0  0
 24 25  1  0  0  0  0
 24 26  1  0  0  0  0
M  END
$$$$
default_name
  -OEChem-02102213163D

 29 28  0     1  0  0  0  0  0999 V2000
   -3.5781   -3.7296    1.2702 H   0  0  0  0  0  0  0  0  0  0  0  0
   -3.5311   -2.7616    0.7732 C   0  0  0  0  0  0  0  0  0  0  0  0
   -4.2371   -2.0766    1.2382 H   0  0  0  0  0  0  0  0  0  0  0  0
   -3.7681   -2.8816   -0.2818 H   0  0  0  0  0  0  0  0  0  0  0  0
   -2.1321   -2.2086    0.9112 C   0  0  0  0  0  0  0  0  0  0  0  0
   -1.2751   -2.8426    1.5112 O   0  0  0  0  0  0  0  0  0  0  0  0
   -1.9041   -1.0186    0.3602 N   0  0  0  0  0  0  0  0  0  0  0  0
   -2.6671   -0.5416   -0.0988 H   0  0  0  0  0  0  0  0  0  0  0  0
   -0.6131   -0.3236    0.3832 C   0  0  1  0  0  0  0  0  0  0  0  0
    0.1346   -0.9625   -0.0894 H   0  0  0  0  0  0  0  0  0  0  0  0
   -0.7253    0.9751   -0.4365 C   0  0  0  0  0  0  0  0  0  0  0  0
   -0.4963    1.8218    0.2141 H   0  0  0  0  0  0  0  0  0  0  0  0
    0.0093    0.9562   -1.2428 H   0  0  0  0  0  0  0  0  0  0  0  0
   -2.1148    1.1970   -1.0449 C   0  0  0  0  0  0  0  0  0  0  0  0
   -2.0120    1.7473   -1.9796 H   0  0  0  0  0  0  0  0  0  0  0  0
   -2.5635    0.2259   -1.2571 H   0  0  0  0  0  0  0  0  0  0  0  0
   -3.2390    2.1230    0.0315 S   0  0  0  0  0  0  0  0  0  0  0  0
   -3.4977    0.8955    1.3384 C   0  0  0  0  0  0  0  0  0  0  0  0
   -2.5440    0.6509    1.8071 H   0  0  0  0  0  0  0  0  0  0  0  0
   -4.1727    1.3051    2.0904 H   0  0  0  0  0  0  0  0  0  0  0  0
   -3.9389   -0.0066    0.9137 H   0  0  0  0  0  0  0  0  0  0  0  0
   -0.1711   -0.0594    1.8296 C   0  0  0  0  0  0  0  0  0  0  0  0
    0.9865   -0.2908    2.1726 O   0  0  0  0  0  0  0  0  0  0  0  0
   -1.0921    0.4156    2.6780 N   0  0  0  0  0  0  0  0  0  0  0  0
   -2.0168    0.5953    2.3206 H   0  0  0  0  0  0  0  0  0  0  0  0
   -0.8319    0.7034    4.0877 C   0  0  0  0  0  0  0  0  0  0  0  0
   -0.0192    1.4288    4.1710 H   0  0  0  0  0  0  0  0  0  0  0  0
   -1.7255    1.1088    4.5641 H   0  0  0  0  0  0  0  0  0  0  0  0
   -0.5319   -0.2118    4.6011 H   0  0  0  0  0  0  0  0  0  0  0  0
  5  6  2  0  0  0  0
  5  7  1  0  0  0  0
  2  3  1  0  0  0  0
  2  4  1  0  0  0  0
  2  5  1  0  0  0  0
  1  2  1  0  0  0  0
 22 23  2  0  0  0  0
 22 24  1  0  0  0  0
 18 19  1  0  0  0  0
 18 20  1  0  0  0  0
 18 21  1  0  0  0  0
 17 18  1  0  0  0  0
 14 15  1  0  0  0  0
 14 16  1  0  0  0  0
 14 17  1  0  0  0  0
 11 12  1  0  0  0  0
 11 13  1  0  0  0  0
 11 14  1  0  0  0  0
  9 10  1  0  0  0  0
  9 11  1  0  0  0  0
  9 22  1  0  0  0  0
  7  8  1  0  0  0  0
  7  9  1  0  0  0  0
 26 27  1  0  0  0  0
 26 28  1  0  0  0  0
 26 29  1  0  0  0  0
 24 25  1  0  0  0  0
 24 26  1  0  0  0  0
M  END
$$$$
default_name
  -OEChem-02102213163D

 29 28  0     1  0  0  0  0  0999 V2000
   -3.5781   -3.7296    1.2702 H   0  0  0  0  0  0  0  0  0  0  0  0
   -3.5311   -2.7616    0.7732 C   0  0  0  0  0  0  0  0  0  0  0  0
   -4.2371   -2.0766    1.2382 H   0  0  0  0  0  0  0  0  0  0  0  0
   -3.7681   -2.8816   -0.2818 H   0  0  0  0  0  0  0  0  0  0  0  0
   -2.1321   -2.2086    0.9112 C   0  0  0  0  0  0  0  0  0  0  0  0
   -1.2751   -2.8426    1.5112 O   0  0  0  0  0  0  0  0  0  0  0  0
   -1.9041   -1.0186    0.3602 N   0  0  0  0  0  0  0  0  0  0  0  0
   -2.6671   -0.5416   -0.0988 H   0  0  0  0  0  0  0  0  0  0  0  0
   -0.6131   -0.3236    0.3832 C   0  0  1  0  0  0  0  0  0  0  0  0
    0.1346   -0.9625   -0.0894 H   0  0  0  0  0  0  0  0  0  0  0  0
   -0.7253    0.9751   -0.4365 C   0  0  0  0  0  0  0  0  0  0  0  0
   -0.4963    1.8218    0.2141 H   0  0  0  0  0  0  0  0  0  0  0  0
    0.0093    0.9562   -1.2428 H   0  0  0  0  0  0  0  0  0  0  0  0
   -2.1148    1.1970   -1.0449 C   0  0  0  0  0  0  0  0  0  0  0  0
   -2.0050    1.5004   -2.0856 H   0  0  0  0  0  0  0  0  0  0  0  0
   -2.6667    0.2570   -1.0100 H   0  0  0  0  0  0  0  0  0  0  0  0
   -3.0876    2.4630   -0.1901 S   0  0  0  0  0  0  0  0  0  0  0  0
   -3.4004    1.6082    1.3762 C   0  0  0  0  0  0  0  0  0  0  0  0
   -2.4532    1.3786    1.8652 H   0  0  0  0  0  0  0  0  0  0  0  0
   -3.9936    2.2514    2.0268 H   0  0  0  0  0  0  0  0  0  0  0  0
   -3.9486    0.6847    1.1882 H   0  0  0  0  0  0  0  0  0  0  0  0
   -0.1711   -0.0594    1.8296 C   0  0  0  0  0  0  0  0  0  0  0  0
    0.9865   -0.2908    2.1726 O   0  0  0  0  0  0  0  0  0  0  0  0
   -1.0921    0.4156    2.6780 N   0  0  0  0  0  0  0  0  0  0  0  0
   -2.0168    0.5953    2.3206 H   0  0  0  0  0  0  0  0  0  0  0  0
   -0.8319    0.7034    4.0877 C   0  0  0  0  0  0  0  0  0  0  0  0
   -0.0192    1.4288    4.1710 H   0  0  0  0  0  0  0  0  0  0  0  0
   -1.7255    1.1088    4.5641 H   0  0  0  0  0  0  0  0  0  0  0  0
   -0.5319   -0.2118    4.6011 H   0  0  0  0  0  0  0  0  0  0  0  0
  5  6  2  0  0  0  0
  5  7  1  0  0  0  0
  2  3  1  0  0  0  0
  2  4  1  0  0  0  0
  2  5  1  0  0  0  0
  1  2  1  0  0  0  0
 22 23  2  0  0  0  0
 22 24  1  0  0  0  0
 18 19  1  0  0  0  0
 18 20  1  0  0  0  0
 18 21  1  0  0  0  0
 17 18  1  0  0  0  0
 14 15  1  0  0  0  0
 14 16  1  0  0  0  0
 14 17  1  0  0  0  0
 11 12  1  0  0  0  0
 11 13  1  0  0  0  0
 11 14  1  0  0  0  0
  9 10  1  0  0  0  0
  9 11  1  0  0  0  0
  9 22  1  0  0  0  0
  7  8  1  0  0  0  0
  7  9  1  0  0  0  0
 26 27  1  0  0  0  0
 26 28  1  0  0  0  0
 26 29  1  0  0  0  0
 24 25  1  0  0  0  0
 24 26  1  0  0  0  0
M  END
$$$$
default_name
  -OEChem-02102213163D

 29 28  0     1  0  0  0  0  0999 V2000
   -3.5781   -3.7296    1.2702 H   0  0  0  0  0  0  0  0  0  0  0  0
   -3.5311   -2.7616    0.7732 C   0  0  0  0  0  0  0  0  0  0  0  0
   -4.2371   -2.0766    1.2382 H   0  0  0  0  0  0  0  0  0  0  0  0
   -3.7681   -2.8816   -0.2818 H   0  0  0  0  0  0  0  0  0  0  0  0
   -2.1321   -2.2086    0.9112 C   0  0  0  0  0  0  0  0  0  0  0  0
   -1.2751   -2.8426    1.5112 O   0  0  0  0  0  0  0  0  0  0  0  0
   -1.9041   -1.0186    0.3602 N   0  0  0  0  0  0  0  0  0  0  0  0
   -2.6671   -0.5416   -0.0988 H   0  0  0  0  0  0  0  0  0  0  0  0
   -0.6131   -0.3236    0.3832 C   0  0  1  0  0  0  0  0  0  0  0  0
    0.1346   -0.9625   -0.0894 H   0  0  0  0  0  0  0  0  0  0  0  0
   -0.7253    0.9751   -0.4365 C   0  0  0  0  0  0  0  0  0  0  0  0
   -0.4963    1.8218    0.2141 H   0  0  0  0  0  0  0  0  0  0  0  0
    0.0093    0.9562   -1.2428 H   0  0  0  0  0  0  0  0  0  0  0  0
   -2.1148    1.1970   -1.0449 C   0  0  0  0  0  0  0  0  0  0  0  0
   -2.0277    1.2364   -2.1302 H   0  0  0  0  0  0  0  0  0  0  0  0
   -2.7540    0.3556   -0.7747 H   0  0  0  0  0  0  0  0  0  0  0  0
   -2.9149    2.7239   -0.4896 S   0  0  0  0  0  0  0  0  0  0  0  0
   -3.2318    2.2955    1.2418 C   0  0  0  0  0  0  0  0  0  0  0  0
   -2.2886    2.0858    1.7473 H   0  0  0  0  0  0  0  0  0  0  0  0
   -3.7259    3.1322    1.7366 H   0  0  0  0  0  0  0  0  0  0  0  0
   -3.8767    1.4178    1.2915 H   0  0  0  0  0  0  0  0  0  0  0  0
   -0.1711   -0.0594    1.8296 C   0  0  0  0  0  0  0  0  0  0  0  0
    0.9865   -0.2908    2.1726 O   0  0  0  0  0  0  0  0  0  0  0  0
   -1.0921    0.4156    2.6780 N   0  0  0  0  0  0  0  0  0  0  0  0
   -2.0168    0.5953    2.3206 H   0  0  0  0  0  0  0  0  0  0  0  0
   -0.8319    0.7034    4.0877 C   0  0  0  0  0  0  0  0  0  0  0  0
   -0.0192    1.4288    4.1710 H   0  0  0  0  0  0  0  0  0  0  0  0
   -1.7255    1.1088    4.5641 H   0  0  0  0  0  0  0  0  0  0  0  0
   -0.5319   -0.2118    4.6011 H   0  0  0  0  0  0  0  0  0  0  0  0
  5  6  2  0  0  0  0
  5  7  1  0  0  0  0
  2  3  1  0  0  0  0
  2  4  1  0  0  0  0
  2  5  1  0  0  0  0
  1  2  1  0  0  0  0
 22 23  2  0  0  0  0
 22 24  1  0  0  0  0
 18 19  1  0  0  0  0
 18 20  1  0  0  0  0
 18 21  1  0  0  0  0
 17 18  1  0  0  0  0
 14 15  1  0  0  0  0
 14 16  1  0  0  0  0
 14 17  1  0  0  0  0
 11 12  1  0  0  0  0
 11 13  1  0  0  0  0
 11 14  1  0  0  0  0
  9 10  1  0  0  0  0
  9 11  1  0  0  0  0
  9 22  1  0  0  0  0
  7  8  1  0  0  0  0
  7  9  1  0  0  0  0
 26 27  1  0  0  0  0
 26 28  1  0  0  0  0
 26 29  1  0  0  0  0
 24 25  1  0  0  0  0
 24 26  1  0  0  0  0
M  END
$$$$
default_name
  -OEChem-02102213163D

 29 28  0     1  0  0  0  0  0999 V2000
   -3.5781   -3.7296    1.2702 H   0  0  0  0  0  0  0  0  0  0  0  0
   -3.5311   -2.7616    0.7732 C   0  0  0  0  0  0  0  0  0  0  0  0
   -4.2371   -2.0766    1.2382 H   0  0  0  0  0  0  0  0  0  0  0  0
   -3.7681   -2.8816   -0.2818 H   0  0  0  0  0  0  0  0  0  0  0  0
   -2.1321   -2.2086    0.9112 C   0  0  0  0  0  0  0  0  0  0  0  0
   -1.2751   -2.8426    1.5112 O   0  0  0  0  0  0  0  0  0  0  0  0
   -1.9041   -1.0186    0.3602 N   0  0  0  0  0  0  0  0  0  0  0  0
   -2.6671   -0.5416   -0.0988 H   0  0  0  0  0  0  0  0  0  0  0  0
   -0.6131   -0.3236    0.3832 C   0  0  1  0  0  0  0  0  0  0  0  0
    0.1346   -0.9625   -0.0894 H   0  0  0  0  0  0  0  0  0  0  0  0
   -0.7253    0.9751   -0.4365 C   0  0  0  0  0  0  0  0  0  0  0  0
   -0.4963    1.8218    0.2141 H   0  0  0  0  0  0  0  0  0  0  0  0
    0.0093    0.9562   -1.2428 H   0  0  0  0  0  0  0  0  0  0  0  0
   -2.1148    1.1970   -1.0449 C   0  0  0  0  0  0  0  0  0  0  0  0
   -2.0783    0.9733   -2.1106 H   0  0  0  0  0  0  0  0  0  0  0  0
   -2.8193    0.5150   -0.5673 H   0  0  0  0  0  0  0  0  0  0  0  0
   -2.7324    2.8879   -0.8465 S   0  0  0  0  0  0  0  0  0  0  0  0
   -3.0033    2.9106    0.9445 C   0  0  0  0  0  0  0  0  0  0  0  0
   -2.0614    2.7243    1.4613 H   0  0  0  0  0  0  0  0  0  0  0  0
   -3.3876    3.8873    1.2396 H   0  0  0  0  0  0  0  0  0  0  0  0
   -3.7282    2.1428    1.2166 H   0  0  0  0  0  0  0  0  0  0  0  0
   -0.1711   -0.0594    1.8296 C   0  0  0  0  0  0  0  0  0  0  0  0
    0.9865   -0.2908    2.1726 O   0  0  0  0  0  0  0  0  0  0  0  0
   -1.0921    0.4156    2.6780 N   0  0  0  0  0  0  0  0  0  0  0  0
   -2.0168    0.5953    2.3206 H   0  0  0  0  0  0  0  0  0  0  0  0
   -0.8319    0.7034    4.0877 C   0  0  0  0  0  0  0  0  0  0  0  0
   -0.0192    1.4288    4.1710 H   0  0  0  0  0  0  0  0  0  0  0  0
   -1.7255    1.1088    4.5641 H   0  0  0  0  0  0  0  0  0  0  0  0
   -0.5319   -0.2118    4.6011 H   0  0  0  0  0  0  0  0  0  0  0  0
  5  6  2  0  0  0  0
  5  7  1  0  0  0  0
  2  3  1  0  0  0  0
  2  4  1  0  0  0  0
  2  5  1  0  0  0  0
  1  2  1  0  0  0  0
 22 23  2  0  0  0  0
 22 24  1  0  0  0  0
 18 19  1  0  0  0  0
 18 20  1  0  0  0  0
 18 21  1  0  0  0  0
 17 18  1  0  0  0  0
 14 15  1  0  0  0  0
 14 16  1  0  0  0  0
 14 17  1  0  0  0  0
 11 12  1  0  0  0  0
 11 13  1  0  0  0  0
 11 14  1  0  0  0  0
  9 10  1  0  0  0  0
  9 11  1  0  0  0  0
  9 22  1  0  0  0  0
  7  8  1  0  0  0  0
  7  9  1  0  0  0  0
 26 27  1  0  0  0  0
 26 28  1  0  0  0  0
 26 29  1  0  0  0  0
 24 25  1  0  0  0  0
 24 26  1  0  0  0  0
M  END
$$$$
default_name
  -OEChem-02102213163D

 29 28  0     1  0  0  0  0  0999 V2000
   -3.5781   -3.7296    1.2702 H   0  0  0  0  0  0  0  0  0  0  0  0
   -3.5311   -2.7616    0.7732 C   0  0  0  0  0  0  0  0  0  0  0  0
   -4.2371   -2.0766    1.2382 H   0  0  0  0  0  0  0  0  0  0  0  0
   -3.7681   -2.8816   -0.2818 H   0  0  0  0  0  0  0  0  0  0  0  0
   -2.1321   -2.2086    0.9112 C   0  0  0  0  0  0  0  0  0  0  0  0
   -1.2751   -2.8426    1.5112 O   0  0  0  0  0  0  0  0  0  0  0  0
   -1.9041   -1.0186    0.3602 N   0  0  0  0  0  0  0  0  0  0  0  0
   -2.6671   -0.5416   -0.0988 H   0  0  0  0  0  0  0  0  0  0  0  0
   -0.6131   -0.3236    0.3832 C   0  0  1  0  0  0  0  0  0  0  0  0
    0.1346   -0.9625   -0.0894 H   0  0  0  0  0  0  0  0  0  0  0  0
   -0.7253    0.9751   -0.4365 C   0  0  0  0  0  0  0  0  0  0  0  0
   -0.4963    1.8218    0.2141 H   0  0  0  0  0  0  0  0  0  0  0  0
    0.0093    0.9562   -1.2428 H   0  0  0  0  0  0  0  0  0  0  0  0
   -2.1148    1.1970   -1.0449 C   0  0  0  0  0  0  0  0  0  0  0  0
   -2.1535    0.7289   -2.0280 H   0  0  0  0  0  0  0  0  0  0  0  0
   -2.8583    0.7244   -0.4019 H   0  0  0  0  0  0  0  0  0  0  0  0
   -2.5527    2.9438   -1.2366 S   0  0  0  0  0  0  0  0  0  0  0  0
   -2.7307    3.4114    0.5045 C   0  0  0  0  0  0  0  0  0  0  0  0
   -1.7870    3.2506    1.0267 H   0  0  0  0  0  0  0  0  0  0  0  0
   -3.0020    4.4654    0.5697 H   0  0  0  0  0  0  0  0  0  0  0  0
   -3.5130    2.8103    0.9687 H   0  0  0  0  0  0  0  0  0  0  0  0
   -0.1711   -0.0594    1.8296 C   0  0  0  0  0  0  0  0  0  0  0  0
    0.9865   -0.2908    2.1726 O   0  0  0  0  0  0  0  0  0  0  0  0
   -1.0921    0.4156    2.6780 N   0  0  0  0  0  0  0  0  0  0  0  0
   -2.0168    0.5953    2.3206 H   0  0  0  0  0  0  0  0  0  0  0  0
   -0.8319    0.7034    4.0877 C   0  0  0  0  0  0  0  0  0  0  0  0
   -0.0192    1.4288    4.1710 H   0  0  0  0  0  0  0  0  0  0  0  0
   -1.7255    1.1088    4.5641 H   0  0  0  0  0  0  0  0  0  0  0  0
   -0.5319   -0.2118    4.6011 H   0  0  0  0  0  0  0  0  0  0  0  0
  5  6  2  0  0  0  0
  5  7  1  0  0  0  0
  2  3  1  0  0  0  0
  2  4  1  0  0  0  0
  2  5  1  0  0  0  0
  1  2  1  0  0  0  0
 22 23  2  0  0  0  0
 22 24  1  0  0  0  0
 18 19  1  0  0  0  0
 18 20  1  0  0  0  0
 18 21  1  0  0  0  0
 17 18  1  0  0  0  0
 14 15  1  0  0  0  0
 14 16  1  0  0  0  0
 14 17  1  0  0  0  0
 11 12  1  0  0  0  0
 11 13  1  0  0  0  0
 11 14  1  0  0  0  0
  9 10  1  0  0  0  0
  9 11  1  0  0  0  0
  9 22  1  0  0  0  0
  7  8  1  0  0  0  0
  7  9  1  0  0  0  0
 26 27  1  0  0  0  0
 26 28  1  0  0  0  0
 26 29  1  0  0  0  0
 24 25  1  0  0  0  0
 24 26  1  0  0  0  0
M  END
$$$$
default_name
  -OEChem-02102213163D

 29 28  0     1  0  0  0  0  0999 V2000
   -3.5781   -3.7296    1.2702 H   0  0  0  0  0  0  0  0  0  0  0  0
   -3.5311   -2.7616    0.7732 C   0  0  0  0  0  0  0  0  0  0  0  0
   -4.2371   -2.0766    1.2382 H   0  0  0  0  0  0  0  0  0  0  0  0
   -3.7681   -2.8816   -0.2818 H   0  0  0  0  0  0  0  0  0  0  0  0
   -2.1321   -2.2086    0.9112 C   0  0  0  0  0  0  0  0  0  0  0  0
   -1.2751   -2.8426    1.5112 O   0  0  0  0  0  0  0  0  0  0  0  0
   -1.9041   -1.0186    0.3602 N   0  0  0  0  0  0  0  0  0  0  0  0
   -2.6671   -0.5416   -0.0988 H   0  0  0  0  0  0  0  0  0  0  0  0
   -0.6131   -0.3236    0.3832 C   0  0  1  0  0  0  0  0  0  0  0  0
    0.1346   -0.9625   -0.0894 H   0  0  0  0  0  0  0  0  0  0  0  0
   -0.7253    0.9751   -0.4365 C   0  0  0  0  0  0  0  0  0  0  0  0
   -0.4963    1.8218    0.2141 H   0  0  0  0  0  0  0  0  0  0  0  0
    0.0093    0.9562   -1.2428 H   0  0  0  0  0  0  0  0  0  0  0  0
   -2.1148    1.1970   -1.0449 C   0  0  0  0  0  0  0  0  0  0  0  0
   -2.2481    0.5200   -1.8881 H   0  0  0  0  0  0  0  0  0  0  0  0
   -2.8682    0.9694   -0.2899 H   0  0  0  0  0  0  0  0  0  0  0  0
   -2.3879    2.8878   -1.6333 S   0  0  0  0  0  0  0  0  0  0  0  0
   -2.4323    3.7640   -0.0483 C   0  0  0  0  0  0  0  0  0  0  0  0
   -1.4843    3.6289    0.4732 H   0  0  0  0  0  0  0  0  0  0  0  0
   -2.5952    4.8271   -0.2274 H   0  0  0  0  0  0  0  0  0  0  0  0
   -3.2458    3.3747    0.5645 H   0  0  0  0  0  0  0  0  0  0  0  0
   -0.1711   -0.0594    1.8296 C   0  0  0  0  0  0  0  0  0  0  0  0
    0.9865   -0.2908    2.1726 O   0  0  0  0  0  0  0  0  0  0  0  0
   -1.0921    0.4156    2.6780 N   0  0  0  0  0  0  0  0  0  0  0  0
   -2.0168    0.5953    2.3206 H   0  0  0  0  0  0  0  0  0  0  0  0
   -0.8319    0.7034    4.0877 C   0  0  0  0  0  0  0  0  0  0  0  0
   -0.0192    1.4288    4.1710 H   0  0  0  0  0  0  0  0  0  0  0  0
   -1.7255    1.1088    4.5641 H   0  0  0  0  0  0  0  0  0  0  0  0
   -0.5319   -0.2118    4.6011 H   0  0  0  0  0  0  0  0  0  0  0  0
  5  6  2  0  0  0  0
  5  7  1  0  0  0  0
  2  3  1  0  0  0  0
  2  4  1  0  0  0  0
  2  5  1  0  0  0  0
  1  2  1  0  0  0  0
 22 23  2  0  0  0  0
 22 24  1  0  0  0  0
 18 19  1  0  0  0  0
 18 20  1  0  0  0  0
 18 21  1  0  0  0  0
 17 18  1  0  0  0  0
 14 15  1  0  0  0  0
 14 16  1  0  0  0  0
 14 17  1  0  0  0  0
 11 12  1  0  0  0  0
 11 13  1  0  0  0  0
 11 14  1  0  0  0  0
  9 10  1  0  0  0  0
  9 11  1  0  0  0  0
  9 22  1  0  0  0  0
  7  8  1  0  0  0  0
  7  9  1  0  0  0  0
 26 27  1  0  0  0  0
 26 28  1  0  0  0  0
 26 29  1  0  0  0  0
 24 25  1  0  0  0  0
 24 26  1  0  0  0  0
M  END
$$$$
default_name
  -OEChem-02102213163D

 29 28  0     1  0  0  0  0  0999 V2000
   -3.5781   -3.7296    1.2702 H   0  0  0  0  0  0  0  0  0  0  0  0
   -3.5311   -2.7616    0.7732 C   0  0  0  0  0  0  0  0  0  0  0  0
   -4.2371   -2.0766    1.2382 H   0  0  0  0  0  0  0  0  0  0  0  0
   -3.7681   -2.8816   -0.2818 H   0  0  0  0  0  0  0  0  0  0  0  0
   -2.1321   -2.2086    0.9112 C   0  0  0  0  0  0  0  0  0  0  0  0
   -1.2751   -2.8426    1.5112 O   0  0  0  0  0  0  0  0  0  0  0  0
   -1.9041   -1.0186    0.3602 N   0  0  0  0  0  0  0  0  0  0  0  0
   -2.6671   -0.5416   -0.0988 H   0  0  0  0  0  0  0  0  0  0  0  0
   -0.6131   -0.3236    0.3832 C   0  0  1  0  0  0  0  0  0  0  0  0
    0.1346   -0.9625   -0.0894 H   0  0  0  0  0  0  0  0  0  0  0  0
   -0.7253    0.9751   -0.4365 C   0  0  0  0  0  0  0  0  0  0  0  0
   -0.2463    1.7837    0.1196 H   0  0  0  0  0  0  0  0  0  0  0  0
   -0.1952    0.8508   -1.3819 H   0  0  0  0  0  0  0  0  0  0  0  0
   -2.1712    1.3870   -0.7361 C   0  0  0  0  0  0  0  0  0  0  0  0
   -2.6614    0.5903   -1.2947 H   0  0  0  0  0  0  0  0  0  0  0  0
   -2.6980    1.5285    0.2083 H   0  0  0  0  0  0  0  0  0  0  0  0
   -2.3059    2.9142   -1.7001 S   0  0  0  0  0  0  0  0  0  0  0  0
   -1.7308    4.1104   -0.4672 C   0  0  0  0  0  0  0  0  0  0  0  0
   -0.7103    3.8689   -0.1687 H   0  0  0  0  0  0  0  0  0  0  0  0
   -1.7514    5.1118   -0.8982 H   0  0  0  0  0  0  0  0  0  0  0  0
   -2.3840    4.0821    0.4054 H   0  0  0  0  0  0  0  0  0  0  0  0
   -0.1711   -0.0594    1.8296 C   0  0  0  0  0  0  0  0  0  0  0  0
    0.9865   -0.2908    2.1726 O   0  0  0  0  0  0  0  0  0  0  0  0
   -1.0921    0.4156    2.6780 N   0  0  0  0  0  0  0  0  0  0  0  0
   -2.0168    0.5953    2.3206 H   0  0  0  0  0  0  0  0  0  0  0  0
   -0.8319    0.7034    4.0877 C   0  0  0  0  0  0  0  0  0  0  0  0
   -0.0192    1.4288    4.1710 H   0  0  0  0  0  0  0  0  0  0  0  0
   -1.7255    1.1088    4.5641 H   0  0  0  0  0  0  0  0  0  0  0  0
   -0.5319   -0.2118    4.6011 H   0  0  0  0  0  0  0  0  0  0  0  0
  5  6  2  0  0  0  0
  5  7  1  0  0  0  0
  2  3  1  0  0  0  0
  2  4  1  0  0  0  0
  2  5  1  0  0  0  0
  1  2  1  0  0  0  0
 22 23  2  0  0  0  0
 22 24  1  0  0  0  0
 18 19  1  0  0  0  0
 18 20  1  0  0  0  0
 18 21  1  0  0  0  0
 17 18  1  0  0  0  0
 14 15  1  0  0  0  0
 14 16  1  0  0  0  0
 14 17  1  0  0  0  0
 11 12  1  0  0  0  0
 11 13  1  0  0  0  0
 11 14  1  0  0  0  0
  9 10  1  0  0  0  0
  9 11  1  0  0  0  0
  9 22  1  0  0  0  0
  7  8  1  0  0  0  0
  7  9  1  0  0  0  0
 26 27  1  0  0  0  0
 26 28  1  0  0  0  0
 26 29  1  0  0  0  0
 24 25  1  0  0  0  0
 24 26  1  0  0  0  0
M  END
$$$$
default_name
  -OEChem-02102213163D

 29 28  0     1  0  0  0  0  0999 V2000
   -3.5781   -3.7296    1.2702 H   0  0  0  0  0  0  0  0  0  0  0  0
   -3.5311   -2.7616    0.7732 C   0  0  0  0  0  0  0  0  0  0  0  0
   -4.2371   -2.0766    1.2382 H   0  0  0  0  0  0  0  0  0  0  0  0
   -3.7681   -2.8816   -0.2818 H   0  0  0  0  0  0  0  0  0  0  0  0
   -2.1321   -2.2086    0.9112 C   0  0  0  0  0  0  0  0  0  0  0  0
   -1.2751   -2.8426    1.5112 O   0  0  0  0  0  0  0  0  0  0  0  0
   -1.9041   -1.0186    0.3602 N   0  0  0  0  0  0  0  0  0  0  0  0
   -2.6671   -0.5416   -0.0988 H   0  0  0  0  0  0  0  0  0  0  0  0
   -0.6131   -0.3236    0.3832 C   0  0  1  0  0  0  0  0  0  0  0  0
    0.1346   -0.9625   -0.0894 H   0  0  0  0  0  0  0  0  0  0  0  0
   -0.7253    0.9751   -0.4365 C   0  0  0  0  0  0  0  0  0  0  0  0
   -0.2463    1.7837    0.1196 H   0  0  0  0  0  0  0  0  0  0  0  0
   -0.1952    0.8508   -1.3819 H   0  0  0  0  0  0  0  0  0  0  0  0
   -2.1712    1.3870   -0.7361 C   0  0  0  0  0  0  0  0  0  0  0  0
   -2.7354    0.5091   -1.0495 H   0  0  0  0  0  0  0  0  0  0  0  0
   -2.6184    1.7841    0.1759 H   0  0  0  0  0  0  0  0  0  0  0  0
   -2.3145    2.6403   -2.0355 S   0  0  0  0  0  0  0  0  0  0  0  0
   -1.5979    4.0634   -1.1736 C   0  0  0  0  0  0  0  0  0  0  0  0
   -0.5686    3.8415   -0.8900 H   0  0  0  0  0  0  0  0  0  0  0  0
   -1.6090    4.9299   -1.8353 H   0  0  0  0  0  0  0  0  0  0  0  0
   -2.1835    4.2861   -0.2812 H   0  0  0  0  0  0  0  0  0  0  0  0
   -0.1711   -0.0594    1.8296 C   0  0  0  0  0  0  0  0  0  0  0  0
    0.9865   -0.2908    2.1726 O   0  0  0  0  0  0  0  0  0  0  0  0
   -1.0921    0.4156    2.6780 N   0  0  0  0  0  0  0  0  0  0  0  0
   -2.0168    0.5953    2.3206 H   0  0  0  0  0  0  0  0  0  0  0  0
   -0.8319    0.7034    4.0877 C   0  0  0  0  0  0  0  0  0  0  0  0
   -0.0192    1.4288    4.1710 H   0  0  0  0  0  0  0  0  0  0  0  0
   -1.7255    1.1088    4.5641 H   0  0  0  0  0  0  0  0  0  0  0  0
   -0.5319   -0.2118    4.6011 H   0  0  0  0  0  0  0  0  0  0  0  0
  5  6  2  0  0  0  0
  5  7  1  0  0  0  0
  2  3  1  0  0  0  0
  2  4  1  0  0  0  0
  2  5  1  0  0  0  0
  1  2  1  0  0  0  0
 22 23  2  0  0  0  0
 22 24  1  0  0  0  0
 18 19  1  0  0  0  0
 18 20  1  0  0  0  0
 18 21  1  0  0  0  0
 17 18  1  0  0  0  0
 14 15  1  0  0  0  0
 14 16  1  0  0  0  0
 14 17  1  0  0  0  0
 11 12  1  0  0  0  0
 11 13  1  0  0  0  0
 11 14  1  0  0  0  0
  9 10  1  0  0  0  0
  9 11  1  0  0  0  0
  9 22  1  0  0  0  0
  7  8  1  0  0  0  0
  7  9  1  0  0  0  0
 26 27  1  0  0  0  0
 26 28  1  0  0  0  0
 26 29  1  0  0  0  0
 24 25  1  0  0  0  0
 24 26  1  0  0  0  0
M  END
$$$$
default_name
  -OEChem-02102213163D

 29 28  0     1  0  0  0  0  0999 V2000
   -3.5781   -3.7296    1.2702 H   0  0  0  0  0  0  0  0  0  0  0  0
   -3.5311   -2.7616    0.7732 C   0  0  0  0  0  0  0  0  0  0  0  0
   -4.2371   -2.0766    1.2382 H   0  0  0  0  0  0  0  0  0  0  0  0
   -3.7681   -2.8816   -0.2818 H   0  0  0  0  0  0  0  0  0  0  0  0
   -2.1321   -2.2086    0.9112 C   0  0  0  0  0  0  0  0  0  0  0  0
   -1.2751   -2.8426    1.5112 O   0  0  0  0  0  0  0  0  0  0  0  0
   -1.9041   -1.0186    0.3602 N   0  0  0  0  0  0  0  0  0  0  0  0
   -2.6671   -0.5416   -0.0988 H   0  0  0  0  0  0  0  0  0  0  0  0
   -0.6131   -0.3236    0.3832 C   0  0  1  0  0  0  0  0  0  0  0  0
    0.1346   -0.9625   -0.0894 H   0  0  0  0  0  0  0  0  0  0  0  0
   -0.7253    0.9751   -0.4365 C   0  0  0  0  0  0  0  0  0  0  0  0
   -0.2463    1.7837    0.1196 H   0  0  0  0  0  0  0  0  0  0  0  0
   -0.1952    0.8508   -1.3819 H   0  0  0  0  0  0  0  0  0  0  0  0
   -2.1712    1.3870   -0.7361 C   0  0  0  0  0  0  0  0  0  0  0  0
   -2.7938    0.4944   -0.7876 H   0  0  0  0  0  0  0  0  0  0  0  0
   -2.5309    2.0190    0.0767 H   0  0  0  0  0  0  0  0  0  0  0  0
   -2.3599    2.2943   -2.2921 S   0  0  0  0  0  0  0  0  0  0  0  0
   -1.5209    3.8389   -1.8536 C   0  0  0  0  0  0  0  0  0  0  0  0
   -0.4834    3.6317   -1.5899 H   0  0  0  0  0  0  0  0  0  0  0  0
   -1.5458    4.5182   -2.7061 H   0  0  0  0  0  0  0  0  0  0  0  0
   -2.0274    4.3054   -1.0082 H   0  0  0  0  0  0  0  0  0  0  0  0
   -0.1711   -0.0594    1.8296 C   0  0  0  0  0  0  0  0  0  0  0  0
    0.9865   -0.2908    2.1726 O   0  0  0  0  0  0  0  0  0  0  0  0
   -1.0921    0.4156    2.6780 N   0  0  0  0  0  0  0  0  0  0  0  0
   -2.0168    0.5953    2.3206 H   0  0  0  0  0  0  0  0  0  0  0  0
   -0.8319    0.7034    4.0877 C   0  0  0  0  0  0  0  0  0  0  0  0
   -0.0192    1.4288    4.1710 H   0  0  0  0  0  0  0  0  0  0  0  0
   -1.7255    1.1088    4.5641 H   0  0  0  0  0  0  0  0  0  0  0  0
   -0.5319   -0.2118    4.6011 H   0  0  0  0  0  0  0  0  0  0  0  0
  5  6  2  0  0  0  0
  5  7  1  0  0  0  0
  2  3  1  0  0  0  0
  2  4  1  0  0  0  0
  2  5  1  0  0  0  0
  1  2  1  0  0  0  0
 22 23  2  0  0  0  0
 22 24  1  0  0  0  0
 18 19  1  0  0  0  0
 18 20  1  0  0  0  0
 18 21  1  0  0  0  0
 17 18  1  0  0  0  0
 14 15  1  0  0  0  0
 14 16  1  0  0  0  0
 14 17  1  0  0  0  0
 11 12  1  0  0  0  0
 11 13  1  0  0  0  0
 11 14  1  0  0  0  0
  9 10  1  0  0  0  0
  9 11  1  0  0  0  0
  9 22  1  0  0  0  0
  7  8  1  0  0  0  0
  7  9  1  0  0  0  0
 26 27  1  0  0  0  0
 26 28  1  0  0  0  0
 26 29  1  0  0  0  0
 24 25  1  0  0  0  0
 24 26  1  0  0  0  0
M  END
$$$$
default_name
  -OEChem-02102213163D

 29 28  0     1  0  0  0  0  0999 V2000
   -3.5781   -3.7296    1.2702 H   0  0  0  0  0  0  0  0  0  0  0  0
   -3.5311   -2.7616    0.7732 C   0  0  0  0  0  0  0  0  0  0  0  0
   -4.2371   -2.0766    1.2382 H   0  0  0  0  0  0  0  0  0  0  0  0
   -3.7681   -2.8816   -0.2818 H   0  0  0  0  0  0  0  0  0  0  0  0
   -2.1321   -2.2086    0.9112 C   0  0  0  0  0  0  0  0  0  0  0  0
   -1.2751   -2.8426    1.5112 O   0  0  0  0  0  0  0  0  0  0  0  0
   -1.9041   -1.0186    0.3602 N   0  0  0  0  0  0  0  0  0  0  0  0
   -2.6671   -0.5416   -0.0988 H   0  0  0  0  0  0  0  0  0  0  0  0
   -0.6131   -0.3236    0.3832 C   0  0  1  0  0  0  0  0  0  0  0  0
    0.1346   -0.9625   -0.0894 H   0  0  0  0  0  0  0  0  0  0  0  0
   -0.7253    0.9751   -0.4365 C   0  0  0  0  0  0  0  0  0  0  0  0
   -0.2463    1.7837    0.1196 H   0  0  0  0  0  0  0  0  0  0  0  0
   -0.1952    0.8508   -1.3819 H   0  0  0  0  0  0  0  0  0  0  0  0
   -2.1712    1.3870   -0.7361 C   0  0  0  0  0  0  0  0  0  0  0  0
   -2.8328    0.5470   -0.5270 H   0  0  0  0  0  0  0  0  0  0  0  0
   -2.4414    2.2173   -0.0826 H   0  0  0  0  0  0  0  0  0  0  0  0
   -2.4391    1.8997   -2.4522 S   0  0  0  0  0  0  0  0  0  0  0  0
   -1.5053    3.4520   -2.4611 C   0  0  0  0  0  0  0  0  0  0  0  0
   -0.4603    3.2539   -2.2207 H   0  0  0  0  0  0  0  0  0  0  0  0
   -1.5662    3.9049   -3.4511 H   0  0  0  0  0  0  0  0  0  0  0  0
   -1.9261    4.1387   -1.7261 H   0  0  0  0  0  0  0  0  0  0  0  0
   -0.1711   -0.0594    1.8296 C   0  0  0  0  0  0  0  0  0  0  0  0
    0.9865   -0.2908    2.1726 O   0  0  0  0  0  0  0  0  0  0  0  0
   -1.0921    0.4156    2.6780 N   0  0  0  0  0  0  0  0  0  0  0  0
   -2.0168    0.5953    2.3206 H   0  0  0  0  0  0  0  0  0  0  0  0
   -0.8319    0.7034    4.0877 C   0  0  0  0  0  0  0  0  0  0  0  0
   -0.0192    1.4288    4.1710 H   0  0  0  0  0  0  0  0  0  0  0  0
   -1.7255    1.1088    4.5641 H   0  0  0  0  0  0  0  0  0  0  0  0
   -0.5319   -0.2118    4.6011 H   0  0  0  0  0  0  0  0  0  0  0  0
  5  6  2  0  0  0  0
  5  7  1  0  0  0  0
  2  3  1  0  0  0  0
  2  4  1  0  0  0  0
  2  5  1  0  0  0  0
  1  2  1  0  0  0  0
 22 23  2  0  0  0  0
 22 24  1  0  0  0  0
 18 19  1  0  0  0  0
 18 20  1  0  0  0  0
 18 21  1  0  0  0  0
 17 18  1  0  0  0  0
 14 15  1  0  0  0  0
 14 16  1  0  0  0  0
 14 17  1  0  0  0  0
 11 12  1  0  0  0  0
 11 13  1  0  0  0  0
 11 14  1  0  0  0  0
  9 10  1  0  0  0  0
  9 11  1  0  0  0  0
  9 22  1  0  0  0  0
  7  8  1  0  0  0  0
  7  9  1  0  0  0  0
 26 27  1  0  0  0  0
 26 28  1  0  0  0  0
 26 29  1  0  0  0  0
 24 25  1  0  0  0  0
 24 26  1  0  0  0  0
M  END
$$$$
default_name
  -OEChem-02102213163D

 29 28  0     1  0  0  0  0  0999 V2000
   -3.5781   -3.7296    1.2702 H   0  0  0  0  0  0  0  0  0  0  0  0
   -3.5311   -2.7616    0.7732 C   0  0  0  0  0  0  0  0  0  0  0  0
   -4.2371   -2.0766    1.2382 H   0  0  0  0  0  0  0  0  0  0  0  0
   -3.7681   -2.8816   -0.2818 H   0  0  0  0  0  0  0  0  0  0  0  0
   -2.1321   -2.2086    0.9112 C   0  0  0  0  0  0  0  0  0  0  0  0
   -1.2751   -2.8426    1.5112 O   0  0  0  0  0  0  0  0  0  0  0  0
   -1.9041   -1.0186    0.3602 N   0  0  0  0  0  0  0  0  0  0  0  0
   -2.6671   -0.5416   -0.0988 H   0  0  0  0  0  0  0  0  0  0  0  0
   -0.6131   -0.3236    0.3832 C   0  0  1  0  0  0  0  0  0  0  0  0
    0.1346   -0.9625   -0.0894 H   0  0  0  0  0  0  0  0  0  0  0  0
   -0.7253    0.9751   -0.4365 C   0  0  0  0  0  0  0  0  0  0  0  0
   -0.2463    1.7837    0.1196 H   0  0  0  0  0  0  0  0  0  0  0  0
   -0.1952    0.8508   -1.3819 H   0  0  0  0  0  0  0  0  0  0  0  0
   -2.1712    1.3870   -0.7361 C   0  0  0  0  0  0  0  0  0  0  0  0
   -2.8497    0.6634   -0.2855 H   0  0  0  0  0  0  0  0  0  0  0  0
   -2.3560    2.3654   -0.2911 H   0  0  0  0  0  0  0  0  0  0  0  0
   -2.5467    1.4835   -2.5051 S   0  0  0  0  0  0  0  0  0  0  0  0
   -1.5520    2.9293   -2.9545 C   0  0  0  0  0  0  0  0  0  0  0  0
   -0.5010    2.7338   -2.7393 H   0  0  0  0  0  0  0  0  0  0  0  0
   -1.6688    3.1315   -4.0195 H   0  0  0  0  0  0  0  0  0  0  0  0
   -1.8867    3.7973   -2.3858 H   0  0  0  0  0  0  0  0  0  0  0  0
   -0.1711   -0.0594    1.8296 C   0  0  0  0  0  0  0  0  0  0  0  0
    0.9865   -0.2908    2.1726 O   0  0  0  0  0  0  0  0  0  0  0  0
   -1.0921    0.4156    2.6780 N   0  0  0  0  0  0  0  0  0  0  0  0
   -2.0168    0.5953    2.3206 H   0  0  0  0  0  0  0  0  0  0  0  0
   -0.8319    0.7034    4.0877 C   0  0  0  0  0  0  0  0  0  0  0  0
   -0.0192    1.4288    4.1710 H   0  0  0  0  0  0  0  0  0  0  0  0
   -1.7255    1.1088    4.5641 H   0  0  0  0  0  0  0  0  0  0  0  0
   -0.5319   -0.2118    4.6011 H   0  0  0  0  0  0  0  0  0  0  0  0
  5  6  2  0  0  0  0
  5  7  1  0  0  0  0
  2  3  1  0  0  0  0
  2  4  1  0  0  0  0
  2  5  1  0  0  0  0
  1  2  1  0  0  0  0
 22 23  2  0  0  0  0
 22 24  1  0  0  0  0
 18 19  1  0  0  0  0
 18 20  1  0  0  0  0
 18 21  1  0  0  0  0
 17 18  1  0  0  0  0
 14 15  1  0  0  0  0
 14 16  1  0  0  0  0
 14 17  1  0  0  0  0
 11 12  1  0  0  0  0
 11 13  1  0  0  0  0
 11 14  1  0  0  0  0
  9 10  1  0  0  0  0
  9 11  1  0  0  0  0
  9 22  1  0  0  0  0
  7  8  1  0  0  0  0
  7  9  1  0  0  0  0
 26 27  1  0  0  0  0
 26 28  1  0  0  0  0
 26 29  1  0  0  0  0
 24 25  1  0  0  0  0
 24 26  1  0  0  0  0
M  END
$$$$
default_name
  -OEChem-02102213163D

 29 28  0     1  0  0  0  0  0999 V2000
   -3.5781   -3.7296    1.2702 H   0  0  0  0  0  0  0  0  0  0  0  0
   -3.5311   -2.7616    0.7732 C   0  0  0  0  0  0  0  0  0  0  0  0
   -4.2371   -2.0766    1.2382 H   0  0  0  0  0  0  0  0  0  0  0  0
   -3.7681   -2.8816   -0.2818 H   0  0  0  0  0  0  0  0  0  0  0  0
   -2.1321   -2.2086    0.9112 C   0  0  0  0  0  0  0  0  0  0  0  0
   -1.2751   -2.8426    1.5112 O   0  0  0  0  0  0  0  0  0  0  0  0
   -1.9041   -1.0186    0.3602 N   0  0  0  0  0  0  0  0  0  0  0  0
   -2.6671   -0.5416   -0.0988 H   0  0  0  0  0  0  0  0  0  0  0  0
   -0.6131   -0.3236    0.3832 C   0  0  1  0  0  0  0  0  0  0  0  0
    0.1346   -0.9625   -0.0894 H   0  0  0  0  0  0  0  0  0  0  0  0
   -0.7253    0.9751   -0.4365 C   0  0  0  0  0  0  0  0  0  0  0  0
   -0.2463    1.7837    0.1196 H   0  0  0  0  0  0  0  0  0  0  0  0
   -0.1952    0.8508   -1.3819 H   0  0  0  0  0  0  0  0  0  0  0  0
   -2.1712    1.3870   -0.7361 C   0  0  0  0  0  0  0  0  0  0  0  0
   -2.8434    0.8356   -0.0794 H   0  0  0  0  0  0  0  0  0  0  0  0
   -2.2806    2.4533   -0.5346 H   0  0  0  0  0  0  0  0  0  0  0  0
   -2.6754    1.0741   -2.4471 S   0  0  0  0  0  0  0  0  0  0  0  0
   -1.6578    2.3063   -3.3002 C   0  0  0  0  0  0  0  0  0  0  0  0
   -0.6027    2.1069   -3.1105 H   0  0  0  0  0  0  0  0  0  0  0  0
   -1.8465    2.2510   -4.3727 H   0  0  0  0  0  0  0  0  0  0  0  0
   -1.9118    3.3045   -2.9424 H   0  0  0  0  0  0  0  0  0  0  0  0
   -0.1711   -0.0594    1.8296 C   0  0  0  0  0  0  0  0  0  0  0  0
    0.9865   -0.2908    2.1726 O   0  0  0  0  0  0  0  0  0  0  0  0
   -1.0921    0.4156    2.6780 N   0  0  0  0  0  0  0  0  0  0  0  0
   -2.0168    0.5953    2.3206 H   0  0  0  0  0  0  0  0  0  0  0  0
   -0.8319    0.7034    4.0877 C   0  0  0  0  0  0  0  0  0  0  0  0
   -0.0192    1.4288    4.1710 H   0  0  0  0  0  0  0  0  0  0  0  0
   -1.7255    1.1088    4.5641 H   0  0  0  0  0  0  0  0  0  0  0  0
   -0.5319   -0.2118    4.6011 H   0  0  0  0  0  0  0  0  0  0  0  0
  5  6  2  0  0  0  0
  5  7  1  0  0  0  0
  2  3  1  0  0  0  0
  2  4  1  0  0  0  0
  2  5  1  0  0  0  0
  1  2  1  0  0  0  0
 22 23  2  0  0  0  0
 22 24  1  0  0  0  0
 18 19  1  0  0  0  0
 18 20  1  0  0  0  0
 18 21  1  0  0  0  0
 17 18  1  0  0  0  0
 14 15  1  0  0  0  0
 14 16  1  0  0  0  0
 14 17  1  0  0  0  0
 11 12  1  0  0  0  0
 11 13  1  0  0  0  0
 11 14  1  0  0  0  0
  9 10  1  0  0  0  0
  9 11  1  0  0  0  0
  9 22  1  0  0  0  0
  7  8  1  0  0  0  0
  7  9  1  0  0  0  0
 26 27  1  0  0  0  0
 26 28  1  0  0  0  0
 26 29  1  0  0  0  0
 24 25  1  0  0  0  0
 24 26  1  0  0  0  0
M  END
$$$$
default_name
  -OEChem-02102213163D

 29 28  0     1  0  0  0  0  0999 V2000
   -3.5781   -3.7296    1.2702 H   0  0  0  0  0  0  0  0  0  0  0  0
   -3.5311   -2.7616    0.7732 C   0  0  0  0  0  0  0  0  0  0  0  0
   -4.2371   -2.0766    1.2382 H   0  0  0  0  0  0  0  0  0  0  0  0
   -3.7681   -2.8816   -0.2818 H   0  0  0  0  0  0  0  0  0  0  0  0
   -2.1321   -2.2086    0.9112 C   0  0  0  0  0  0  0  0  0  0  0  0
   -1.2751   -2.8426    1.5112 O   0  0  0  0  0  0  0  0  0  0  0  0
   -1.9041   -1.0186    0.3602 N   0  0  0  0  0  0  0  0  0  0  0  0
   -2.6671   -0.5416   -0.0988 H   0  0  0  0  0  0  0  0  0  0  0  0
   -0.6131   -0.3236    0.3832 C   0  0  1  0  0  0  0  0  0  0  0  0
    0.1346   -0.9625   -0.0894 H   0  0  0  0  0  0  0  0  0  0  0  0
   -0.7253    0.9751   -0.4365 C   0  0  0  0  0  0  0  0  0  0  0  0
   -0.2463    1.7837    0.1196 H   0  0  0  0  0  0  0  0  0  0  0  0
   -0.1952    0.8508   -1.3819 H   0  0  0  0  0  0  0  0  0  0  0  0
   -2.1712    1.3870   -0.7361 C   0  0  0  0  0  0  0  0  0  0  0  0
   -2.8142    1.0520    0.0772 H   0  0  0  0  0  0  0  0  0  0  0  0
   -2.2201    2.4749   -0.7964 H   0  0  0  0  0  0  0  0  0  0  0  0
   -2.8164    0.6992   -2.2822 S   0  0  0  0  0  0  0  0  0  0  0  0
   -1.8156    1.6255   -3.4747 C   0  0  0  0  0  0  0  0  0  0  0  0
   -0.7585    1.4159   -3.3089 H   0  0  0  0  0  0  0  0  0  0  0  0
   -2.0872    1.3232   -4.4865 H   0  0  0  0  0  0  0  0  0  0  0  0
   -1.9996    2.6939   -3.3580 H   0  0  0  0  0  0  0  0  0  0  0  0
   -0.1711   -0.0594    1.8296 C   0  0  0  0  0  0  0  0  0  0  0  0
    0.9865   -0.2908    2.1726 O   0  0  0  0  0  0  0  0  0  0  0  0
   -1.0921    0.4156    2.6780 N   0  0  0  0  0  0  0  0  0  0  0  0
   -2.0168    0.5953    2.3206 H   0  0  0  0  0  0  0  0  0  0  0  0
   -0.8319    0.7034    4.0877 C   0  0  0  0  0  0  0  0  0  0  0  0
   -0.0192    1.4288    4.1710 H   0  0  0  0  0  0  0  0  0  0  0  0
   -1.7255    1.1088    4.5641 H   0  0  0  0  0  0  0  0  0  0  0  0
   -0.5319   -0.2118    4.6011 H   0  0  0  0  0  0  0  0  0  0  0  0
  5  6  2  0  0  0  0
  5  7  1  0  0  0  0
  2  3  1  0  0  0  0
  2  4  1  0  0  0  0
  2  5  1  0  0  0  0
  1  2  1  0  0  0  0
 22 23  2  0  0  0  0
 22 24  1  0  0  0  0
 18 19  1  0  0  0  0
 18 20  1  0  0  0  0
 18 21  1  0  0  0  0
 17 18  1  0  0  0  0
 14 15  1  0  0  0  0
 14 16  1  0  0  0  0
 14 17  1  0  0  0  0
 11 12  1  0  0  0  0
 11 13  1  0  0  0  0
 11 14  1  0  0  0  0
  9 10  1  0  0  0  0
  9 11  1  0  0  0  0
  9 22  1  0  0  0  0
  7  8  1  0  0  0  0
  7  9  1  0  0  0  0
 26 27  1  0  0  0  0
 26 28  1  0  0  0  0
 26 29  1  0  0  0  0
 24 25  1  0  0  0  0
 24 26  1  0  0  0  0
M  END
$$$$
default_name
  -OEChem-02102213163D

 29 28  0     1  0  0  0  0  0999 V2000
   -3.5781   -3.7296    1.2702 H   0  0  0  0  0  0  0  0  0  0  0  0
   -3.5311   -2.7616    0.7732 C   0  0  0  0  0  0  0  0  0  0  0  0
   -4.2371   -2.0766    1.2382 H   0  0  0  0  0  0  0  0  0  0  0  0
   -3.7681   -2.8816   -0.2818 H   0  0  0  0  0  0  0  0  0  0  0  0
   -2.1321   -2.2086    0.9112 C   0  0  0  0  0  0  0  0  0  0  0  0
   -1.2751   -2.8426    1.5112 O   0  0  0  0  0  0  0  0  0  0  0  0
   -1.9041   -1.0186    0.3602 N   0  0  0  0  0  0  0  0  0  0  0  0
   -2.6671   -0.5416   -0.0988 H   0  0  0  0  0  0  0  0  0  0  0  0
   -0.6131   -0.3236    0.3832 C   0  0  1  0  0  0  0  0  0  0  0  0
    0.1346   -0.9625   -0.0894 H   0  0  0  0  0  0  0  0  0  0  0  0
   -0.7253    0.9751   -0.4365 C   0  0  0  0  0  0  0  0  0  0  0  0
   -0.2463    1.7837    0.1196 H   0  0  0  0  0  0  0  0  0  0  0  0
   -0.1952    0.8508   -1.3819 H   0  0  0  0  0  0  0  0  0  0  0  0
   -2.1712    1.3870   -0.7361 C   0  0  0  0  0  0  0  0  0  0  0  0
   -2.7641    1.2978    0.1736 H   0  0  0  0  0  0  0  0  0  0  0  0
   -2.1789    2.4288   -1.0589 H   0  0  0  0  0  0  0  0  0  0  0  0
   -2.9601    0.3845   -2.0215 S   0  0  0  0  0  0  0  0  0  0  0  0
   -2.0147    0.9333   -3.4661 C   0  0  0  0  0  0  0  0  0  0  0  0
   -0.9577    0.7078   -3.3211 H   0  0  0  0  0  0  0  0  0  0  0  0
   -2.3746    0.4115   -4.3532 H   0  0  0  0  0  0  0  0  0  0  0  0
   -2.1443    2.0071   -3.6043 H   0  0  0  0  0  0  0  0  0  0  0  0
   -0.1711   -0.0594    1.8296 C   0  0  0  0  0  0  0  0  0  0  0  0
    0.9865   -0.2908    2.1726 O   0  0  0  0  0  0  0  0  0  0  0  0
   -1.0921    0.4156    2.6780 N   0  0  0  0  0  0  0  0  0  0  0  0
   -2.0168    0.5953    2.3206 H   0  0  0  0  0  0  0  0  0  0  0  0
   -0.8319    0.7034    4.0877 C   0  0  0  0  0  0  0  0  0  0  0  0
   -0.0192    1.4288    4.1710 H   0  0  0  0  0  0  0  0  0  0  0  0
   -1.7255    1.1088    4.5641 H   0  0  0  0  0  0  0  0  0  0  0  0
   -0.5319   -0.2118    4.6011 H   0  0  0  0  0  0  0  0  0  0  0  0
  5  6  2  0  0  0  0
  5  7  1  0  0  0  0
  2  3  1  0  0  0  0
  2  4  1  0  0  0  0
  2  5  1  0  0  0  0
  1  2  1  0  0  0  0
 22 23  2  0  0  0  0
 22 24  1  0  0  0  0
 18 19  1  0  0  0  0
 18 20  1  0  0  0  0
 18 21  1  0  0  0  0
 17 18  1  0  0  0  0
 14 15  1  0  0  0  0
 14 16  1  0  0  0  0
 14 17  1  0  0  0  0
 11 12  1  0  0  0  0
 11 13  1  0  0  0  0
 11 14  1  0  0  0  0
  9 10  1  0  0  0  0
  9 11  1  0  0  0  0
  9 22  1  0  0  0  0
  7  8  1  0  0  0  0
  7  9  1  0  0  0  0
 26 27  1  0  0  0  0
 26 28  1  0  0  0  0
 26 29  1  0  0  0  0
 24 25  1  0  0  0  0
 24 26  1  0  0  0  0
M  END
$$$$
default_name
  -OEChem-02102213163D

 29 28  0     1  0  0  0  0  0999 V2000
   -3.5781   -3.7296    1.2702 H   0  0  0  0  0  0  0  0  0  0  0  0
   -3.5311   -2.7616    0.7732 C   0  0  0  0  0  0  0  0  0  0  0  0
   -4.2371   -2.0766    1.2382 H   0  0  0  0  0  0  0  0  0  0  0  0
   -3.7681   -2.8816   -0.2818 H   0  0  0  0  0  0  0  0  0  0  0  0
   -2.1321   -2.2086    0.9112 C   0  0  0  0  0  0  0  0  0  0  0  0
   -1.2751   -2.8426    1.5112 O   0  0  0  0  0  0  0  0  0  0  0  0
   -1.9041   -1.0186    0.3602 N   0  0  0  0  0  0  0  0  0  0  0  0
   -2.6671   -0.5416   -0.0988 H   0  0  0  0  0  0  0  0  0  0  0  0
   -0.6131   -0.3236    0.3832 C   0  0  1  0  0  0  0  0  0  0  0  0
    0.1346   -0.9625   -0.0894 H   0  0  0  0  0  0  0  0  0  0  0  0
   -0.7253    0.9751   -0.4365 C   0  0  0  0  0  0  0  0  0  0  0  0
   -0.2463    1.7837    0.1196 H   0  0  0  0  0  0  0  0  0  0  0  0
   -0.1952    0.8508   -1.3819 H   0  0  0  0  0  0  0  0  0  0  0  0
   -2.1712    1.3870   -0.7361 C   0  0  0  0  0  0  0  0  0  0  0  0
   -2.6966    1.5562    0.2033 H   0  0  0  0  0  0  0  0  0  0  0  0
   -2.1596    2.3181   -1.3040 H   0  0  0  0  0  0  0  0  0  0  0  0
   -3.0967    0.1514   -1.6830 S   0  0  0  0  0  0  0  0  0  0  0  0
   -2.2413    0.2768   -3.2750 C   0  0  0  0  0  0  0  0  0  0  0  0
   -1.1868    0.0310   -3.1461 H   0  0  0  0  0  0  0  0  0  0  0  0
   -2.6891   -0.4221   -3.9819 H   0  0  0  0  0  0  0  0  0  0  0  0
   -2.3359    1.2909   -3.6645 H   0  0  0  0  0  0  0  0  0  0  0  0
   -0.1711   -0.0594    1.8296 C   0  0  0  0  0  0  0  0  0  0  0  0
    0.9865   -0.2908    2.1726 O   0  0  0  0  0  0  0  0  0  0  0  0
   -1.0921    0.4156    2.6780 N   0  0  0  0  0  0  0  0  0  0  0  0
   -2.0168    0.5953    2.3206 H   0  0  0  0  0  0  0  0  0  0  0  0
   -0.8319    0.7034    4.0877 C   0  0  0  0  0  0  0  0  0  0  0  0
   -0.0192    1.4288    4.1710 H   0  0  0  0  0  0  0  0  0  0  0  0
   -1.7255    1.1088    4.5641 H   0  0  0  0  0  0  0  0  0  0  0  0
   -0.5319   -0.2118    4.6011 H   0  0  0  0  0  0  0  0  0  0  0  0
  5  6  2  0  0  0  0
  5  7  1  0  0  0  0
  2  3  1  0  0  0  0
  2  4  1  0  0  0  0
  2  5  1  0  0  0  0
  1  2  1  0  0  0  0
 22 23  2  0  0  0  0
 22 24  1  0  0  0  0
 18 19  1  0  0  0  0
 18 20  1  0  0  0  0
 18 21  1  0  0  0  0
 17 18  1  0  0  0  0
 14 15  1  0  0  0  0
 14 16  1  0  0  0  0
 14 17  1  0  0  0  0
 11 12  1  0  0  0  0
 11 13  1  0  0  0  0
 11 14  1  0  0  0  0
  9 10  1  0  0  0  0
  9 11  1  0  0  0  0
  9 22  1  0  0  0  0
  7  8  1  0  0  0  0
  7  9  1  0  0  0  0
 26 27  1  0  0  0  0
 26 28  1  0  0  0  0
 26 29  1  0  0  0  0
 24 25  1  0  0  0  0
 24 26  1  0  0  0  0
M  END
$$$$
default_name
  -OEChem-02102213163D

 29 28  0     1  0  0  0  0  0999 V2000
   -3.5781   -3.7296    1.2702 H   0  0  0  0  0  0  0  0  0  0  0  0
   -3.5311   -2.7616    0.7732 C   0  0  0  0  0  0  0  0  0  0  0  0
   -4.2371   -2.0766    1.2382 H   0  0  0  0  0  0  0  0  0  0  0  0
   -3.7681   -2.8816   -0.2818 H   0  0  0  0  0  0  0  0  0  0  0  0
   -2.1321   -2.2086    0.9112 C   0  0  0  0  0  0  0  0  0  0  0  0
   -1.2751   -2.8426    1.5112 O   0  0  0  0  0  0  0  0  0  0  0  0
   -1.9041   -1.0186    0.3602 N   0  0  0  0  0  0  0  0  0  0  0  0
   -2.6671   -0.5416   -0.0988 H   0  0  0  0  0  0  0  0  0  0  0  0
   -0.6131   -0.3236    0.3832 C   0  0  1  0  0  0  0  0  0  0  0  0
    0.1346   -0.9625   -0.0894 H   0  0  0  0  0  0  0  0  0  0  0  0
   -0.7253    0.9751   -0.4365 C   0  0  0  0  0  0  0  0  0  0  0  0
   -0.2463    1.7837    0.1196 H   0  0  0  0  0  0  0  0  0  0  0  0
   -0.1952    0.8508   -1.3819 H   0  0  0  0  0  0  0  0  0  0  0  0
   -2.1712    1.3870   -0.7361 C   0  0  0  0  0  0  0  0  0  0  0  0
   -2.6163    1.8096    0.1642 H   0  0  0  0  0  0  0  0  0  0  0  0
   -2.1637    2.1503   -1.5150 H   0  0  0  0  0  0  0  0  0  0  0  0
   -3.2168    0.0159   -1.2895 S   0  0  0  0  0  0  0  0  0  0  0  0
   -2.4802   -0.2991   -2.9143 C   0  0  0  0  0  0  0  0  0  0  0  0
   -1.4302   -0.5684   -2.7960 H   0  0  0  0  0  0  0  0  0  0  0  0
   -3.0092   -1.1208   -3.3979 H   0  0  0  0  0  0  0  0  0  0  0  0
   -2.5614    0.5940   -3.5344 H   0  0  0  0  0  0  0  0  0  0  0  0
   -0.1711   -0.0594    1.8296 C   0  0  0  0  0  0  0  0  0  0  0  0
    0.9865   -0.2908    2.1726 O   0  0  0  0  0  0  0  0  0  0  0  0
   -1.0921    0.4156    2.6780 N   0  0  0  0  0  0  0  0  0  0  0  0
   -2.0168    0.5953    2.3206 H   0  0  0  0  0  0  0  0  0  0  0  0
   -0.8319    0.7034    4.0877 C   0  0  0  0  0  0  0  0  0  0  0  0
   -0.0192    1.4288    4.1710 H   0  0  0  0  0  0  0  0  0  0  0  0
   -1.7255    1.1088    4.5641 H   0  0  0  0  0  0  0  0  0  0  0  0
   -0.5319   -0.2118    4.6011 H   0  0  0  0  0  0  0  0  0  0  0  0
  5  6  2  0  0  0  0
  5  7  1  0  0  0  0
  2  3  1  0  0  0  0
  2  4  1  0  0  0  0
  2  5  1  0  0  0  0
  1  2  1  0  0  0  0
 22 23  2  0  0  0  0
 22 24  1  0  0  0  0
 18 19  1  0  0  0  0
 18 20  1  0  0  0  0
 18 21  1  0  0  0  0
 17 18  1  0  0  0  0
 14 15  1  0  0  0  0
 14 16  1  0  0  0  0
 14 17  1  0  0  0  0
 11 12  1  0  0  0  0
 11 13  1  0  0  0  0
 11 14  1  0  0  0  0
  9 10  1  0  0  0  0
  9 11  1  0  0  0  0
  9 22  1  0  0  0  0
  7  8  1  0  0  0  0
  7  9  1  0  0  0  0
 26 27  1  0  0  0  0
 26 28  1  0  0  0  0
 26 29  1  0  0  0  0
 24 25  1  0  0  0  0
 24 26  1  0  0  0  0
M  END
$$$$
default_name
  -OEChem-02102213163D

 29 28  0     1  0  0  0  0  0999 V2000
   -3.5781   -3.7296    1.2702 H   0  0  0  0  0  0  0  0  0  0  0  0
   -3.5311   -2.7616    0.7732 C   0  0  0  0  0  0  0  0  0  0  0  0
   -4.2371   -2.0766    1.2382 H   0  0  0  0  0  0  0  0  0  0  0  0
   -3.7681   -2.8816   -0.2818 H   0  0  0  0  0  0  0  0  0  0  0  0
   -2.1321   -2.2086    0.9112 C   0  0  0  0  0  0  0  0  0  0  0  0
   -1.2751   -2.8426    1.5112 O   0  0  0  0  0  0  0  0  0  0  0  0
   -1.9041   -1.0186    0.3602 N   0  0  0  0  0  0  0  0  0  0  0  0
   -2.6671   -0.5416   -0.0988 H   0  0  0  0  0  0  0  0  0  0  0  0
   -0.6131   -0.3236    0.3832 C   0  0  1  0  0  0  0  0  0  0  0  0
    0.1346   -0.9625   -0.0894 H   0  0  0  0  0  0  0  0  0  0  0  0
   -0.7253    0.9751   -0.4365 C   0  0  0  0  0  0  0  0  0  0  0  0
   -0.2463    1.7837    0.1196 H   0  0  0  0  0  0  0  0  0  0  0  0
   -0.1952    0.8508   -1.3819 H   0  0  0  0  0  0  0  0  0  0  0  0
   -2.1712    1.3870   -0.7361 C   0  0  0  0  0  0  0  0  0  0  0  0
   -2.5287    2.0407    0.0589 H   0  0  0  0  0  0  0  0  0  0  0  0
   -2.1908    1.9370   -1.6777 H   0  0  0  0  0  0  0  0  0  0  0  0
   -3.3124   -0.0130   -0.8681 S   0  0  0  0  0  0  0  0  0  0  0  0
   -2.7149   -0.7554   -2.4088 C   0  0  0  0  0  0  0  0  0  0  0  0
   -1.6712   -1.0496   -2.2945 H   0  0  0  0  0  0  0  0  0  0  0  0
   -3.3131   -1.6369   -2.6409 H   0  0  0  0  0  0  0  0  0  0  0  0
   -2.8054   -0.0359   -3.2230 H   0  0  0  0  0  0  0  0  0  0  0  0
   -0.1711   -0.0594    1.8296 C   0  0  0  0  0  0  0  0  0  0  0  0
    0.9865   -0.2908    2.1726 O   0  0  0  0  0  0  0  0  0  0  0  0
   -1.0921    0.4156    2.6780 N   0  0  0  0  0  0  0  0  0  0  0  0
   -2.0168    0.5953    2.3206 H   0  0  0  0  0  0  0  0  0  0  0  0
   -0.8319    0.7034    4.0877 C   0  0  0  0  0  0  0  0  0  0  0  0
   -0.0192    1.4288    4.1710 H   0  0  0  0  0  0  0  0  0  0  0  0
   -1.7255    1.1088    4.5641 H   0  0  0  0  0  0  0  0  0  0  0  0
   -0.5319   -0.2118    4.6011 H   0  0  0  0  0  0  0  0  0  0  0  0
  5  6  2  0  0  0  0
  5  7  1  0  0  0  0
  2  3  1  0  0  0  0
  2  4  1  0  0  0  0
  2  5  1  0  0  0  0
  1  2  1  0  0  0  0
 22 23  2  0  0  0  0
 22 24  1  0  0  0  0
 18 19  1  0  0  0  0
 18 20  1  0  0  0  0
 18 21  1  0  0  0  0
 17 18  1  0  0  0  0
 14 15  1  0  0  0  0
 14 16  1  0  0  0  0
 14 17  1  0  0  0  0
 11 12  1  0  0  0  0
 11 13  1  0  0  0  0
 11 14  1  0  0  0  0
  9 10  1  0  0  0  0
  9 11  1  0  0  0  0
  9 22  1  0  0  0  0
  7  8  1  0  0  0  0
  7  9  1  0  0  0  0
 26 27  1  0  0  0  0
 26 28  1  0  0  0  0
 26 29  1  0  0  0  0
 24 25  1  0  0  0  0
 24 26  1  0  0  0  0
M  END
$$$$
default_name
  -OEChem-02102213163D

 29 28  0     1  0  0  0  0  0999 V2000
   -3.5781   -3.7296    1.2702 H   0  0  0  0  0  0  0  0  0  0  0  0
   -3.5311   -2.7616    0.7732 C   0  0  0  0  0  0  0  0  0  0  0  0
   -4.2371   -2.0766    1.2382 H   0  0  0  0  0  0  0  0  0  0  0  0
   -3.7681   -2.8816   -0.2818 H   0  0  0  0  0  0  0  0  0  0  0  0
   -2.1321   -2.2086    0.9112 C   0  0  0  0  0  0  0  0  0  0  0  0
   -1.2751   -2.8426    1.5112 O   0  0  0  0  0  0  0  0  0  0  0  0
   -1.9041   -1.0186    0.3602 N   0  0  0  0  0  0  0  0  0  0  0  0
   -2.6671   -0.5416   -0.0988 H   0  0  0  0  0  0  0  0  0  0  0  0
   -0.6131   -0.3236    0.3832 C   0  0  1  0  0  0  0  0  0  0  0  0
    0.1346   -0.9625   -0.0894 H   0  0  0  0  0  0  0  0  0  0  0  0
   -0.7253    0.9751   -0.4365 C   0  0  0  0  0  0  0  0  0  0  0  0
   -0.2463    1.7837    0.1196 H   0  0  0  0  0  0  0  0  0  0  0  0
   -0.1952    0.8508   -1.3819 H   0  0  0  0  0  0  0  0  0  0  0  0
   -2.1712    1.3870   -0.7361 C   0  0  0  0  0  0  0  0  0  0  0  0
   -2.4396    2.2339   -0.1053 H   0  0  0  0  0  0  0  0  0  0  0  0
   -2.2390    1.6926   -1.7808 H   0  0  0  0  0  0  0  0  0  0  0  0
   -3.3768    0.0669   -0.4473 S   0  0  0  0  0  0  0  0  0  0  0  0
   -2.9296   -1.0608   -1.7927 C   0  0  0  0  0  0  0  0  0  0  0  0
   -1.8935   -1.3799   -1.6759 H   0  0  0  0  0  0  0  0  0  0  0  0
   -3.5801   -1.9353   -1.7627 H   0  0  0  0  0  0  0  0  0  0  0  0
   -3.0513   -0.5560   -2.7515 H   0  0  0  0  0  0  0  0  0  0  0  0
   -0.1711   -0.0594    1.8296 C   0  0  0  0  0  0  0  0  0  0  0  0
    0.9865   -0.2908    2.1726 O   0  0  0  0  0  0  0  0  0  0  0  0
   -1.0921    0.4156    2.6780 N   0  0  0  0  0  0  0  0  0  0  0  0
   -2.0168    0.5953    2.3206 H   0  0  0  0  0  0  0  0  0  0  0  0
   -0.8319    0.7034    4.0877 C   0  0  0  0  0  0  0  0  0  0  0  0
   -0.0192    1.4288    4.1710 H   0  0  0  0  0  0  0  0  0  0  0  0
   -1.7255    1.1088    4.5641 H   0  0  0  0  0  0  0  0  0  0  0  0
   -0.5319   -0.2118    4.6011 H   0  0  0  0  0  0  0  0  0  0  0  0
  5  6  2  0  0  0  0
  5  7  1  0  0  0  0
  2  3  1  0  0  0  0
  2  4  1  0  0  0  0
  2  5  1  0  0  0  0
  1  2  1  0  0  0  0
 22 23  2  0  0  0  0
 22 24  1  0  0  0  0
 18 19  1  0  0  0  0
 18 20  1  0  0  0  0
 18 21  1  0  0  0  0
 17 18  1  0  0  0  0
 14 15  1  0  0  0  0
 14 16  1  0  0  0  0
 14 17  1  0  0  0  0
 11 12  1  0  0  0  0
 11 13  1  0  0  0  0
 11 14  1  0  0  0  0
  9 10  1  0  0  0  0
  9 11  1  0  0  0  0
  9 22  1  0  0  0  0
  7  8  1  0  0  0  0
  7  9  1  0  0  0  0
 26 27  1  0  0  0  0
 26 28  1  0  0  0  0
 26 29  1  0  0  0  0
 24 25  1  0  0  0  0
 24 26  1  0  0  0  0
M  END
$$$$
default_name
  -OEChem-02102213163D

 29 28  0     1  0  0  0  0  0999 V2000
   -3.5781   -3.7296    1.2702 H   0  0  0  0  0  0  0  0  0  0  0  0
   -3.5311   -2.7616    0.7732 C   0  0  0  0  0  0  0  0  0  0  0  0
   -4.2371   -2.0766    1.2382 H   0  0  0  0  0  0  0  0  0  0  0  0
   -3.7681   -2.8816   -0.2818 H   0  0  0  0  0  0  0  0  0  0  0  0
   -2.1321   -2.2086    0.9112 C   0  0  0  0  0  0  0  0  0  0  0  0
   -1.2751   -2.8426    1.5112 O   0  0  0  0  0  0  0  0  0  0  0  0
   -1.9041   -1.0186    0.3602 N   0  0  0  0  0  0  0  0  0  0  0  0
   -2.6671   -0.5416   -0.0988 H   0  0  0  0  0  0  0  0  0  0  0  0
   -0.6131   -0.3236    0.3832 C   0  0  1  0  0  0  0  0  0  0  0  0
    0.1346   -0.9625   -0.0894 H   0  0  0  0  0  0  0  0  0  0  0  0
   -0.7253    0.9751   -0.4365 C   0  0  0  0  0  0  0  0  0  0  0  0
   -0.2463    1.7837    0.1196 H   0  0  0  0  0  0  0  0  0  0  0  0
   -0.1952    0.8508   -1.3819 H   0  0  0  0  0  0  0  0  0  0  0  0
   -2.1712    1.3870   -0.7361 C   0  0  0  0  0  0  0  0  0  0  0  0
   -2.3552    2.3759   -0.3172 H   0  0  0  0  0  0  0  0  0  0  0  0
   -2.3052    1.4338   -1.8174 H   0  0  0  0  0  0  0  0  0  0  0  0
   -3.4058    0.2500   -0.0558 S   0  0  0  0  0  0  0  0  0  0  0  0
   -3.1095   -1.1945   -1.1082 C   0  0  0  0  0  0  0  0  0  0  0  0
   -2.0819   -1.5366   -0.9823 H   0  0  0  0  0  0  0  0  0  0  0  0
   -3.7920   -1.9955   -0.8229 H   0  0  0  0  0  0  0  0  0  0  0  0
   -3.2823   -0.9308   -2.1520 H   0  0  0  0  0  0  0  0  0  0  0  0
   -0.1711   -0.0594    1.8296 C   0  0  0  0  0  0  0  0  0  0  0  0
    0.9865   -0.2908    2.1726 O   0  0  0  0  0  0  0  0  0  0  0  0
   -1.0921    0.4156    2.6780 N   0  0  0  0  0  0  0  0  0  0  0  0
   -2.0168    0.5953    2.3206 H   0  0  0  0  0  0  0  0  0  0  0  0
   -0.8319    0.7034    4.0877 C   0  0  0  0  0  0  0  0  0  0  0  0
   -0.0192    1.4288    4.1710 H   0  0  0  0  0  0  0  0  0  0  0  0
   -1.7255    1.1088    4.5641 H   0  0  0  0  0  0  0  0  0  0  0  0
   -0.5319   -0.2118    4.6011 H   0  0  0  0  0  0  0  0  0  0  0  0
  5  6  2  0  0  0  0
  5  7  1  0  0  0  0
  2  3  1  0  0  0  0
  2  4  1  0  0  0  0
  2  5  1  0  0  0  0
  1  2  1  0  0  0  0
 22 23  2  0  0  0  0
 22 24  1  0  0  0  0
 18 19  1  0  0  0  0
 18 20  1  0  0  0  0
 18 21  1  0  0  0  0
 17 18  1  0  0  0  0
 14 15  1  0  0  0  0
 14 16  1  0  0  0  0
 14 17  1  0  0  0  0
 11 12  1  0  0  0  0
 11 13  1  0  0  0  0
 11 14  1  0  0  0  0
  9 10  1  0  0  0  0
  9 11  1  0  0  0  0
  9 22  1  0  0  0  0
  7  8  1  0  0  0  0
  7  9  1  0  0  0  0
 26 27  1  0  0  0  0
 26 28  1  0  0  0  0
 26 29  1  0  0  0  0
 24 25  1  0  0  0  0
 24 26  1  0  0  0  0
M  END
$$$$
default_name
  -OEChem-02102213163D

 29 28  0     1  0  0  0  0  0999 V2000
   -3.5781   -3.7296    1.2702 H   0  0  0  0  0  0  0  0  0  0  0  0
   -3.5311   -2.7616    0.7732 C   0  0  0  0  0  0  0  0  0  0  0  0
   -4.2371   -2.0766    1.2382 H   0  0  0  0  0  0  0  0  0  0  0  0
   -3.7681   -2.8816   -0.2818 H   0  0  0  0  0  0  0  0  0  0  0  0
   -2.1321   -2.2086    0.9112 C   0  0  0  0  0  0  0  0  0  0  0  0
   -1.2751   -2.8426    1.5112 O   0  0  0  0  0  0  0  0  0  0  0  0
   -1.9041   -1.0186    0.3602 N   0  0  0  0  0  0  0  0  0  0  0  0
   -2.6671   -0.5416   -0.0988 H   0  0  0  0  0  0  0  0  0  0  0  0
   -0.6131   -0.3236    0.3832 C   0  0  1  0  0  0  0  0  0  0  0  0
    0.1346   -0.9625   -0.0894 H   0  0  0  0  0  0  0  0  0  0  0  0
   -0.7253    0.9751   -0.4365 C   0  0  0  0  0  0  0  0  0  0  0  0
   -0.2463    1.7837    0.1196 H   0  0  0  0  0  0  0  0  0  0  0  0
   -0.1952    0.8508   -1.3819 H   0  0  0  0  0  0  0  0  0  0  0  0
   -2.1712    1.3870   -0.7361 C   0  0  0  0  0  0  0  0  0  0  0  0
   -2.2813    2.4570   -0.5625 H   0  0  0  0  0  0  0  0  0  0  0  0
   -2.3847    1.1782   -1.7850 H   0  0  0  0  0  0  0  0  0  0  0  0
   -3.3972    0.5239    0.2796 S   0  0  0  0  0  0  0  0  0  0  0  0
   -3.2425   -1.1475   -0.4018 C   0  0  0  0  0  0  0  0  0  0  0  0
   -2.2235   -1.5091   -0.2610 H   0  0  0  0  0  0  0  0  0  0  0  0
   -3.9344   -1.8137    0.1143 H   0  0  0  0  0  0  0  0  0  0  0  0
   -3.4827   -1.1348   -1.4653 H   0  0  0  0  0  0  0  0  0  0  0  0
   -0.1711   -0.0594    1.8296 C   0  0  0  0  0  0  0  0  0  0  0  0
    0.9865   -0.2908    2.1726 O   0  0  0  0  0  0  0  0  0  0  0  0
   -1.0921    0.4156    2.6780 N   0  0  0  0  0  0  0  0  0  0  0  0
   -2.0168    0.5953    2.3206 H   0  0  0  0  0  0  0  0  0  0  0  0
   -0.8319    0.7034    4.0877 C   0  0  0  0  0  0  0  0  0  0  0  0
   -0.0192    1.4288    4.1710 H   0  0  0  0  0  0  0  0  0  0  0  0
   -1.7255    1.1088    4.5641 H   0  0  0  0  0  0  0  0  0  0  0  0
   -0.5319   -0.2118    4.6011 H   0  0  0  0  0  0  0  0  0  0  0  0
  5  6  2  0  0  0  0
  5  7  1  0  0  0  0
  2  3  1  0  0  0  0
  2  4  1  0  0  0  0
  2  5  1  0  0  0  0
  1  2  1  0  0  0  0
 22 23  2  0  0  0  0
 22 24  1  0  0  0  0
 18 19  1  0  0  0  0
 18 20  1  0  0  0  0
 18 21  1  0  0  0  0
 17 18  1  0  0  0  0
 14 15  1  0  0  0  0
 14 16  1  0  0  0  0
 14 17  1  0  0  0  0
 11 12  1  0  0  0  0
 11 13  1  0  0  0  0
 11 14  1  0  0  0  0
  9 10  1  0  0  0  0
  9 11  1  0  0  0  0
  9 22  1  0  0  0  0
  7  8  1  0  0  0  0
  7  9  1  0  0  0  0
 26 27  1  0  0  0  0
 26 28  1  0  0  0  0
 26 29  1  0  0  0  0
 24 25  1  0  0  0  0
 24 26  1  0  0  0  0
M  END
$$$$
default_name
  -OEChem-02102213163D

 29 28  0     1  0  0  0  0  0999 V2000
   -3.5781   -3.7296    1.2702 H   0  0  0  0  0  0  0  0  0  0  0  0
   -3.5311   -2.7616    0.7732 C   0  0  0  0  0  0  0  0  0  0  0  0
   -4.2371   -2.0766    1.2382 H   0  0  0  0  0  0  0  0  0  0  0  0
   -3.7681   -2.8816   -0.2818 H   0  0  0  0  0  0  0  0  0  0  0  0
   -2.1321   -2.2086    0.9112 C   0  0  0  0  0  0  0  0  0  0  0  0
   -1.2751   -2.8426    1.5112 O   0  0  0  0  0  0  0  0  0  0  0  0
   -1.9041   -1.0186    0.3602 N   0  0  0  0  0  0  0  0  0  0  0  0
   -2.6671   -0.5416   -0.0988 H   0  0  0  0  0  0  0  0  0  0  0  0
   -0.6131   -0.3236    0.3832 C   0  0  1  0  0  0  0  0  0  0  0  0
    0.1346   -0.9625   -0.0894 H   0  0  0  0  0  0  0  0  0  0  0  0
   -0.7253    0.9751   -0.4365 C   0  0  0  0  0  0  0  0  0  0  0  0
   -0.2463    1.7837    0.1196 H   0  0  0  0  0  0  0  0  0  0  0  0
   -0.1952    0.8508   -1.3819 H   0  0  0  0  0  0  0  0  0  0  0  0
   -2.1712    1.3870   -0.7361 C   0  0  0  0  0  0  0  0  0  0  0  0
   -2.2228    2.4718   -0.8243 H   0  0  0  0  0  0  0  0  0  0  0  0
   -2.4722    0.9433   -1.6858 H   0  0  0  0  0  0  0  0  0  0  0  0
   -3.3518    0.8699    0.5361 S   0  0  0  0  0  0  0  0  0  0  0  0
   -3.3195   -0.9229    0.2782 C   0  0  0  0  0  0  0  0  0  0  0  0
   -2.3088   -1.2993    0.4389 H   0  0  0  0  0  0  0  0  0  0  0  0
   -3.9975   -1.4020    0.9850 H   0  0  0  0  0  0  0  0  0  0  0  0
   -3.6389   -1.1541   -0.7383 H   0  0  0  0  0  0  0  0  0  0  0  0
   -0.1711   -0.0594    1.8296 C   0  0  0  0  0  0  0  0  0  0  0  0
    0.9865   -0.2908    2.1726 O   0  0  0  0  0  0  0  0  0  0  0  0
   -1.0921    0.4156    2.6780 N   0  0  0  0  0  0  0  0  0  0  0  0
   -2.0168    0.5953    2.3206 H   0  0  0  0  0  0  0  0  0  0  0  0
   -0.8319    0.7034    4.0877 C   0  0  0  0  0  0  0  0  0  0  0  0
   -0.0192    1.4288    4.1710 H   0  0  0  0  0  0  0  0  0  0  0  0
   -1.7255    1.1088    4.5641 H   0  0  0  0  0  0  0  0  0  0  0  0
   -0.5319   -0.2118    4.6011 H   0  0  0  0  0  0  0  0  0  0  0  0
  5  6  2  0  0  0  0
  5  7  1  0  0  0  0
  2  3  1  0  0  0  0
  2  4  1  0  0  0  0
  2  5  1  0  0  0  0
  1  2  1  0  0  0  0
 22 23  2  0  0  0  0
 22 24  1  0  0  0  0
 18 19  1  0  0  0  0
 18 20  1  0  0  0  0
 18 21  1  0  0  0  0
 17 18  1  0  0  0  0
 14 15  1  0  0  0  0
 14 16  1  0  0  0  0
 14 17  1  0  0  0  0
 11 12  1  0  0  0  0
 11 13  1  0  0  0  0
 11 14  1  0  0  0  0
  9 10  1  0  0  0  0
  9 11  1  0  0  0  0
  9 22  1  0  0  0  0
  7  8  1  0  0  0  0
  7  9  1  0  0  0  0
 26 27  1  0  0  0  0
 26 28  1  0  0  0  0
 26 29  1  0  0  0  0
 24 25  1  0  0  0  0
 24 26  1  0  0  0  0
M  END
$$$$
default_name
  -OEChem-02102213163D

 29 28  0     1  0  0  0  0  0999 V2000
   -3.5781   -3.7296    1.2702 H   0  0  0  0  0  0  0  0  0  0  0  0
   -3.5311   -2.7616    0.7732 C   0  0  0  0  0  0  0  0  0  0  0  0
   -4.2371   -2.0766    1.2382 H   0  0  0  0  0  0  0  0  0  0  0  0
   -3.7681   -2.8816   -0.2818 H   0  0  0  0  0  0  0  0  0  0  0  0
   -2.1321   -2.2086    0.9112 C   0  0  0  0  0  0  0  0  0  0  0  0
   -1.2751   -2.8426    1.5112 O   0  0  0  0  0  0  0  0  0  0  0  0
   -1.9041   -1.0186    0.3602 N   0  0  0  0  0  0  0  0  0  0  0  0
   -2.6671   -0.5416   -0.0988 H   0  0  0  0  0  0  0  0  0  0  0  0
   -0.6131   -0.3236    0.3832 C   0  0  1  0  0  0  0  0  0  0  0  0
    0.1346   -0.9625   -0.0894 H   0  0  0  0  0  0  0  0  0  0  0  0
   -0.7253    0.9751   -0.4365 C   0  0  0  0  0  0  0  0  0  0  0  0
   -0.2463    1.7837    0.1196 H   0  0  0  0  0  0  0  0  0  0  0  0
   -0.1952    0.8508   -1.3819 H   0  0  0  0  0  0  0  0  0  0  0  0
   -2.1712    1.3870   -0.7361 C   0  0  0  0  0  0  0  0  0  0  0  0
   -2.1838    2.4192   -1.0849 H   0  0  0  0  0  0  0  0  0  0  0  0
   -2.5617    0.7450   -1.5265 H   0  0  0  0  0  0  0  0  0  0  0  0
   -3.2726    1.2645    0.6963 S   0  0  0  0  0  0  0  0  0  0  0  0
   -3.3351   -0.5361    0.8857 C   0  0  0  0  0  0  0  0  0  0  0  0
   -2.3318   -0.9215    1.0697 H   0  0  0  0  0  0  0  0  0  0  0  0
   -3.9771   -0.7886    1.7300 H   0  0  0  0  0  0  0  0  0  0  0  0
   -3.7401   -0.9874   -0.0205 H   0  0  0  0  0  0  0  0  0  0  0  0
   -0.1711   -0.0594    1.8296 C   0  0  0  0  0  0  0  0  0  0  0  0
    0.9865   -0.2908    2.1726 O   0  0  0  0  0  0  0  0  0  0  0  0
   -1.0921    0.4156    2.6780 N   0  0  0  0  0  0  0  0  0  0  0  0
   -2.0168    0.5953    2.3206 H   0  0  0  0  0  0  0  0  0  0  0  0
   -0.8319    0.7034    4.0877 C   0  0  0  0  0  0  0  0  0  0  0  0
   -0.0192    1.4288    4.1710 H   0  0  0  0  0  0  0  0  0  0  0  0
   -1.7255    1.1088    4.5641 H   0  0  0  0  0  0  0  0  0  0  0  0
   -0.5319   -0.2118    4.6011 H   0  0  0  0  0  0  0  0  0  0  0  0
  5  6  2  0  0  0  0
  5  7  1  0  0  0  0
  2  3  1  0  0  0  0
  2  4  1  0  0  0  0
  2  5  1  0  0  0  0
  1  2  1  0  0  0  0
 22 23  2  0  0  0  0
 22 24  1  0  0  0  0
 18 19  1  0  0  0  0
 18 20  1  0  0  0  0
 18 21  1  0  0  0  0
 17 18  1  0  0  0  0
 14 15  1  0  0  0  0
 14 16  1  0  0  0  0
 14 17  1  0  0  0  0
 11 12  1  0  0  0  0
 11 13  1  0  0  0  0
 11 14  1  0  0  0  0
  9 10  1  0  0  0  0
  9 11  1  0  0  0  0
  9 22  1  0  0  0  0
  7  8  1  0  0  0  0
  7  9  1  0  0  0  0
 26 27  1  0  0  0  0
 26 28  1  0  0  0  0
 26 29  1  0  0  0  0
 24 25  1  0  0  0  0
 24 26  1  0  0  0  0
M  END
$$$$
default_name
  -OEChem-02102213163D

 29 28  0     1  0  0  0  0  0999 V2000
   -3.5781   -3.7296    1.2702 H   0  0  0  0  0  0  0  0  0  0  0  0
   -3.5311   -2.7616    0.7732 C   0  0  0  0  0  0  0  0  0  0  0  0
   -4.2371   -2.0766    1.2382 H   0  0  0  0  0  0  0  0  0  0  0  0
   -3.7681   -2.8816   -0.2818 H   0  0  0  0  0  0  0  0  0  0  0  0
   -2.1321   -2.2086    0.9112 C   0  0  0  0  0  0  0  0  0  0  0  0
   -1.2751   -2.8426    1.5112 O   0  0  0  0  0  0  0  0  0  0  0  0
   -1.9041   -1.0186    0.3602 N   0  0  0  0  0  0  0  0  0  0  0  0
   -2.6671   -0.5416   -0.0988 H   0  0  0  0  0  0  0  0  0  0  0  0
   -0.6131   -0.3236    0.3832 C   0  0  1  0  0  0  0  0  0  0  0  0
    0.1346   -0.9625   -0.0894 H   0  0  0  0  0  0  0  0  0  0  0  0
   -0.7253    0.9751   -0.4365 C   0  0  0  0  0  0  0  0  0  0  0  0
   -0.2463    1.7837    0.1196 H   0  0  0  0  0  0  0  0  0  0  0  0
   -0.1952    0.8508   -1.3819 H   0  0  0  0  0  0  0  0  0  0  0  0
   -2.1712    1.3870   -0.7361 C   0  0  0  0  0  0  0  0  0  0  0  0
   -2.1669    2.3028   -1.3265 H   0  0  0  0  0  0  0  0  0  0  0  0
   -2.6471    0.5969   -1.3180 H   0  0  0  0  0  0  0  0  0  0  0  0
   -3.1649    1.6807    0.7492 S   0  0  0  0  0  0  0  0  0  0  0  0
   -3.2884   -0.0134    1.3791 C   0  0  0  0  0  0  0  0  0  0  0  0
   -2.2911   -0.4014    1.5884 H   0  0  0  0  0  0  0  0  0  0  0  0
   -3.8746   -0.0153    2.2984 H   0  0  0  0  0  0  0  0  0  0  0  0
   -3.7796   -0.6460    0.6392 H   0  0  0  0  0  0  0  0  0  0  0  0
   -0.1711   -0.0594    1.8296 C   0  0  0  0  0  0  0  0  0  0  0  0
    0.9865   -0.2908    2.1726 O   0  0  0  0  0  0  0  0  0  0  0  0
   -1.0921    0.4156    2.6780 N   0  0  0  0  0  0  0  0  0  0  0  0
   -2.0168    0.5953    2.3206 H   0  0  0  0  0  0  0  0  0  0  0  0
   -0.8319    0.7034    4.0877 C   0  0  0  0  0  0  0  0  0  0  0  0
   -0.0192    1.4288    4.1710 H   0  0  0  0  0  0  0  0  0  0  0  0
   -1.7255    1.1088    4.5641 H   0  0  0  0  0  0  0  0  0  0  0  0
   -0.5319   -0.2118    4.6011 H   0  0  0  0  0  0  0  0  0  0  0  0
  5  6  2  0  0  0  0
  5  7  1  0  0  0  0
  2  3  1  0  0  0  0
  2  4  1  0  0  0  0
  2  5  1  0  0  0  0
  1  2  1  0  0  0  0
 22 23  2  0  0  0  0
 22 24  1  0  0  0  0
 18 19  1  0  0  0  0
 18 20  1  0  0  0  0
 18 21  1  0  0  0  0
 17 18  1  0  0  0  0
 14 15  1  0  0  0  0
 14 16  1  0  0  0  0
 14 17  1  0  0  0  0
 11 12  1  0  0  0  0
 11 13  1  0  0  0  0
 11 14  1  0  0  0  0
  9 10  1  0  0  0  0
  9 11  1  0  0  0  0
  9 22  1  0  0  0  0
  7  8  1  0  0  0  0
  7  9  1  0  0  0  0
 26 27  1  0  0  0  0
 26 28  1  0  0  0  0
 26 29  1  0  0  0  0
 24 25  1  0  0  0  0
 24 26  1  0  0  0  0
M  END
$$$$
default_name
  -OEChem-02102213163D

 29 28  0     1  0  0  0  0  0999 V2000
   -3.5781   -3.7296    1.2702 H   0  0  0  0  0  0  0  0  0  0  0  0
   -3.5311   -2.7616    0.7732 C   0  0  0  0  0  0  0  0  0  0  0  0
   -4.2371   -2.0766    1.2382 H   0  0  0  0  0  0  0  0  0  0  0  0
   -3.7681   -2.8816   -0.2818 H   0  0  0  0  0  0  0  0  0  0  0  0
   -2.1321   -2.2086    0.9112 C   0  0  0  0  0  0  0  0  0  0  0  0
   -1.2751   -2.8426    1.5112 O   0  0  0  0  0  0  0  0  0  0  0  0
   -1.9041   -1.0186    0.3602 N   0  0  0  0  0  0  0  0  0  0  0  0
   -2.6671   -0.5416   -0.0988 H   0  0  0  0  0  0  0  0  0  0  0  0
   -0.6131   -0.3236    0.3832 C   0  0  1  0  0  0  0  0  0  0  0  0
    0.1346   -0.9625   -0.0894 H   0  0  0  0  0  0  0  0  0  0  0  0
   -0.7253    0.9751   -0.4365 C   0  0  0  0  0  0  0  0  0  0  0  0
   -0.2463    1.7837    0.1196 H   0  0  0  0  0  0  0  0  0  0  0  0
   -0.1952    0.8508   -1.3819 H   0  0  0  0  0  0  0  0  0  0  0  0
   -2.1712    1.3870   -0.7361 C   0  0  0  0  0  0  0  0  0  0  0  0
   -2.1733    2.1305   -1.5326 H   0  0  0  0  0  0  0  0  0  0  0  0
   -2.7226    0.5091   -1.0746 H   0  0  0  0  0  0  0  0  0  0  0  0
   -3.0362    2.0901    0.6911 S   0  0  0  0  0  0  0  0  0  0  0  0
   -3.1826    0.6096    1.7248 C   0  0  0  0  0  0  0  0  0  0  0  0
   -2.1894    0.2255    1.9595 H   0  0  0  0  0  0  0  0  0  0  0  0
   -3.6969    0.8653    2.6516 H   0  0  0  0  0  0  0  0  0  0  0  0
   -3.7545   -0.1532    1.1958 H   0  0  0  0  0  0  0  0  0  0  0  0
   -0.1711   -0.0594    1.8296 C   0  0  0  0  0  0  0  0  0  0  0  0
    0.9865   -0.2908    2.1726 O   0  0  0  0  0  0  0  0  0  0  0  0
   -1.0921    0.4156    2.6780 N   0  0  0  0  0  0  0  0  0  0  0  0
   -2.0168    0.5953    2.3206 H   0  0  0  0  0  0  0  0  0  0  0  0
   -0.8319    0.7034    4.0877 C   0  0  0  0  0  0  0  0  0  0  0  0
   -0.0192    1.4288    4.1710 H   0  0  0  0  0  0  0  0  0  0  0  0
   -1.7255    1.1088    4.5641 H   0  0  0  0  0  0  0  0  0  0  0  0
   -0.5319   -0.2118    4.6011 H   0  0  0  0  0  0  0  0  0  0  0  0
  5  6  2  0  0  0  0
  5  7  1  0  0  0  0
  2  3  1  0  0  0  0
  2  4  1  0  0  0  0
  2  5  1  0  0  0  0
  1  2  1  0  0  0  0
 22 23  2  0  0  0  0
 22 24  1  0  0  0  0
 18 19  1  0  0  0  0
 18 20  1  0  0  0  0
 18 21  1  0  0  0  0
 17 18  1  0  0  0  0
 14 15  1  0  0  0  0
 14 16  1  0  0  0  0
 14 17  1  0  0  0  0
 11 12  1  0  0  0  0
 11 13  1  0  0  0  0
 11 14  1  0  0  0  0
  9 10  1  0  0  0  0
  9 11  1  0  0  0  0
  9 22  1  0  0  0  0
  7  8  1  0  0  0  0
  7  9  1  0  0  0  0
 26 27  1  0  0  0  0
 26 28  1  0  0  0  0
 26 29  1  0  0  0  0
 24 25  1  0  0  0  0
 24 26  1  0  0  0  0
M  END
$$$$
default_name
  -OEChem-02102213163D

 29 28  0     1  0  0  0  0  0999 V2000
   -3.5781   -3.7296    1.2702 H   0  0  0  0  0  0  0  0  0  0  0  0
   -3.5311   -2.7616    0.7732 C   0  0  0  0  0  0  0  0  0  0  0  0
   -4.2371   -2.0766    1.2382 H   0  0  0  0  0  0  0  0  0  0  0  0
   -3.7681   -2.8816   -0.2818 H   0  0  0  0  0  0  0  0  0  0  0  0
   -2.1321   -2.2086    0.9112 C   0  0  0  0  0  0  0  0  0  0  0  0
   -1.2751   -2.8426    1.5112 O   0  0  0  0  0  0  0  0  0  0  0  0
   -1.9041   -1.0186    0.3602 N   0  0  0  0  0  0  0  0  0  0  0  0
   -2.6671   -0.5416   -0.0988 H   0  0  0  0  0  0  0  0  0  0  0  0
   -0.6131   -0.3236    0.3832 C   0  0  1  0  0  0  0  0  0  0  0  0
    0.1346   -0.9625   -0.0894 H   0  0  0  0  0  0  0  0  0  0  0  0
   -0.7253    0.9751   -0.4365 C   0  0  0  0  0  0  0  0  0  0  0  0
   -0.2463    1.7837    0.1196 H   0  0  0  0  0  0  0  0  0  0  0  0
   -0.1952    0.8508   -1.3819 H   0  0  0  0  0  0  0  0  0  0  0  0
   -2.1712    1.3870   -0.7361 C   0  0  0  0  0  0  0  0  0  0  0  0
   -2.2025    1.9141   -1.6892 H   0  0  0  0  0  0  0  0  0  0  0  0
   -2.7830    0.4875   -0.8127 H   0  0  0  0  0  0  0  0  0  0  0  0
   -2.8953    2.4650    0.5262 S   0  0  0  0  0  0  0  0  0  0  0  0
   -3.0247    1.2904    1.8993 C   0  0  0  0  0  0  0  0  0  0  0  0
   -2.0337    0.9165    2.1580 H   0  0  0  0  0  0  0  0  0  0  0  0
   -3.4561    1.7930    2.7654 H   0  0  0  0  0  0  0  0  0  0  0  0
   -3.6666    0.4574    1.6115 H   0  0  0  0  0  0  0  0  0  0  0  0
   -0.1711   -0.0594    1.8296 C   0  0  0  0  0  0  0  0  0  0  0  0
    0.9865   -0.2908    2.1726 O   0  0  0  0  0  0  0  0  0  0  0  0
   -1.0921    0.4156    2.6780 N   0  0  0  0  0  0  0  0  0  0  0  0
   -2.0168    0.5953    2.3206 H   0  0  0  0  0  0  0  0  0  0  0  0
   -0.8319    0.7034    4.0877 C   0  0  0  0  0  0  0  0  0  0  0  0
   -0.0192    1.4288    4.1710 H   0  0  0  0  0  0  0  0  0  0  0  0
   -1.7255    1.1088    4.5641 H   0  0  0  0  0  0  0  0  0  0  0  0
   -0.5319   -0.2118    4.6011 H   0  0  0  0  0  0  0  0  0  0  0  0
  5  6  2  0  0  0  0
  5  7  1  0  0  0  0
  2  3  1  0  0  0  0
  2  4  1  0  0  0  0
  2  5  1  0  0  0  0
  1  2  1  0  0  0  0
 22 23  2  0  0  0  0
 22 24  1  0  0  0  0
 18 19  1  0  0  0  0
 18 20  1  0  0  0  0
 18 21  1  0  0  0  0
 17 18  1  0  0  0  0
 14 15  1  0  0  0  0
 14 16  1  0  0  0  0
 14 17  1  0  0  0  0
 11 12  1  0  0  0  0
 11 13  1  0  0  0  0
 11 14  1  0  0  0  0
  9 10  1  0  0  0  0
  9 11  1  0  0  0  0
  9 22  1  0  0  0  0
  7  8  1  0  0  0  0
  7  9  1  0  0  0  0
 26 27  1  0  0  0  0
 26 28  1  0  0  0  0
 26 29  1  0  0  0  0
 24 25  1  0  0  0  0
 24 26  1  0  0  0  0
M  END
$$$$
default_name
  -OEChem-02102213163D

 29 28  0     1  0  0  0  0  0999 V2000
   -3.5781   -3.7296    1.2702 H   0  0  0  0  0  0  0  0  0  0  0  0
   -3.5311   -2.7616    0.7732 C   0  0  0  0  0  0  0  0  0  0  0  0
   -4.2371   -2.0766    1.2382 H   0  0  0  0  0  0  0  0  0  0  0  0
   -3.7681   -2.8816   -0.2818 H   0  0  0  0  0  0  0  0  0  0  0  0
   -2.1321   -2.2086    0.9112 C   0  0  0  0  0  0  0  0  0  0  0  0
   -1.2751   -2.8426    1.5112 O   0  0  0  0  0  0  0  0  0  0  0  0
   -1.9041   -1.0186    0.3602 N   0  0  0  0  0  0  0  0  0  0  0  0
   -2.6671   -0.5416   -0.0988 H   0  0  0  0  0  0  0  0  0  0  0  0
   -0.6131   -0.3236    0.3832 C   0  0  1  0  0  0  0  0  0  0  0  0
    0.1346   -0.9625   -0.0894 H   0  0  0  0  0  0  0  0  0  0  0  0
   -0.7253    0.9751   -0.4365 C   0  0  0  0  0  0  0  0  0  0  0  0
   -0.2463    1.7837    0.1196 H   0  0  0  0  0  0  0  0  0  0  0  0
   -0.1952    0.8508   -1.3819 H   0  0  0  0  0  0  0  0  0  0  0  0
   -2.1712    1.3870   -0.7361 C   0  0  0  0  0  0  0  0  0  0  0  0
   -2.2525    1.6684   -1.7856 H   0  0  0  0  0  0  0  0  0  0  0  0
   -2.8243    0.5336   -0.5503 H   0  0  0  0  0  0  0  0  0  0  0  0
   -2.7516    2.7797    0.2656 S   0  0  0  0  0  0  0  0  0  0  0  0
   -2.8257    1.9826    1.8907 C   0  0  0  0  0  0  0  0  0  0  0  0
   -1.8344    1.6245    2.1701 H   0  0  0  0  0  0  0  0  0  0  0  0
   -3.1687    2.7048    2.6321 H   0  0  0  0  0  0  0  0  0  0  0  0
   -3.5220    1.1442    1.8577 H   0  0  0  0  0  0  0  0  0  0  0  0
   -0.1711   -0.0594    1.8296 C   0  0  0  0  0  0  0  0  0  0  0  0
    0.9865   -0.2908    2.1726 O   0  0  0  0  0  0  0  0  0  0  0  0
   -1.0921    0.4156    2.6780 N   0  0  0  0  0  0  0  0  0  0  0  0
   -2.0168    0.5953    2.3206 H   0  0  0  0  0  0  0  0  0  0  0  0
   -0.8319    0.7034    4.0877 C   0  0  0  0  0  0  0  0  0  0  0  0
   -0.0192    1.4288    4.1710 H   0  0  0  0  0  0  0  0  0  0  0  0
   -1.7255    1.1088    4.5641 H   0  0  0  0  0  0  0  0  0  0  0  0
   -0.5319   -0.2118    4.6011 H   0  0  0  0  0  0  0  0  0  0  0  0
  5  6  2  0  0  0  0
  5  7  1  0  0  0  0
  2  3  1  0  0  0  0
  2  4  1  0  0  0  0
  2  5  1  0  0  0  0
  1  2  1  0  0  0  0
 22 23  2  0  0  0  0
 22 24  1  0  0  0  0
 18 19  1  0  0  0  0
 18 20  1  0  0  0  0
 18 21  1  0  0  0  0
 17 18  1  0  0  0  0
 14 15  1  0  0  0  0
 14 16  1  0  0  0  0
 14 17  1  0  0  0  0
 11 12  1  0  0  0  0
 11 13  1  0  0  0  0
 11 14  1  0  0  0  0
  9 10  1  0  0  0  0
  9 11  1  0  0  0  0
  9 22  1  0  0  0  0
  7  8  1  0  0  0  0
  7  9  1  0  0  0  0
 26 27  1  0  0  0  0
 26 28  1  0  0  0  0
 26 29  1  0  0  0  0
 24 25  1  0  0  0  0
 24 26  1  0  0  0  0
M  END
$$$$
default_name
  -OEChem-02102213163D

 29 28  0     1  0  0  0  0  0999 V2000
   -3.5781   -3.7296    1.2702 H   0  0  0  0  0  0  0  0  0  0  0  0
   -3.5311   -2.7616    0.7732 C   0  0  0  0  0  0  0  0  0  0  0  0
   -4.2371   -2.0766    1.2382 H   0  0  0  0  0  0  0  0  0  0  0  0
   -3.7681   -2.8816   -0.2818 H   0  0  0  0  0  0  0  0  0  0  0  0
   -2.1321   -2.2086    0.9112 C   0  0  0  0  0  0  0  0  0  0  0  0
   -1.2751   -2.8426    1.5112 O   0  0  0  0  0  0  0  0  0  0  0  0
   -1.9041   -1.0186    0.3602 N   0  0  0  0  0  0  0  0  0  0  0  0
   -2.6671   -0.5416   -0.0988 H   0  0  0  0  0  0  0  0  0  0  0  0
   -0.6131   -0.3236    0.3832 C   0  0  1  0  0  0  0  0  0  0  0  0
    0.1346   -0.9625   -0.0894 H   0  0  0  0  0  0  0  0  0  0  0  0
   -0.7253    0.9751   -0.4365 C   0  0  0  0  0  0  0  0  0  0  0  0
   -0.2463    1.7837    0.1196 H   0  0  0  0  0  0  0  0  0  0  0  0
   -0.1952    0.8508   -1.3819 H   0  0  0  0  0  0  0  0  0  0  0  0
   -2.1712    1.3870   -0.7361 C   0  0  0  0  0  0  0  0  0  0  0  0
   -2.3200    1.4100   -1.8152 H   0  0  0  0  0  0  0  0  0  0  0  0
   -2.8435    0.6443   -0.3052 H   0  0  0  0  0  0  0  0  0  0  0  0
   -2.6150    3.0128   -0.0730 S   0  0  0  0  0  0  0  0  0  0  0  0
   -2.5991    2.6391    1.6996 C   0  0  0  0  0  0  0  0  0  0  0  0
   -1.6053    2.3013    1.9952 H   0  0  0  0  0  0  0  0  0  0  0  0
   -2.8543    3.5384    2.2608 H   0  0  0  0  0  0  0  0  0  0  0  0
   -3.3304    1.8604    1.9179 H   0  0  0  0  0  0  0  0  0  0  0  0
   -0.1711   -0.0594    1.8296 C   0  0  0  0  0  0  0  0  0  0  0  0
    0.9865   -0.2908    2.1726 O   0  0  0  0  0  0  0  0  0  0  0  0
   -1.0921    0.4156    2.6780 N   0  0  0  0  0  0  0  0  0  0  0  0
   -2.0168    0.5953    2.3206 H   0  0  0  0  0  0  0  0  0  0  0  0
   -0.8319    0.7034    4.0877 C   0  0  0  0  0  0  0  0  0  0  0  0
   -0.0192    1.4288    4.1710 H   0  0  0  0  0  0  0  0  0  0  0  0
   -1.7255    1.1088    4.5641 H   0  0  0  0  0  0  0  0  0  0  0  0
   -0.5319   -0.2118    4.6011 H   0  0  0  0  0  0  0  0  0  0  0  0
  5  6  2  0  0  0  0
  5  7  1  0  0  0  0
  2  3  1  0  0  0  0
  2  4  1  0  0  0  0
  2  5  1  0  0  0  0
  1  2  1  0  0  0  0
 22 23  2  0  0  0  0
 22 24  1  0  0  0  0
 18 19  1  0  0  0  0
 18 20  1  0  0  0  0
 18 21  1  0  0  0  0
 17 18  1  0  0  0  0
 14 15  1  0  0  0  0
 14 16  1  0  0  0  0
 14 17  1  0  0  0  0
 11 12  1  0  0  0  0
 11 13  1  0  0  0  0
 11 14  1  0  0  0  0
  9 10  1  0  0  0  0
  9 11  1  0  0  0  0
  9 22  1  0  0  0  0
  7  8  1  0  0  0  0
  7  9  1  0  0  0  0
 26 27  1  0  0  0  0
 26 28  1  0  0  0  0
 26 29  1  0  0  0  0
 24 25  1  0  0  0  0
 24 26  1  0  0  0  0
M  END
$$$$
default_name
  -OEChem-02102213163D

 29 28  0     1  0  0  0  0  0999 V2000
   -3.5781   -3.7296    1.2702 H   0  0  0  0  0  0  0  0  0  0  0  0
   -3.5311   -2.7616    0.7732 C   0  0  0  0  0  0  0  0  0  0  0  0
   -4.2371   -2.0766    1.2382 H   0  0  0  0  0  0  0  0  0  0  0  0
   -3.7681   -2.8816   -0.2818 H   0  0  0  0  0  0  0  0  0  0  0  0
   -2.1321   -2.2086    0.9112 C   0  0  0  0  0  0  0  0  0  0  0  0
   -1.2751   -2.8426    1.5112 O   0  0  0  0  0  0  0  0  0  0  0  0
   -1.9041   -1.0186    0.3602 N   0  0  0  0  0  0  0  0  0  0  0  0
   -2.6671   -0.5416   -0.0988 H   0  0  0  0  0  0  0  0  0  0  0  0
   -0.6131   -0.3236    0.3832 C   0  0  1  0  0  0  0  0  0  0  0  0
    0.1346   -0.9625   -0.0894 H   0  0  0  0  0  0  0  0  0  0  0  0
   -0.7253    0.9751   -0.4365 C   0  0  0  0  0  0  0  0  0  0  0  0
   -0.2463    1.7837    0.1196 H   0  0  0  0  0  0  0  0  0  0  0  0
   -0.1952    0.8508   -1.3819 H   0  0  0  0  0  0  0  0  0  0  0  0
   -2.1712    1.3870   -0.7361 C   0  0  0  0  0  0  0  0  0  0  0  0
   -2.4003    1.1566   -1.7761 H   0  0  0  0  0  0  0  0  0  0  0  0
   -2.8395    0.8120   -0.0941 H   0  0  0  0  0  0  0  0  0  0  0  0
   -2.4949    3.1483   -0.4664 S   0  0  0  0  0  0  0  0  0  0  0  0
   -2.3602    3.2151    1.3389 C   0  0  0  0  0  0  0  0  0  0  0  0
   -1.3620    2.9008    1.6450 H   0  0  0  0  0  0  0  0  0  0  0  0
   -2.5342    4.2370    1.6768 H   0  0  0  0  0  0  0  0  0  0  0  0
   -3.1049    2.5572    1.7879 H   0  0  0  0  0  0  0  0  0  0  0  0
   -0.1711   -0.0594    1.8296 C   0  0  0  0  0  0  0  0  0  0  0  0
    0.9865   -0.2908    2.1726 O   0  0  0  0  0  0  0  0  0  0  0  0
   -1.0921    0.4156    2.6780 N   0  0  0  0  0  0  0  0  0  0  0  0
   -2.0168    0.5953    2.3206 H   0  0  0  0  0  0  0  0  0  0  0  0
   -0.8319    0.7034    4.0877 C   0  0  0  0  0  0  0  0  0  0  0  0
   -0.0192    1.4288    4.1710 H   0  0  0  0  0  0  0  0  0  0  0  0
   -1.7255    1.1088    4.5641 H   0  0  0  0  0  0  0  0  0  0  0  0
   -0.5319   -0.2118    4.6011 H   0  0  0  0  0  0  0  0  0  0  0  0
  5  6  2  0  0  0  0
  5  7  1  0  0  0  0
  2  3  1  0  0  0  0
  2  4  1  0  0  0  0
  2  5  1  0  0  0  0
  1  2  1  0  0  0  0
 22 23  2  0  0  0  0
 22 24  1  0  0  0  0
 18 19  1  0  0  0  0
 18 20  1  0  0  0  0
 18 21  1  0  0  0  0
 17 18  1  0  0  0  0
 14 15  1  0  0  0  0
 14 16  1  0  0  0  0
 14 17  1  0  0  0  0
 11 12  1  0  0  0  0
 11 13  1  0  0  0  0
 11 14  1  0  0  0  0
  9 10  1  0  0  0  0
  9 11  1  0  0  0  0
  9 22  1  0  0  0  0
  7  8  1  0  0  0  0
  7  9  1  0  0  0  0
 26 27  1  0  0  0  0
 26 28  1  0  0  0  0
 26 29  1  0  0  0  0
 24 25  1  0  0  0  0
 24 26  1  0  0  0  0
M  END
$$$$
default_name
  -OEChem-02102213163D

 29 28  0     1  0  0  0  0  0999 V2000
   -3.5781   -3.7296    1.2702 H   0  0  0  0  0  0  0  0  0  0  0  0
   -3.5311   -2.7616    0.7732 C   0  0  0  0  0  0  0  0  0  0  0  0
   -4.2371   -2.0766    1.2382 H   0  0  0  0  0  0  0  0  0  0  0  0
   -3.7681   -2.8816   -0.2818 H   0  0  0  0  0  0  0  0  0  0  0  0
   -2.1321   -2.2086    0.9112 C   0  0  0  0  0  0  0  0  0  0  0  0
   -1.2751   -2.8426    1.5112 O   0  0  0  0  0  0  0  0  0  0  0  0
   -1.9041   -1.0186    0.3602 N   0  0  0  0  0  0  0  0  0  0  0  0
   -2.6671   -0.5416   -0.0988 H   0  0  0  0  0  0  0  0  0  0  0  0
   -0.6131   -0.3236    0.3832 C   0  0  1  0  0  0  0  0  0  0  0  0
    0.1346   -0.9625   -0.0894 H   0  0  0  0  0  0  0  0  0  0  0  0
   -0.7253    0.9751   -0.4365 C   0  0  0  0  0  0  0  0  0  0  0  0
   -0.2463    1.7837    0.1196 H   0  0  0  0  0  0  0  0  0  0  0  0
   -0.1952    0.8508   -1.3819 H   0  0  0  0  0  0  0  0  0  0  0  0
   -2.1712    1.3870   -0.7361 C   0  0  0  0  0  0  0  0  0  0  0  0
   -2.4880    0.9254   -1.6708 H   0  0  0  0  0  0  0  0  0  0  0  0
   -2.8124    1.0253    0.0685 H   0  0  0  0  0  0  0  0  0  0  0  0
   -2.3993    3.1772   -0.8879 S   0  0  0  0  0  0  0  0  0  0  0  0
   -2.1255    3.6713    0.8334 C   0  0  0  0  0  0  0  0  0  0  0  0
   -1.1210    3.3820    1.1436 H   0  0  0  0  0  0  0  0  0  0  0  0
   -2.2303    4.7531    0.9199 H   0  0  0  0  0  0  0  0  0  0  0  0
   -2.8609    3.1871    1.4765 H   0  0  0  0  0  0  0  0  0  0  0  0
   -0.1711   -0.0594    1.8296 C   0  0  0  0  0  0  0  0  0  0  0  0
    0.9865   -0.2908    2.1726 O   0  0  0  0  0  0  0  0  0  0  0  0
   -1.0921    0.4156    2.6780 N   0  0  0  0  0  0  0  0  0  0  0  0
   -2.0168    0.5953    2.3206 H   0  0  0  0  0  0  0  0  0  0  0  0
   -0.8319    0.7034    4.0877 C   0  0  0  0  0  0  0  0  0  0  0  0
   -0.0192    1.4288    4.1710 H   0  0  0  0  0  0  0  0  0  0  0  0
   -1.7255    1.1088    4.5641 H   0  0  0  0  0  0  0  0  0  0  0  0
   -0.5319   -0.2118    4.6011 H   0  0  0  0  0  0  0  0  0  0  0  0
  5  6  2  0  0  0  0
  5  7  1  0  0  0  0
  2  3  1  0  0  0  0
  2  4  1  0  0  0  0
  2  5  1  0  0  0  0
  1  2  1  0  0  0  0
 22 23  2  0  0  0  0
 22 24  1  0  0  0  0
 18 19  1  0  0  0  0
 18 20  1  0  0  0  0
 18 21  1  0  0  0  0
 17 18  1  0  0  0  0
 14 15  1  0  0  0  0
 14 16  1  0  0  0  0
 14 17  1  0  0  0  0
 11 12  1  0  0  0  0
 11 13  1  0  0  0  0
 11 14  1  0  0  0  0
  9 10  1  0  0  0  0
  9 11  1  0  0  0  0
  9 22  1  0  0  0  0
  7  8  1  0  0  0  0
  7  9  1  0  0  0  0
 26 27  1  0  0  0  0
 26 28  1  0  0  0  0
 26 29  1  0  0  0  0
 24 25  1  0  0  0  0
 24 26  1  0  0  0  0
M  END
$$$$
default_name
  -OEChem-02102213163D

 29 28  0     1  0  0  0  0  0999 V2000
   -3.5781   -3.7296    1.2702 H   0  0  0  0  0  0  0  0  0  0  0  0
   -3.5311   -2.7616    0.7732 C   0  0  0  0  0  0  0  0  0  0  0  0
   -4.2371   -2.0766    1.2382 H   0  0  0  0  0  0  0  0  0  0  0  0
   -3.7681   -2.8816   -0.2818 H   0  0  0  0  0  0  0  0  0  0  0  0
   -2.1321   -2.2086    0.9112 C   0  0  0  0  0  0  0  0  0  0  0  0
   -1.2751   -2.8426    1.5112 O   0  0  0  0  0  0  0  0  0  0  0  0
   -1.9041   -1.0186    0.3602 N   0  0  0  0  0  0  0  0  0  0  0  0
   -2.6671   -0.5416   -0.0988 H   0  0  0  0  0  0  0  0  0  0  0  0
   -0.6131   -0.3236    0.3832 C   0  0  1  0  0  0  0  0  0  0  0  0
    0.1346   -0.9625   -0.0894 H   0  0  0  0  0  0  0  0  0  0  0  0
   -0.7253    0.9751   -0.4365 C   0  0  0  0  0  0  0  0  0  0  0  0
   -0.2463    1.7837    0.1196 H   0  0  0  0  0  0  0  0  0  0  0  0
   -0.1952    0.8508   -1.3819 H   0  0  0  0  0  0  0  0  0  0  0  0
   -2.1712    1.3870   -0.7361 C   0  0  0  0  0  0  0  0  0  0  0  0
   -2.5771    0.7323   -1.5067 H   0  0  0  0  0  0  0  0  0  0  0  0
   -2.7641    1.2697    0.1717 H   0  0  0  0  0  0  0  0  0  0  0  0
   -2.3349    3.0973   -1.3087 S   0  0  0  0  0  0  0  0  0  0  0  0
   -1.9108    3.9767    0.2173 C   0  0  0  0  0  0  0  0  0  0  0  0
   -0.8987    3.7122    0.5250 H   0  0  0  0  0  0  0  0  0  0  0  0
   -1.9633    5.0515    0.0416 H   0  0  0  0  0  0  0  0  0  0  0  0
   -2.6150    3.7072    1.0050 H   0  0  0  0  0  0  0  0  0  0  0  0
   -0.1711   -0.0594    1.8296 C   0  0  0  0  0  0  0  0  0  0  0  0
    0.9865   -0.2908    2.1726 O   0  0  0  0  0  0  0  0  0  0  0  0
   -1.0921    0.4156    2.6780 N   0  0  0  0  0  0  0  0  0  0  0  0
   -2.0168    0.5953    2.3206 H   0  0  0  0  0  0  0  0  0  0  0  0
   -0.8319    0.7034    4.0877 C   0  0  0  0  0  0  0  0  0  0  0  0
   -0.0192    1.4288    4.1710 H   0  0  0  0  0  0  0  0  0  0  0  0
   -1.7255    1.1088    4.5641 H   0  0  0  0  0  0  0  0  0  0  0  0
   -0.5319   -0.2118    4.6011 H   0  0  0  0  0  0  0  0  0  0  0  0
  5  6  2  0  0  0  0
  5  7  1  0  0  0  0
  2  3  1  0  0  0  0
  2  4  1  0  0  0  0
  2  5  1  0  0  0  0
  1  2  1  0  0  0  0
 22 23  2  0  0  0  0
 22 24  1  0  0  0  0
 18 19  1  0  0  0  0
 18 20  1  0  0  0  0
 18 21  1  0  0  0  0
 17 18  1  0  0  0  0
 14 15  1  0  0  0  0
 14 16  1  0  0  0  0
 14 17  1  0  0  0  0
 11 12  1  0  0  0  0
 11 13  1  0  0  0  0
 11 14  1  0  0  0  0
  9 10  1  0  0  0  0
  9 11  1  0  0  0  0
  9 22  1  0  0  0  0
  7  8  1  0  0  0  0
  7  9  1  0  0  0  0
 26 27  1  0  0  0  0
 26 28  1  0  0  0  0
 26 29  1  0  0  0  0
 24 25  1  0  0  0  0
 24 26  1  0  0  0  0
M  END
$$$$
default_name
  -OEChem-02102213163D

 29 28  0     1  0  0  0  0  0999 V2000
   -3.5781   -3.7296    1.2702 H   0  0  0  0  0  0  0  0  0  0  0  0
   -3.5311   -2.7616    0.7732 C   0  0  0  0  0  0  0  0  0  0  0  0
   -4.2371   -2.0766    1.2382 H   0  0  0  0  0  0  0  0  0  0  0  0
   -3.7681   -2.8816   -0.2818 H   0  0  0  0  0  0  0  0  0  0  0  0
   -2.1321   -2.2086    0.9112 C   0  0  0  0  0  0  0  0  0  0  0  0
   -1.2751   -2.8426    1.5112 O   0  0  0  0  0  0  0  0  0  0  0  0
   -1.9041   -1.0186    0.3602 N   0  0  0  0  0  0  0  0  0  0  0  0
   -2.6671   -0.5416   -0.0988 H   0  0  0  0  0  0  0  0  0  0  0  0
   -0.6131   -0.3236    0.3832 C   0  0  1  0  0  0  0  0  0  0  0  0
    0.1346   -0.9625   -0.0894 H   0  0  0  0  0  0  0  0  0  0  0  0
   -0.7253    0.9751   -0.4365 C   0  0  0  0  0  0  0  0  0  0  0  0
   -0.0306    1.7107   -0.0255 H   0  0  0  0  0  0  0  0  0  0  0  0
   -0.4376    0.7745   -1.4695 H   0  0  0  0  0  0  0  0  0  0  0  0
   -2.1321    1.5842   -0.4292 C   0  0  0  0  0  0  0  0  0  0  0  0
   -2.8365    0.8618   -0.8406 H   0  0  0  0  0  0  0  0  0  0  0  0
   -2.4144    1.8013    0.6016 H   0  0  0  0  0  0  0  0  0  0  0  0
   -2.2667    3.1117   -1.3926 S   0  0  0  0  0  0  0  0  0  0  0  0
   -1.2781    4.2201   -0.3554 C   0  0  0  0  0  0  0  0  0  0  0  0
   -0.2593    3.8393   -0.2773 H   0  0  0  0  0  0  0  0  0  0  0  0
   -1.2567    5.2130   -0.8056 H   0  0  0  0  0  0  0  0  0  0  0  0
   -1.7213    4.2865    0.6386 H   0  0  0  0  0  0  0  0  0  0  0  0
   -0.1711   -0.0594    1.8296 C   0  0  0  0  0  0  0  0  0  0  0  0
    0.9865   -0.2908    2.1726 O   0  0  0  0  0  0  0  0  0  0  0  0
   -1.0921    0.4156    2.6780 N   0  0  0  0  0  0  0  0  0  0  0  0
   -2.0168    0.5953    2.3206 H   0  0  0  0  0  0  0  0  0  0  0  0
   -0.8319    0.7034    4.0877 C   0  0  0  0  0  0  0  0  0  0  0  0
   -0.0192    1.4288    4.1710 H   0  0  0  0  0  0  0  0  0  0  0  0
   -1.7255    1.1088    4.5641 H   0  0  0  0  0  0  0  0  0  0  0  0
   -0.5319   -0.2118    4.6011 H   0  0  0  0  0  0  0  0  0  0  0  0
  5  6  2  0  0  0  0
  5  7  1  0  0  0  0
  2  3  1  0  0  0  0
  2  4  1  0  0  0  0
  2  5  1  0  0  0  0
  1  2  1  0  0  0  0
 22 23  2  0  0  0  0
 22 24  1  0  0  0  0
 18 19  1  0  0  0  0
 18 20  1  0  0  0  0
 18 21  1  0  0  0  0
 17 18  1  0  0  0  0
 14 15  1  0  0  0  0
 14 16  1  0  0  0  0
 14 17  1  0  0  0  0
 11 12  1  0  0  0  0
 11 13  1  0  0  0  0
 11 14  1  0  0  0  0
  9 10  1  0  0  0  0
  9 11  1  0  0  0  0
  9 22  1  0  0  0  0
  7  8  1  0  0  0  0
  7  9  1  0  0  0  0
 26 27  1  0  0  0  0
 26 28  1  0  0  0  0
 26 29  1  0  0  0  0
 24 25  1  0  0  0  0
 24 26  1  0  0  0  0
M  END
$$$$
default_name
  -OEChem-02102213163D

 29 28  0     1  0  0  0  0  0999 V2000
   -3.5781   -3.7296    1.2702 H   0  0  0  0  0  0  0  0  0  0  0  0
   -3.5311   -2.7616    0.7732 C   0  0  0  0  0  0  0  0  0  0  0  0
   -4.2371   -2.0766    1.2382 H   0  0  0  0  0  0  0  0  0  0  0  0
   -3.7681   -2.8816   -0.2818 H   0  0  0  0  0  0  0  0  0  0  0  0
   -2.1321   -2.2086    0.9112 C   0  0  0  0  0  0  0  0  0  0  0  0
   -1.2751   -2.8426    1.5112 O   0  0  0  0  0  0  0  0  0  0  0  0
   -1.9041   -1.0186    0.3602 N   0  0  0  0  0  0  0  0  0  0  0  0
   -2.6671   -0.5416   -0.0988 H   0  0  0  0  0  0  0  0  0  0  0  0
   -0.6131   -0.3236    0.3832 C   0  0  1  0  0  0  0  0  0  0  0  0
    0.1346   -0.9625   -0.0894 H   0  0  0  0  0  0  0  0  0  0  0  0
   -0.7253    0.9751   -0.4365 C   0  0  0  0  0  0  0  0  0  0  0  0
   -0.0306    1.7107   -0.0255 H   0  0  0  0  0  0  0  0  0  0  0  0
   -0.4376    0.7745   -1.4695 H   0  0  0  0  0  0  0  0  0  0  0  0
   -2.1321    1.5842   -0.4292 C   0  0  0  0  0  0  0  0  0  0  0  0
   -2.8651    0.7927   -0.5825 H   0  0  0  0  0  0  0  0  0  0  0  0
   -2.3100    2.0431    0.5440 H   0  0  0  0  0  0  0  0  0  0  0  0
   -2.3858    2.8405   -1.7086 S   0  0  0  0  0  0  0  0  0  0  0  0
   -1.3111    4.1525   -1.0718 C   0  0  0  0  0  0  0  0  0  0  0  0
   -0.2846    3.7897   -1.0108 H   0  0  0  0  0  0  0  0  0  0  0  0
   -1.3496    5.0096   -1.7446 H   0  0  0  0  0  0  0  0  0  0  0  0
   -1.6508    4.4580   -0.0818 H   0  0  0  0  0  0  0  0  0  0  0  0
   -0.1711   -0.0594    1.8296 C   0  0  0  0  0  0  0  0  0  0  0  0
    0.9865   -0.2908    2.1726 O   0  0  0  0  0  0  0  0  0  0  0  0
   -1.0921    0.4156    2.6780 N   0  0  0  0  0  0  0  0  0  0  0  0
   -2.0168    0.5953    2.3206 H   0  0  0  0  0  0  0  0  0  0  0  0
   -0.8319    0.7034    4.0877 C   0  0  0  0  0  0  0  0  0  0  0  0
   -0.0192    1.4288    4.1710 H   0  0  0  0  0  0  0  0  0  0  0  0
   -1.7255    1.1088    4.5641 H   0  0  0  0  0  0  0  0  0  0  0  0
   -0.5319   -0.2118    4.6011 H   0  0  0  0  0  0  0  0  0  0  0  0
  5  6  2  0  0  0  0
  5  7  1  0  0  0  0
  2  3  1  0  0  0  0
  2  4  1  0  0  0  0
  2  5  1  0  0  0  0
  1  2  1  0  0  0  0
 22 23  2  0  0  0  0
 22 24  1  0  0  0  0
 18 19  1  0  0  0  0
 18 20  1  0  0  0  0
 18 21  1  0  0  0  0
 17 18  1  0  0  0  0
 14 15  1  0  0  0  0
 14 16  1  0  0  0  0
 14 17  1  0  0  0  0
 11 12  1  0  0  0  0
 11 13  1  0  0  0  0
 11 14  1  0  0  0  0
  9 10  1  0  0  0  0
  9 11  1  0  0  0  0
  9 22  1  0  0  0  0
  7  8  1  0  0  0  0
  7  9  1  0  0  0  0
 26 27  1  0  0  0  0
 26 28  1  0  0  0  0
 26 29  1  0  0  0  0
 24 25  1  0  0  0  0
 24 26  1  0  0  0  0
M  END
$$$$
default_name
  -OEChem-02102213163D

 29 28  0     1  0  0  0  0  0999 V2000
   -3.5781   -3.7296    1.2702 H   0  0  0  0  0  0  0  0  0  0  0  0
   -3.5311   -2.7616    0.7732 C   0  0  0  0  0  0  0  0  0  0  0  0
   -4.2371   -2.0766    1.2382 H   0  0  0  0  0  0  0  0  0  0  0  0
   -3.7681   -2.8816   -0.2818 H   0  0  0  0  0  0  0  0  0  0  0  0
   -2.1321   -2.2086    0.9112 C   0  0  0  0  0  0  0  0  0  0  0  0
   -1.2751   -2.8426    1.5112 O   0  0  0  0  0  0  0  0  0  0  0  0
   -1.9041   -1.0186    0.3602 N   0  0  0  0  0  0  0  0  0  0  0  0
   -2.6671   -0.5416   -0.0988 H   0  0  0  0  0  0  0  0  0  0  0  0
   -0.6131   -0.3236    0.3832 C   0  0  1  0  0  0  0  0  0  0  0  0
    0.1346   -0.9625   -0.0894 H   0  0  0  0  0  0  0  0  0  0  0  0
   -0.7253    0.9751   -0.4365 C   0  0  0  0  0  0  0  0  0  0  0  0
   -0.0306    1.7107   -0.0255 H   0  0  0  0  0  0  0  0  0  0  0  0
   -0.4376    0.7745   -1.4695 H   0  0  0  0  0  0  0  0  0  0  0  0
   -2.1321    1.5842   -0.4292 C   0  0  0  0  0  0  0  0  0  0  0  0
   -2.8661    0.7872   -0.3138 H   0  0  0  0  0  0  0  0  0  0  0  0
   -2.2154    2.2631    0.4202 H   0  0  0  0  0  0  0  0  0  0  0  0
   -2.5330    2.5033   -1.9372 S   0  0  0  0  0  0  0  0  0  0  0  0
   -1.4166    3.9169   -1.7443 C   0  0  0  0  0  0  0  0  0  0  0  0
   -0.3844    3.5676   -1.7050 H   0  0  0  0  0  0  0  0  0  0  0  0
   -1.5357    4.5901   -2.5937 H   0  0  0  0  0  0  0  0  0  0  0  0
   -1.6569    4.4527   -0.8256 H   0  0  0  0  0  0  0  0  0  0  0  0
   -0.1711   -0.0594    1.8296 C   0  0  0  0  0  0  0  0  0  0  0  0
    0.9865   -0.2908    2.1726 O   0  0  0  0  0  0  0  0  0  0  0  0
   -1.0921    0.4156    2.6780 N   0  0  0  0  0  0  0  0  0  0  0  0
   -2.0168    0.5953    2.3206 H   0  0  0  0  0  0  0  0  0  0  0  0
   -0.8319    0.7034    4.0877 C   0  0  0  0  0  0  0  0  0  0  0  0
   -0.0192    1.4288    4.1710 H   0  0  0  0  0  0  0  0  0  0  0  0
   -1.7255    1.1088    4.5641 H   0  0  0  0  0  0  0  0  0  0  0  0
   -0.5319   -0.2118    4.6011 H   0  0  0  0  0  0  0  0  0  0  0  0
  5  6  2  0  0  0  0
  5  7  1  0  0  0  0
  2  3  1  0  0  0  0
  2  4  1  0  0  0  0
  2  5  1  0  0  0  0
  1  2  1  0  0  0  0
 22 23  2  0  0  0  0
 22 24  1  0  0  0  0
 18 19  1  0  0  0  0
 18 20  1  0  0  0  0
 18 21  1  0  0  0  0
 17 18  1  0  0  0  0
 14 15  1  0  0  0  0
 14 16  1  0  0  0  0
 14 17  1  0  0  0  0
 11 12  1  0  0  0  0
 11 13  1  0  0  0  0
 11 14  1  0  0  0  0
  9 10  1  0  0  0  0
  9 11  1  0  0  0  0
  9 22  1  0  0  0  0
  7  8  1  0  0  0  0
  7  9  1  0  0  0  0
 26 27  1  0  0  0  0
 26 28  1  0  0  0  0
 26 29  1  0  0  0  0
 24 25  1  0  0  0  0
 24 26  1  0  0  0  0
M  END
$$$$
default_name
  -OEChem-02102213163D

 29 28  0     1  0  0  0  0  0999 V2000
   -3.5781   -3.7296    1.2702 H   0  0  0  0  0  0  0  0  0  0  0  0
   -3.5311   -2.7616    0.7732 C   0  0  0  0  0  0  0  0  0  0  0  0
   -4.2371   -2.0766    1.2382 H   0  0  0  0  0  0  0  0  0  0  0  0
   -3.7681   -2.8816   -0.2818 H   0  0  0  0  0  0  0  0  0  0  0  0
   -2.1321   -2.2086    0.9112 C   0  0  0  0  0  0  0  0  0  0  0  0
   -1.2751   -2.8426    1.5112 O   0  0  0  0  0  0  0  0  0  0  0  0
   -1.9041   -1.0186    0.3602 N   0  0  0  0  0  0  0  0  0  0  0  0
   -2.6671   -0.5416   -0.0988 H   0  0  0  0  0  0  0  0  0  0  0  0
   -0.6131   -0.3236    0.3832 C   0  0  1  0  0  0  0  0  0  0  0  0
    0.1346   -0.9625   -0.0894 H   0  0  0  0  0  0  0  0  0  0  0  0
   -0.7253    0.9751   -0.4365 C   0  0  0  0  0  0  0  0  0  0  0  0
   -0.0306    1.7107   -0.0255 H   0  0  0  0  0  0  0  0  0  0  0  0
   -0.4376    0.7745   -1.4695 H   0  0  0  0  0  0  0  0  0  0  0  0
   -2.1321    1.5842   -0.4292 C   0  0  0  0  0  0  0  0  0  0  0  0
   -2.8394    0.8457   -0.0530 H   0  0  0  0  0  0  0  0  0  0  0  0
   -2.1370    2.4464    0.2386 H   0  0  0  0  0  0  0  0  0  0  0  0
   -2.6982    2.1232   -2.0628 S   0  0  0  0  0  0  0  0  0  0  0  0
   -1.5874    3.5295   -2.3270 C   0  0  0  0  0  0  0  0  0  0  0  0
   -0.5519    3.1880   -2.3124 H   0  0  0  0  0  0  0  0  0  0  0  0
   -1.8022    3.9829   -3.2951 H   0  0  0  0  0  0  0  0  0  0  0  0
   -1.7394    4.2709   -1.5421 H   0  0  0  0  0  0  0  0  0  0  0  0
   -0.1711   -0.0594    1.8296 C   0  0  0  0  0  0  0  0  0  0  0  0
    0.9865   -0.2908    2.1726 O   0  0  0  0  0  0  0  0  0  0  0  0
   -1.0921    0.4156    2.6780 N   0  0  0  0  0  0  0  0  0  0  0  0
   -2.0168    0.5953    2.3206 H   0  0  0  0  0  0  0  0  0  0  0  0
   -0.8319    0.7034    4.0877 C   0  0  0  0  0  0  0  0  0  0  0  0
   -0.0192    1.4288    4.1710 H   0  0  0  0  0  0  0  0  0  0  0  0
   -1.7255    1.1088    4.5641 H   0  0  0  0  0  0  0  0  0  0  0  0
   -0.5319   -0.2118    4.6011 H   0  0  0  0  0  0  0  0  0  0  0  0
  5  6  2  0  0  0  0
  5  7  1  0  0  0  0
  2  3  1  0  0  0  0
  2  4  1  0  0  0  0
  2  5  1  0  0  0  0
  1  2  1  0  0  0  0
 22 23  2  0  0  0  0
 22 24  1  0  0  0  0
 18 19  1  0  0  0  0
 18 20  1  0  0  0  0
 18 21  1  0  0  0  0
 17 18  1  0  0  0  0
 14 15  1  0  0  0  0
 14 16  1  0  0  0  0
 14 17  1  0  0  0  0
 11 12  1  0  0  0  0
 11 13  1  0  0  0  0
 11 14  1  0  0  0  0
  9 10  1  0  0  0  0
  9 11  1  0  0  0  0
  9 22  1  0  0  0  0
  7  8  1  0  0  0  0
  7  9  1  0  0  0  0
 26 27  1  0  0  0  0
 26 28  1  0  0  0  0
 26 29  1  0  0  0  0
 24 25  1  0  0  0  0
 24 26  1  0  0  0  0
M  END
$$$$
default_name
  -OEChem-02102213163D

 29 28  0     1  0  0  0  0  0999 V2000
   -3.5781   -3.7296    1.2702 H   0  0  0  0  0  0  0  0  0  0  0  0
   -3.5311   -2.7616    0.7732 C   0  0  0  0  0  0  0  0  0  0  0  0
   -4.2371   -2.0766    1.2382 H   0  0  0  0  0  0  0  0  0  0  0  0
   -3.7681   -2.8816   -0.2818 H   0  0  0  0  0  0  0  0  0  0  0  0
   -2.1321   -2.2086    0.9112 C   0  0  0  0  0  0  0  0  0  0  0  0
   -1.2751   -2.8426    1.5112 O   0  0  0  0  0  0  0  0  0  0  0  0
   -1.9041   -1.0186    0.3602 N   0  0  0  0  0  0  0  0  0  0  0  0
   -2.6671   -0.5416   -0.0988 H   0  0  0  0  0  0  0  0  0  0  0  0
   -0.6131   -0.3236    0.3832 C   0  0  1  0  0  0  0  0  0  0  0  0
    0.1346   -0.9625   -0.0894 H   0  0  0  0  0  0  0  0  0  0  0  0
   -0.7253    0.9751   -0.4365 C   0  0  0  0  0  0  0  0  0  0  0  0
   -0.0306    1.7107   -0.0255 H   0  0  0  0  0  0  0  0  0  0  0  0
   -0.4376    0.7745   -1.4695 H   0  0  0  0  0  0  0  0  0  0  0  0
   -2.1321    1.5842   -0.4292 C   0  0  0  0  0  0  0  0  0  0  0  0
   -2.7869    0.9641    0.1824 H   0  0  0  0  0  0  0  0  0  0  0  0
   -2.0802    2.5803    0.0117 H   0  0  0  0  0  0  0  0  0  0  0  0
   -2.8703    1.7259   -2.0768 S   0  0  0  0  0  0  0  0  0  0  0  0
   -1.8118    3.0167   -2.7804 C   0  0  0  0  0  0  0  0  0  0  0  0
   -0.7757    2.6769   -2.7918 H   0  0  0  0  0  0  0  0  0  0  0  0
   -2.1311    3.2295   -3.8010 H   0  0  0  0  0  0  0  0  0  0  0  0
   -1.8925    3.9250   -2.1826 H   0  0  0  0  0  0  0  0  0  0  0  0
   -0.1711   -0.0594    1.8296 C   0  0  0  0  0  0  0  0  0  0  0  0
    0.9865   -0.2908    2.1726 O   0  0  0  0  0  0  0  0  0  0  0  0
   -1.0921    0.4156    2.6780 N   0  0  0  0  0  0  0  0  0  0  0  0
   -2.0168    0.5953    2.3206 H   0  0  0  0  0  0  0  0  0  0  0  0
   -0.8319    0.7034    4.0877 C   0  0  0  0  0  0  0  0  0  0  0  0
   -0.0192    1.4288    4.1710 H   0  0  0  0  0  0  0  0  0  0  0  0
   -1.7255    1.1088    4.5641 H   0  0  0  0  0  0  0  0  0  0  0  0
   -0.5319   -0.2118    4.6011 H   0  0  0  0  0  0  0  0  0  0  0  0
  5  6  2  0  0  0  0
  5  7  1  0  0  0  0
  2  3  1  0  0  0  0
  2  4  1  0  0  0  0
  2  5  1  0  0  0  0
  1  2  1  0  0  0  0
 22 23  2  0  0  0  0
 22 24  1  0  0  0  0
 18 19  1  0  0  0  0
 18 20  1  0  0  0  0
 18 21  1  0  0  0  0
 17 18  1  0  0  0  0
 14 15  1  0  0  0  0
 14 16  1  0  0  0  0
 14 17  1  0  0  0  0
 11 12  1  0  0  0  0
 11 13  1  0  0  0  0
 11 14  1  0  0  0  0
  9 10  1  0  0  0  0
  9 11  1  0  0  0  0
  9 22  1  0  0  0  0
  7  8  1  0  0  0  0
  7  9  1  0  0  0  0
 26 27  1  0  0  0  0
 26 28  1  0  0  0  0
 26 29  1  0  0  0  0
 24 25  1  0  0  0  0
 24 26  1  0  0  0  0
M  END
$$$$
default_name
  -OEChem-02102213163D

 29 28  0     1  0  0  0  0  0999 V2000
   -3.5781   -3.7296    1.2702 H   0  0  0  0  0  0  0  0  0  0  0  0
   -3.5311   -2.7616    0.7732 C   0  0  0  0  0  0  0  0  0  0  0  0
   -4.2371   -2.0766    1.2382 H   0  0  0  0  0  0  0  0  0  0  0  0
   -3.7681   -2.8816   -0.2818 H   0  0  0  0  0  0  0  0  0  0  0  0
   -2.1321   -2.2086    0.9112 C   0  0  0  0  0  0  0  0  0  0  0  0
   -1.2751   -2.8426    1.5112 O   0  0  0  0  0  0  0  0  0  0  0  0
   -1.9041   -1.0186    0.3602 N   0  0  0  0  0  0  0  0  0  0  0  0
   -2.6671   -0.5416   -0.0988 H   0  0  0  0  0  0  0  0  0  0  0  0
   -0.6131   -0.3236    0.3832 C   0  0  1  0  0  0  0  0  0  0  0  0
    0.1346   -0.9625   -0.0894 H   0  0  0  0  0  0  0  0  0  0  0  0
   -0.7253    0.9751   -0.4365 C   0  0  0  0  0  0  0  0  0  0  0  0
   -0.0306    1.7107   -0.0255 H   0  0  0  0  0  0  0  0  0  0  0  0
   -0.4376    0.7745   -1.4695 H   0  0  0  0  0  0  0  0  0  0  0  0
   -2.1321    1.5842   -0.4292 C   0  0  0  0  0  0  0  0  0  0  0  0
   -2.7121    1.1345    0.3762 H   0  0  0  0  0  0  0  0  0  0  0  0
   -2.0488    2.6559   -0.2452 H   0  0  0  0  0  0  0  0  0  0  0  0
   -3.0375    1.3387   -1.9783 S   0  0  0  0  0  0  0  0  0  0  0  0
   -2.0745    2.4135   -3.0734 C   0  0  0  0  0  0  0  0  0  0  0  0
   -1.0406    2.0691   -3.1105 H   0  0  0  0  0  0  0  0  0  0  0  0
   -2.4998    2.3812   -4.0769 H   0  0  0  0  0  0  0  0  0  0  0  0
   -2.1058    3.4386   -2.7034 H   0  0  0  0  0  0  0  0  0  0  0  0
   -0.1711   -0.0594    1.8296 C   0  0  0  0  0  0  0  0  0  0  0  0
    0.9865   -0.2908    2.1726 O   0  0  0  0  0  0  0  0  0  0  0  0
   -1.0921    0.4156    2.6780 N   0  0  0  0  0  0  0  0  0  0  0  0
   -2.0168    0.5953    2.3206 H   0  0  0  0  0  0  0  0  0  0  0  0
   -0.8319    0.7034    4.0877 C   0  0  0  0  0  0  0  0  0  0  0  0
   -0.0192    1.4288    4.1710 H   0  0  0  0  0  0  0  0  0  0  0  0
   -1.7255    1.1088    4.5641 H   0  0  0  0  0  0  0  0  0  0  0  0
   -0.5319   -0.2118    4.6011 H   0  0  0  0  0  0  0  0  0  0  0  0
  5  6  2  0  0  0  0
  5  7  1  0  0  0  0
  2  3  1  0  0  0  0
  2  4  1  0  0  0  0
  2  5  1  0  0  0  0
  1  2  1  0  0  0  0
 22 23  2  0  0  0  0
 22 24  1  0  0  0  0
 18 19  1  0  0  0  0
 18 20  1  0  0  0  0
 18 21  1  0  0  0  0
 17 18  1  0  0  0  0
 14 15  1  0  0  0  0
 14 16  1  0  0  0  0
 14 17  1  0  0  0  0
 11 12  1  0  0  0  0
 11 13  1  0  0  0  0
 11 14  1  0  0  0  0
  9 10  1  0  0  0  0
  9 11  1  0  0  0  0
  9 22  1  0  0  0  0
  7  8  1  0  0  0  0
  7  9  1  0  0  0  0
 26 27  1  0  0  0  0
 26 28  1  0  0  0  0
 26 29  1  0  0  0  0
 24 25  1  0  0  0  0
 24 26  1  0  0  0  0
M  END
$$$$
default_name
  -OEChem-02102213163D

 29 28  0     1  0  0  0  0  0999 V2000
   -3.5781   -3.7296    1.2702 H   0  0  0  0  0  0  0  0  0  0  0  0
   -3.5311   -2.7616    0.7732 C   0  0  0  0  0  0  0  0  0  0  0  0
   -4.2371   -2.0766    1.2382 H   0  0  0  0  0  0  0  0  0  0  0  0
   -3.7681   -2.8816   -0.2818 H   0  0  0  0  0  0  0  0  0  0  0  0
   -2.1321   -2.2086    0.9112 C   0  0  0  0  0  0  0  0  0  0  0  0
   -1.2751   -2.8426    1.5112 O   0  0  0  0  0  0  0  0  0  0  0  0
   -1.9041   -1.0186    0.3602 N   0  0  0  0  0  0  0  0  0  0  0  0
   -2.6671   -0.5416   -0.0988 H   0  0  0  0  0  0  0  0  0  0  0  0
   -0.6131   -0.3236    0.3832 C   0  0  1  0  0  0  0  0  0  0  0  0
    0.1346   -0.9625   -0.0894 H   0  0  0  0  0  0  0  0  0  0  0  0
   -0.7253    0.9751   -0.4365 C   0  0  0  0  0  0  0  0  0  0  0  0
   -0.0306    1.7107   -0.0255 H   0  0  0  0  0  0  0  0  0  0  0  0
   -0.4376    0.7745   -1.4695 H   0  0  0  0  0  0  0  0  0  0  0  0
   -2.1321    1.5842   -0.4292 C   0  0  0  0  0  0  0  0  0  0  0  0
   -2.6201    1.3453    0.5153 H   0  0  0  0  0  0  0  0  0  0  0  0
   -2.0450    2.6679   -0.5146 H   0  0  0  0  0  0  0  0  0  0  0  0
   -3.1883    0.9878   -1.7740 S   0  0  0  0  0  0  0  0  0  0  0  0
   -2.3576    1.7608   -3.1862 C   0  0  0  0  0  0  0  0  0  0  0  0
   -1.3284    1.4059   -3.2467 H   0  0  0  0  0  0  0  0  0  0  0  0
   -2.8833    1.4959   -4.1040 H   0  0  0  0  0  0  0  0  0  0  0  0
   -2.3648    2.8448   -3.0689 H   0  0  0  0  0  0  0  0  0  0  0  0
   -0.1711   -0.0594    1.8296 C   0  0  0  0  0  0  0  0  0  0  0  0
    0.9865   -0.2908    2.1726 O   0  0  0  0  0  0  0  0  0  0  0  0
   -1.0921    0.4156    2.6780 N   0  0  0  0  0  0  0  0  0  0  0  0
   -2.0168    0.5953    2.3206 H   0  0  0  0  0  0  0  0  0  0  0  0
   -0.8319    0.7034    4.0877 C   0  0  0  0  0  0  0  0  0  0  0  0
   -0.0192    1.4288    4.1710 H   0  0  0  0  0  0  0  0  0  0  0  0
   -1.7255    1.1088    4.5641 H   0  0  0  0  0  0  0  0  0  0  0  0
   -0.5319   -0.2118    4.6011 H   0  0  0  0  0  0  0  0  0  0  0  0
  5  6  2  0  0  0  0
  5  7  1  0  0  0  0
  2  3  1  0  0  0  0
  2  4  1  0  0  0  0
  2  5  1  0  0  0  0
  1  2  1  0  0  0  0
 22 23  2  0  0  0  0
 22 24  1  0  0  0  0
 18 19  1  0  0  0  0
 18 20  1  0  0  0  0
 18 21  1  0  0  0  0
 17 18  1  0  0  0  0
 14 15  1  0  0  0  0
 14 16  1  0  0  0  0
 14 17  1  0  0  0  0
 11 12  1  0  0  0  0
 11 13  1  0  0  0  0
 11 14  1  0  0  0  0
  9 10  1  0  0  0  0
  9 11  1  0  0  0  0
  9 22  1  0  0  0  0
  7  8  1  0  0  0  0
  7  9  1  0  0  0  0
 26 27  1  0  0  0  0
 26 28  1  0  0  0  0
 26 29  1  0  0  0  0
 24 25  1  0  0  0  0
 24 26  1  0  0  0  0
M  END
$$$$
default_name
  -OEChem-02102213163D

 29 28  0     1  0  0  0  0  0999 V2000
   -3.5781   -3.7296    1.2702 H   0  0  0  0  0  0  0  0  0  0  0  0
   -3.5311   -2.7616    0.7732 C   0  0  0  0  0  0  0  0  0  0  0  0
   -4.2371   -2.0766    1.2382 H   0  0  0  0  0  0  0  0  0  0  0  0
   -3.7681   -2.8816   -0.2818 H   0  0  0  0  0  0  0  0  0  0  0  0
   -2.1321   -2.2086    0.9112 C   0  0  0  0  0  0  0  0  0  0  0  0
   -1.2751   -2.8426    1.5112 O   0  0  0  0  0  0  0  0  0  0  0  0
   -1.9041   -1.0186    0.3602 N   0  0  0  0  0  0  0  0  0  0  0  0
   -2.6671   -0.5416   -0.0988 H   0  0  0  0  0  0  0  0  0  0  0  0
   -0.6131   -0.3236    0.3832 C   0  0  1  0  0  0  0  0  0  0  0  0
    0.1346   -0.9625   -0.0894 H   0  0  0  0  0  0  0  0  0  0  0  0
   -0.7253    0.9751   -0.4365 C   0  0  0  0  0  0  0  0  0  0  0  0
   -0.0306    1.7107   -0.0255 H   0  0  0  0  0  0  0  0  0  0  0  0
   -0.4376    0.7745   -1.4695 H   0  0  0  0  0  0  0  0  0  0  0  0
   -2.1321    1.5842   -0.4292 C   0  0  0  0  0  0  0  0  0  0  0  0
   -2.5172    1.5820    0.5901 H   0  0  0  0  0  0  0  0  0  0  0  0
   -2.0691    2.6156   -0.7780 H   0  0  0  0  0  0  0  0  0  0  0  0
   -3.3126    0.6973   -1.4778 S   0  0  0  0  0  0  0  0  0  0  0  0
   -2.6419    1.1033   -3.1110 C   0  0  0  0  0  0  0  0  0  0  0  0
   -1.6196    0.7327   -3.1911 H   0  0  0  0  0  0  0  0  0  0  0  0
   -3.2554    0.6337   -3.8805 H   0  0  0  0  0  0  0  0  0  0  0  0
   -2.6518    2.1841   -3.2543 H   0  0  0  0  0  0  0  0  0  0  0  0
   -0.1711   -0.0594    1.8296 C   0  0  0  0  0  0  0  0  0  0  0  0
    0.9865   -0.2908    2.1726 O   0  0  0  0  0  0  0  0  0  0  0  0
   -1.0921    0.4156    2.6780 N   0  0  0  0  0  0  0  0  0  0  0  0
   -2.0168    0.5953    2.3206 H   0  0  0  0  0  0  0  0  0  0  0  0
   -0.8319    0.7034    4.0877 C   0  0  0  0  0  0  0  0  0  0  0  0
   -0.0192    1.4288    4.1710 H   0  0  0  0  0  0  0  0  0  0  0  0
   -1.7255    1.1088    4.5641 H   0  0  0  0  0  0  0  0  0  0  0  0
   -0.5319   -0.2118    4.6011 H   0  0  0  0  0  0  0  0  0  0  0  0
  5  6  2  0  0  0  0
  5  7  1  0  0  0  0
  2  3  1  0  0  0  0
  2  4  1  0  0  0  0
  2  5  1  0  0  0  0
  1  2  1  0  0  0  0
 22 23  2  0  0  0  0
 22 24  1  0  0  0  0
 18 19  1  0  0  0  0
 18 20  1  0  0  0  0
 18 21  1  0  0  0  0
 17 18  1  0  0  0  0
 14 15  1  0  0  0  0
 14 16  1  0  0  0  0
 14 17  1  0  0  0  0
 11 12  1  0  0  0  0
 11 13  1  0  0  0  0
 11 14  1  0  0  0  0
  9 10  1  0  0  0  0
  9 11  1  0  0  0  0
  9 22  1  0  0  0  0
  7  8  1  0  0  0  0
  7  9  1  0  0  0  0
 26 27  1  0  0  0  0
 26 28  1  0  0  0  0
 26 29  1  0  0  0  0
 24 25  1  0  0  0  0
 24 26  1  0  0  0  0
M  END
$$$$
default_name
  -OEChem-02102213163D

 29 28  0     1  0  0  0  0  0999 V2000
   -3.5781   -3.7296    1.2702 H   0  0  0  0  0  0  0  0  0  0  0  0
   -3.5311   -2.7616    0.7732 C   0  0  0  0  0  0  0  0  0  0  0  0
   -4.2371   -2.0766    1.2382 H   0  0  0  0  0  0  0  0  0  0  0  0
   -3.7681   -2.8816   -0.2818 H   0  0  0  0  0  0  0  0  0  0  0  0
   -2.1321   -2.2086    0.9112 C   0  0  0  0  0  0  0  0  0  0  0  0
   -1.2751   -2.8426    1.5112 O   0  0  0  0  0  0  0  0  0  0  0  0
   -1.9041   -1.0186    0.3602 N   0  0  0  0  0  0  0  0  0  0  0  0
   -2.6671   -0.5416   -0.0988 H   0  0  0  0  0  0  0  0  0  0  0  0
   -0.6131   -0.3236    0.3832 C   0  0  1  0  0  0  0  0  0  0  0  0
    0.1346   -0.9625   -0.0894 H   0  0  0  0  0  0  0  0  0  0  0  0
   -0.7253    0.9751   -0.4365 C   0  0  0  0  0  0  0  0  0  0  0  0
   -0.0306    1.7107   -0.0255 H   0  0  0  0  0  0  0  0  0  0  0  0
   -0.4376    0.7745   -1.4695 H   0  0  0  0  0  0  0  0  0  0  0  0
   -2.1321    1.5842   -0.4292 C   0  0  0  0  0  0  0  0  0  0  0  0
   -2.4105    1.8285    0.5955 H   0  0  0  0  0  0  0  0  0  0  0  0
   -2.1193    2.5024   -1.0175 H   0  0  0  0  0  0  0  0  0  0  0  0
   -3.4018    0.4868   -1.1099 S   0  0  0  0  0  0  0  0  0  0  0  0
   -2.9080    0.4856   -2.8529 C   0  0  0  0  0  0  0  0  0  0  0  0
   -1.8943    0.0952   -2.9476 H   0  0  0  0  0  0  0  0  0  0  0  0
   -3.5907   -0.1464   -3.4215 H   0  0  0  0  0  0  0  0  0  0  0  0
   -2.9473    1.5015   -3.2470 H   0  0  0  0  0  0  0  0  0  0  0  0
   -0.1711   -0.0594    1.8296 C   0  0  0  0  0  0  0  0  0  0  0  0
    0.9865   -0.2908    2.1726 O   0  0  0  0  0  0  0  0  0  0  0  0
   -1.0921    0.4156    2.6780 N   0  0  0  0  0  0  0  0  0  0  0  0
   -2.0168    0.5953    2.3206 H   0  0  0  0  0  0  0  0  0  0  0  0
   -0.8319    0.7034    4.0877 C   0  0  0  0  0  0  0  0  0  0  0  0
   -0.0192    1.4288    4.1710 H   0  0  0  0  0  0  0  0  0  0  0  0
   -1.7255    1.1088    4.5641 H   0  0  0  0  0  0  0  0  0  0  0  0
   -0.5319   -0.2118    4.6011 H   0  0  0  0  0  0  0  0  0  0  0  0
  5  6  2  0  0  0  0
  5  7  1  0  0  0  0
  2  3  1  0  0  0  0
  2  4  1  0  0  0  0
  2  5  1  0  0  0  0
  1  2  1  0  0  0  0
 22 23  2  0  0  0  0
 22 24  1  0  0  0  0
 18 19  1  0  0  0  0
 18 20  1  0  0  0  0
 18 21  1  0  0  0  0
 17 18  1  0  0  0  0
 14 15  1  0  0  0  0
 14 16  1  0  0  0  0
 14 17  1  0  0  0  0
 11 12  1  0  0  0  0
 11 13  1  0  0  0  0
 11 14  1  0  0  0  0
  9 10  1  0  0  0  0
  9 11  1  0  0  0  0
  9 22  1  0  0  0  0
  7  8  1  0  0  0  0
  7  9  1  0  0  0  0
 26 27  1  0  0  0  0
 26 28  1  0  0  0  0
 26 29  1  0  0  0  0
 24 25  1  0  0  0  0
 24 26  1  0  0  0  0
M  END
$$$$
default_name
  -OEChem-02102213163D

 29 28  0     1  0  0  0  0  0999 V2000
   -3.5781   -3.7296    1.2702 H   0  0  0  0  0  0  0  0  0  0  0  0
   -3.5311   -2.7616    0.7732 C   0  0  0  0  0  0  0  0  0  0  0  0
   -4.2371   -2.0766    1.2382 H   0  0  0  0  0  0  0  0  0  0  0  0
   -3.7681   -2.8816   -0.2818 H   0  0  0  0  0  0  0  0  0  0  0  0
   -2.1321   -2.2086    0.9112 C   0  0  0  0  0  0  0  0  0  0  0  0
   -1.2751   -2.8426    1.5112 O   0  0  0  0  0  0  0  0  0  0  0  0
   -1.9041   -1.0186    0.3602 N   0  0  0  0  0  0  0  0  0  0  0  0
   -2.6671   -0.5416   -0.0988 H   0  0  0  0  0  0  0  0  0  0  0  0
   -0.6131   -0.3236    0.3832 C   0  0  1  0  0  0  0  0  0  0  0  0
    0.1346   -0.9625   -0.0894 H   0  0  0  0  0  0  0  0  0  0  0  0
   -0.7253    0.9751   -0.4365 C   0  0  0  0  0  0  0  0  0  0  0  0
   -0.0306    1.7107   -0.0255 H   0  0  0  0  0  0  0  0  0  0  0  0
   -0.4376    0.7745   -1.4695 H   0  0  0  0  0  0  0  0  0  0  0  0
   -2.1321    1.5842   -0.4292 C   0  0  0  0  0  0  0  0  0  0  0  0
   -2.3071    2.0680    0.5313 H   0  0  0  0  0  0  0  0  0  0  0  0
   -2.1923    2.3361   -1.2168 H   0  0  0  0  0  0  0  0  0  0  0  0
   -3.4499    0.3708   -0.6954 S   0  0  0  0  0  0  0  0  0  0  0  0
   -3.1377   -0.0500   -2.4296 C   0  0  0  0  0  0  0  0  0  0  0  0
   -2.1339   -0.4631   -2.5327 H   0  0  0  0  0  0  0  0  0  0  0  0
   -3.8665   -0.7913   -2.7584 H   0  0  0  0  0  0  0  0  0  0  0  0
   -3.2312    0.8436   -3.0474 H   0  0  0  0  0  0  0  0  0  0  0  0
   -0.1711   -0.0594    1.8296 C   0  0  0  0  0  0  0  0  0  0  0  0
    0.9865   -0.2908    2.1726 O   0  0  0  0  0  0  0  0  0  0  0  0
   -1.0921    0.4156    2.6780 N   0  0  0  0  0  0  0  0  0  0  0  0
   -2.0168    0.5953    2.3206 H   0  0  0  0  0  0  0  0  0  0  0  0
   -0.8319    0.7034    4.0877 C   0  0  0  0  0  0  0  0  0  0  0  0
   -0.0192    1.4288    4.1710 H   0  0  0  0  0  0  0  0  0  0  0  0
   -1.7255    1.1088    4.5641 H   0  0  0  0  0  0  0  0  0  0  0  0
   -0.5319   -0.2118    4.6011 H   0  0  0  0  0  0  0  0  0  0  0  0
  5  6  2  0  0  0  0
  5  7  1  0  0  0  0
  2  3  1  0  0  0  0
  2  4  1  0  0  0  0
  2  5  1  0  0  0  0
  1  2  1  0  0  0  0
 22 23  2  0  0  0  0
 22 24  1  0  0  0  0
 18 19  1  0  0  0  0
 18 20  1  0  0  0  0
 18 21  1  0  0  0  0
 17 18  1  0  0  0  0
 14 15  1  0  0  0  0
 14 16  1  0  0  0  0
 14 17  1  0  0  0  0
 11 12  1  0  0  0  0
 11 13  1  0  0  0  0
 11 14  1  0  0  0  0
  9 10  1  0  0  0  0
  9 11  1  0  0  0  0
  9 22  1  0  0  0  0
  7  8  1  0  0  0  0
  7  9  1  0  0  0  0
 26 27  1  0  0  0  0
 26 28  1  0  0  0  0
 26 29  1  0  0  0  0
 24 25  1  0  0  0  0
 24 26  1  0  0  0  0
M  END
$$$$
default_name
  -OEChem-02102213163D

 29 28  0     1  0  0  0  0  0999 V2000
   -3.5781   -3.7296    1.2702 H   0  0  0  0  0  0  0  0  0  0  0  0
   -3.5311   -2.7616    0.7732 C   0  0  0  0  0  0  0  0  0  0  0  0
   -4.2371   -2.0766    1.2382 H   0  0  0  0  0  0  0  0  0  0  0  0
   -3.7681   -2.8816   -0.2818 H   0  0  0  0  0  0  0  0  0  0  0  0
   -2.1321   -2.2086    0.9112 C   0  0  0  0  0  0  0  0  0  0  0  0
   -1.2751   -2.8426    1.5112 O   0  0  0  0  0  0  0  0  0  0  0  0
   -1.9041   -1.0186    0.3602 N   0  0  0  0  0  0  0  0  0  0  0  0
   -2.6671   -0.5416   -0.0988 H   0  0  0  0  0  0  0  0  0  0  0  0
   -0.6131   -0.3236    0.3832 C   0  0  1  0  0  0  0  0  0  0  0  0
    0.1346   -0.9625   -0.0894 H   0  0  0  0  0  0  0  0  0  0  0  0
   -0.7253    0.9751   -0.4365 C   0  0  0  0  0  0  0  0  0  0  0  0
   -0.0306    1.7107   -0.0255 H   0  0  0  0  0  0  0  0  0  0  0  0
   -0.4376    0.7745   -1.4695 H   0  0  0  0  0  0  0  0  0  0  0  0
   -2.1321    1.5842   -0.4292 C   0  0  0  0  0  0  0  0  0  0  0  0
   -2.2141    2.2843    0.4017 H   0  0  0  0  0  0  0  0  0  0  0  0
   -2.2832    2.1281   -1.3623 H   0  0  0  0  0  0  0  0  0  0  0  0
   -3.4535    0.3571   -0.2625 S   0  0  0  0  0  0  0  0  0  0  0  0
   -3.3154   -0.4671   -1.8698 C   0  0  0  0  0  0  0  0  0  0  0  0
   -2.3219   -0.9040   -1.9748 H   0  0  0  0  0  0  0  0  0  0  0  0
   -4.0639   -1.2571   -1.9364 H   0  0  0  0  0  0  0  0  0  0  0  0
   -3.4840    0.2551   -2.6692 H   0  0  0  0  0  0  0  0  0  0  0  0
   -0.1711   -0.0594    1.8296 C   0  0  0  0  0  0  0  0  0  0  0  0
    0.9865   -0.2908    2.1726 O   0  0  0  0  0  0  0  0  0  0  0  0
   -1.0921    0.4156    2.6780 N   0  0  0  0  0  0  0  0  0  0  0  0
   -2.0168    0.5953    2.3206 H   0  0  0  0  0  0  0  0  0  0  0  0
   -0.8319    0.7034    4.0877 C   0  0  0  0  0  0  0  0  0  0  0  0
   -0.0192    1.4288    4.1710 H   0  0  0  0  0  0  0  0  0  0  0  0
   -1.7255    1.1088    4.5641 H   0  0  0  0  0  0  0  0  0  0  0  0
   -0.5319   -0.2118    4.6011 H   0  0  0  0  0  0  0  0  0  0  0  0
  5  6  2  0  0  0  0
  5  7  1  0  0  0  0
  2  3  1  0  0  0  0
  2  4  1  0  0  0  0
  2  5  1  0  0  0  0
  1  2  1  0  0  0  0
 22 23  2  0  0  0  0
 22 24  1  0  0  0  0
 18 19  1  0  0  0  0
 18 20  1  0  0  0  0
 18 21  1  0  0  0  0
 17 18  1  0  0  0  0
 14 15  1  0  0  0  0
 14 16  1  0  0  0  0
 14 17  1  0  0  0  0
 11 12  1  0  0  0  0
 11 13  1  0  0  0  0
 11 14  1  0  0  0  0
  9 10  1  0  0  0  0
  9 11  1  0  0  0  0
  9 22  1  0  0  0  0
  7  8  1  0  0  0  0
  7  9  1  0  0  0  0
 26 27  1  0  0  0  0
 26 28  1  0  0  0  0
 26 29  1  0  0  0  0
 24 25  1  0  0  0  0
 24 26  1  0  0  0  0
M  END
$$$$
default_name
  -OEChem-02102213163D

 29 28  0     1  0  0  0  0  0999 V2000
   -3.5781   -3.7296    1.2702 H   0  0  0  0  0  0  0  0  0  0  0  0
   -3.5311   -2.7616    0.7732 C   0  0  0  0  0  0  0  0  0  0  0  0
   -4.2371   -2.0766    1.2382 H   0  0  0  0  0  0  0  0  0  0  0  0
   -3.7681   -2.8816   -0.2818 H   0  0  0  0  0  0  0  0  0  0  0  0
   -2.1321   -2.2086    0.9112 C   0  0  0  0  0  0  0  0  0  0  0  0
   -1.2751   -2.8426    1.5112 O   0  0  0  0  0  0  0  0  0  0  0  0
   -1.9041   -1.0186    0.3602 N   0  0  0  0  0  0  0  0  0  0  0  0
   -2.6671   -0.5416   -0.0988 H   0  0  0  0  0  0  0  0  0  0  0  0
   -0.6131   -0.3236    0.3832 C   0  0  1  0  0  0  0  0  0  0  0  0
    0.1346   -0.9625   -0.0894 H   0  0  0  0  0  0  0  0  0  0  0  0
   -0.7253    0.9751   -0.4365 C   0  0  0  0  0  0  0  0  0  0  0  0
   -0.0306    1.7107   -0.0255 H   0  0  0  0  0  0  0  0  0  0  0  0
   -0.4376    0.7745   -1.4695 H   0  0  0  0  0  0  0  0  0  0  0  0
   -2.1321    1.5842   -0.4292 C   0  0  0  0  0  0  0  0  0  0  0  0
   -2.1380    2.4625    0.2156 H   0  0  0  0  0  0  0  0  0  0  0  0
   -2.3856    1.8925   -1.4441 H   0  0  0  0  0  0  0  0  0  0  0  0
   -3.4125    0.4467    0.1593 S   0  0  0  0  0  0  0  0  0  0  0  0
   -3.4289   -0.7372   -1.2118 C   0  0  0  0  0  0  0  0  0  0  0  0
   -2.4456   -1.1977   -1.3118 H   0  0  0  0  0  0  0  0  0  0  0  0
   -4.1695   -1.5120   -1.0115 H   0  0  0  0  0  0  0  0  0  0  0  0
   -3.6886   -0.2238   -2.1380 H   0  0  0  0  0  0  0  0  0  0  0  0
   -0.1711   -0.0594    1.8296 C   0  0  0  0  0  0  0  0  0  0  0  0
    0.9865   -0.2908    2.1726 O   0  0  0  0  0  0  0  0  0  0  0  0
   -1.0921    0.4156    2.6780 N   0  0  0  0  0  0  0  0  0  0  0  0
   -2.0168    0.5953    2.3206 H   0  0  0  0  0  0  0  0  0  0  0  0
   -0.8319    0.7034    4.0877 C   0  0  0  0  0  0  0  0  0  0  0  0
   -0.0192    1.4288    4.1710 H   0  0  0  0  0  0  0  0  0  0  0  0
   -1.7255    1.1088    4.5641 H   0  0  0  0  0  0  0  0  0  0  0  0
   -0.5319   -0.2118    4.6011 H   0  0  0  0  0  0  0  0  0  0  0  0
  5  6  2  0  0  0  0
  5  7  1  0  0  0  0
  2  3  1  0  0  0  0
  2  4  1  0  0  0  0
  2  5  1  0  0  0  0
  1  2  1  0  0  0  0
 22 23  2  0  0  0  0
 22 24  1  0  0  0  0
 18 19  1  0  0  0  0
 18 20  1  0  0  0  0
 18 21  1  0  0  0  0
 17 18  1  0  0  0  0
 14 15  1  0  0  0  0
 14 16  1  0  0  0  0
 14 17  1  0  0  0  0
 11 12  1  0  0  0  0
 11 13  1  0  0  0  0
 11 14  1  0  0  0  0
  9 10  1  0  0  0  0
  9 11  1  0  0  0  0
  9 22  1  0  0  0  0
  7  8  1  0  0  0  0
  7  9  1  0  0  0  0
 26 27  1  0  0  0  0
 26 28  1  0  0  0  0
 26 29  1  0  0  0  0
 24 25  1  0  0  0  0
 24 26  1  0  0  0  0
M  END
$$$$
default_name
  -OEChem-02102213163D

 29 28  0     1  0  0  0  0  0999 V2000
   -3.5781   -3.7296    1.2702 H   0  0  0  0  0  0  0  0  0  0  0  0
   -3.5311   -2.7616    0.7732 C   0  0  0  0  0  0  0  0  0  0  0  0
   -4.2371   -2.0766    1.2382 H   0  0  0  0  0  0  0  0  0  0  0  0
   -3.7681   -2.8816   -0.2818 H   0  0  0  0  0  0  0  0  0  0  0  0
   -2.1321   -2.2086    0.9112 C   0  0  0  0  0  0  0  0  0  0  0  0
   -1.2751   -2.8426    1.5112 O   0  0  0  0  0  0  0  0  0  0  0  0
   -1.9041   -1.0186    0.3602 N   0  0  0  0  0  0  0  0  0  0  0  0
   -2.6671   -0.5416   -0.0988 H   0  0  0  0  0  0  0  0  0  0  0  0
   -0.6131   -0.3236    0.3832 C   0  0  1  0  0  0  0  0  0  0  0  0
    0.1346   -0.9625   -0.0894 H   0  0  0  0  0  0  0  0  0  0  0  0
   -0.7253    0.9751   -0.4365 C   0  0  0  0  0  0  0  0  0  0  0  0
   -0.0306    1.7107   -0.0255 H   0  0  0  0  0  0  0  0  0  0  0  0
   -0.4376    0.7745   -1.4695 H   0  0  0  0  0  0  0  0  0  0  0  0
   -2.1321    1.5842   -0.4292 C   0  0  0  0  0  0  0  0  0  0  0  0
   -2.0837    2.5905   -0.0143 H   0  0  0  0  0  0  0  0  0  0  0  0
   -2.4927    1.6454   -1.4566 H   0  0  0  0  0  0  0  0  0  0  0  0
   -3.3297    0.6334    0.5412 S   0  0  0  0  0  0  0  0  0  0  0  0
   -3.4706   -0.8421   -0.5004 C   0  0  0  0  0  0  0  0  0  0  0  0
   -2.4965   -1.3241   -0.5889 H   0  0  0  0  0  0  0  0  0  0  0  0
   -4.1760   -1.5388   -0.0466 H   0  0  0  0  0  0  0  0  0  0  0  0
   -3.8310   -0.5605   -1.4902 H   0  0  0  0  0  0  0  0  0  0  0  0
   -0.1711   -0.0594    1.8296 C   0  0  0  0  0  0  0  0  0  0  0  0
    0.9865   -0.2908    2.1726 O   0  0  0  0  0  0  0  0  0  0  0  0
   -1.0921    0.4156    2.6780 N   0  0  0  0  0  0  0  0  0  0  0  0
   -2.0168    0.5953    2.3206 H   0  0  0  0  0  0  0  0  0  0  0  0
   -0.8319    0.7034    4.0877 C   0  0  0  0  0  0  0  0  0  0  0  0
   -0.0192    1.4288    4.1710 H   0  0  0  0  0  0  0  0  0  0  0  0
   -1.7255    1.1088    4.5641 H   0  0  0  0  0  0  0  0  0  0  0  0
   -0.5319   -0.2118    4.6011 H   0  0  0  0  0  0  0  0  0  0  0  0
  5  6  2  0  0  0  0
  5  7  1  0  0  0  0
  2  3  1  0  0  0  0
  2  4  1  0  0  0  0
  2  5  1  0  0  0  0
  1  2  1  0  0  0  0
 22 23  2  0  0  0  0
 22 24  1  0  0  0  0
 18 19  1  0  0  0  0
 18 20  1  0  0  0  0
 18 21  1  0  0  0  0
 17 18  1  0  0  0  0
 14 15  1  0  0  0  0
 14 16  1  0  0  0  0
 14 17  1  0  0  0  0
 11 12  1  0  0  0  0
 11 13  1  0  0  0  0
 11 14  1  0  0  0  0
  9 10  1  0  0  0  0
  9 11  1  0  0  0  0
  9 22  1  0  0  0  0
  7  8  1  0  0  0  0
  7  9  1  0  0  0  0
 26 27  1  0  0  0  0
 26 28  1  0  0  0  0
 26 29  1  0  0  0  0
 24 25  1  0  0  0  0
 24 26  1  0  0  0  0
M  END
$$$$
default_name
  -OEChem-02102213163D

 29 28  0     1  0  0  0  0  0999 V2000
   -3.5781   -3.7296    1.2702 H   0  0  0  0  0  0  0  0  0  0  0  0
   -3.5311   -2.7616    0.7732 C   0  0  0  0  0  0  0  0  0  0  0  0
   -4.2371   -2.0766    1.2382 H   0  0  0  0  0  0  0  0  0  0  0  0
   -3.7681   -2.8816   -0.2818 H   0  0  0  0  0  0  0  0  0  0  0  0
   -2.1321   -2.2086    0.9112 C   0  0  0  0  0  0  0  0  0  0  0  0
   -1.2751   -2.8426    1.5112 O   0  0  0  0  0  0  0  0  0  0  0  0
   -1.9041   -1.0186    0.3602 N   0  0  0  0  0  0  0  0  0  0  0  0
   -2.6671   -0.5416   -0.0988 H   0  0  0  0  0  0  0  0  0  0  0  0
   -0.6131   -0.3236    0.3832 C   0  0  1  0  0  0  0  0  0  0  0  0
    0.1346   -0.9625   -0.0894 H   0  0  0  0  0  0  0  0  0  0  0  0
   -0.7253    0.9751   -0.4365 C   0  0  0  0  0  0  0  0  0  0  0  0
   -0.0306    1.7107   -0.0255 H   0  0  0  0  0  0  0  0  0  0  0  0
   -0.4376    0.7745   -1.4695 H   0  0  0  0  0  0  0  0  0  0  0  0
   -2.1321    1.5842   -0.4292 C   0  0  0  0  0  0  0  0  0  0  0  0
   -2.0551    2.6596   -0.2724 H   0  0  0  0  0  0  0  0  0  0  0  0
   -2.5971    1.4035   -1.3990 H   0  0  0  0  0  0  0  0  0  0  0  0
   -3.2106    0.9046    0.8572 S   0  0  0  0  0  0  0  0  0  0  0  0
   -3.4376   -0.7744    0.2160 C   0  0  0  0  0  0  0  0  0  0  0  0
   -2.4713   -1.2745    0.1447 H   0  0  0  0  0  0  0  0  0  0  0  0
   -4.0831   -1.3354    0.8923 H   0  0  0  0  0  0  0  0  0  0  0  0
   -3.9015   -0.7321   -0.7699 H   0  0  0  0  0  0  0  0  0  0  0  0
   -0.1711   -0.0594    1.8296 C   0  0  0  0  0  0  0  0  0  0  0  0
    0.9865   -0.2908    2.1726 O   0  0  0  0  0  0  0  0  0  0  0  0
   -1.0921    0.4156    2.6780 N   0  0  0  0  0  0  0  0  0  0  0  0
   -2.0168    0.5953    2.3206 H   0  0  0  0  0  0  0  0  0  0  0  0
   -0.8319    0.7034    4.0877 C   0  0  0  0  0  0  0  0  0  0  0  0
   -0.0192    1.4288    4.1710 H   0  0  0  0  0  0  0  0  0  0  0  0
   -1.7255    1.1088    4.5641 H   0  0  0  0  0  0  0  0  0  0  0  0
   -0.5319   -0.2118    4.6011 H   0  0  0  0  0  0  0  0  0  0  0  0
  5  6  2  0  0  0  0
  5  7  1  0  0  0  0
  2  3  1  0  0  0  0
  2  4  1  0  0  0  0
  2  5  1  0  0  0  0
  1  2  1  0  0  0  0
 22 23  2  0  0  0  0
 22 24  1  0  0  0  0
 18 19  1  0  0  0  0
 18 20  1  0  0  0  0
 18 21  1  0  0  0  0
 17 18  1  0  0  0  0
 14 15  1  0  0  0  0
 14 16  1  0  0  0  0
 14 17  1  0  0  0  0
 11 12  1  0  0  0  0
 11 13  1  0  0  0  0
 11 14  1  0  0  0  0
  9 10  1  0  0  0  0
  9 11  1  0  0  0  0
  9 22  1  0  0  0  0
  7  8  1  0  0  0  0
  7  9  1  0  0  0  0
 26 27  1  0  0  0  0
 26 28  1  0  0  0  0
 26 29  1  0  0  0  0
 24 25  1  0  0  0  0
 24 26  1  0  0  0  0
M  END
$$$$
default_name
  -OEChem-02102213163D

 29 28  0     1  0  0  0  0  0999 V2000
   -3.5781   -3.7296    1.2702 H   0  0  0  0  0  0  0  0  0  0  0  0
   -3.5311   -2.7616    0.7732 C   0  0  0  0  0  0  0  0  0  0  0  0
   -4.2371   -2.0766    1.2382 H   0  0  0  0  0  0  0  0  0  0  0  0
   -3.7681   -2.8816   -0.2818 H   0  0  0  0  0  0  0  0  0  0  0  0
   -2.1321   -2.2086    0.9112 C   0  0  0  0  0  0  0  0  0  0  0  0
   -1.2751   -2.8426    1.5112 O   0  0  0  0  0  0  0  0  0  0  0  0
   -1.9041   -1.0186    0.3602 N   0  0  0  0  0  0  0  0  0  0  0  0
   -2.6671   -0.5416   -0.0988 H   0  0  0  0  0  0  0  0  0  0  0  0
   -0.6131   -0.3236    0.3832 C   0  0  1  0  0  0  0  0  0  0  0  0
    0.1346   -0.9625   -0.0894 H   0  0  0  0  0  0  0  0  0  0  0  0
   -0.7253    0.9751   -0.4365 C   0  0  0  0  0  0  0  0  0  0  0  0
   -0.0306    1.7107   -0.0255 H   0  0  0  0  0  0  0  0  0  0  0  0
   -0.4376    0.7745   -1.4695 H   0  0  0  0  0  0  0  0  0  0  0  0
   -2.1321    1.5842   -0.4292 C   0  0  0  0  0  0  0  0  0  0  0  0
   -2.0541    2.6652   -0.5411 H   0  0  0  0  0  0  0  0  0  0  0  0
   -2.6917    1.1835   -1.2752 H   0  0  0  0  0  0  0  0  0  0  0  0
   -3.0634    1.2418    1.0858 S   0  0  0  0  0  0  0  0  0  0  0  0
   -3.3321   -0.5388    0.8885 C   0  0  0  0  0  0  0  0  0  0  0  0
   -2.3715   -1.0523    0.8388 H   0  0  0  0  0  0  0  0  0  0  0  0
   -3.8970   -0.9158    1.7415 H   0  0  0  0  0  0  0  0  0  0  0  0
   -3.8953   -0.7267   -0.0261 H   0  0  0  0  0  0  0  0  0  0  0  0
   -0.1711   -0.0594    1.8296 C   0  0  0  0  0  0  0  0  0  0  0  0
    0.9865   -0.2908    2.1726 O   0  0  0  0  0  0  0  0  0  0  0  0
   -1.0921    0.4156    2.6780 N   0  0  0  0  0  0  0  0  0  0  0  0
   -2.0168    0.5953    2.3206 H   0  0  0  0  0  0  0  0  0  0  0  0
   -0.8319    0.7034    4.0877 C   0  0  0  0  0  0  0  0  0  0  0  0
   -0.0192    1.4288    4.1710 H   0  0  0  0  0  0  0  0  0  0  0  0
   -1.7255    1.1088    4.5641 H   0  0  0  0  0  0  0  0  0  0  0  0
   -0.5319   -0.2118    4.6011 H   0  0  0  0  0  0  0  0  0  0  0  0
  5  6  2  0  0  0  0
  5  7  1  0  0  0  0
  2  3  1  0  0  0  0
  2  4  1  0  0  0  0
  2  5  1  0  0  0  0
  1  2  1  0  0  0  0
 22 23  2  0  0  0  0
 22 24  1  0  0  0  0
 18 19  1  0  0  0  0
 18 20  1  0  0  0  0
 18 21  1  0  0  0  0
 17 18  1  0  0  0  0
 14 15  1  0  0  0  0
 14 16  1  0  0  0  0
 14 17  1  0  0  0  0
 11 12  1  0  0  0  0
 11 13  1  0  0  0  0
 11 14  1  0  0  0  0
  9 10  1  0  0  0  0
  9 11  1  0  0  0  0
  9 22  1  0  0  0  0
  7  8  1  0  0  0  0
  7  9  1  0  0  0  0
 26 27  1  0  0  0  0
 26 28  1  0  0  0  0
 26 29  1  0  0  0  0
 24 25  1  0  0  0  0
 24 26  1  0  0  0  0
M  END
$$$$
default_name
  -OEChem-02102213163D

 29 28  0     1  0  0  0  0  0999 V2000
   -3.5781   -3.7296    1.2702 H   0  0  0  0  0  0  0  0  0  0  0  0
   -3.5311   -2.7616    0.7732 C   0  0  0  0  0  0  0  0  0  0  0  0
   -4.2371   -2.0766    1.2382 H   0  0  0  0  0  0  0  0  0  0  0  0
   -3.7681   -2.8816   -0.2818 H   0  0  0  0  0  0  0  0  0  0  0  0
   -2.1321   -2.2086    0.9112 C   0  0  0  0  0  0  0  0  0  0  0  0
   -1.2751   -2.8426    1.5112 O   0  0  0  0  0  0  0  0  0  0  0  0
   -1.9041   -1.0186    0.3602 N   0  0  0  0  0  0  0  0  0  0  0  0
   -2.6671   -0.5416   -0.0988 H   0  0  0  0  0  0  0  0  0  0  0  0
   -0.6131   -0.3236    0.3832 C   0  0  1  0  0  0  0  0  0  0  0  0
    0.1346   -0.9625   -0.0894 H   0  0  0  0  0  0  0  0  0  0  0  0
   -0.7253    0.9751   -0.4365 C   0  0  0  0  0  0  0  0  0  0  0  0
   -0.0306    1.7107   -0.0255 H   0  0  0  0  0  0  0  0  0  0  0  0
   -0.4376    0.7745   -1.4695 H   0  0  0  0  0  0  0  0  0  0  0  0
   -2.1321    1.5842   -0.4292 C   0  0  0  0  0  0  0  0  0  0  0  0
   -2.0808    2.6067   -0.8019 H   0  0  0  0  0  0  0  0  0  0  0  0
   -2.7701    1.0003   -1.0936 H   0  0  0  0  0  0  0  0  0  0  0  0
   -2.8982    1.6220    1.2114 S   0  0  0  0  0  0  0  0  0  0  0  0
   -3.1613   -0.1515    1.4712 C   0  0  0  0  0  0  0  0  0  0  0  0
   -2.2039   -0.6728    1.4463 H   0  0  0  0  0  0  0  0  0  0  0  0
   -3.6305   -0.3087    2.4429 H   0  0  0  0  0  0  0  0  0  0  0  0
   -3.8129   -0.5449    0.6905 H   0  0  0  0  0  0  0  0  0  0  0  0
   -0.1711   -0.0594    1.8296 C   0  0  0  0  0  0  0  0  0  0  0  0
    0.9865   -0.2908    2.1726 O   0  0  0  0  0  0  0  0  0  0  0  0
   -1.0921    0.4156    2.6780 N   0  0  0  0  0  0  0  0  0  0  0  0
   -2.0168    0.5953    2.3206 H   0  0  0  0  0  0  0  0  0  0  0  0
   -0.8319    0.7034    4.0877 C   0  0  0  0  0  0  0  0  0  0  0  0
   -0.0192    1.4288    4.1710 H   0  0  0  0  0  0  0  0  0  0  0  0
   -1.7255    1.1088    4.5641 H   0  0  0  0  0  0  0  0  0  0  0  0
   -0.5319   -0.2118    4.6011 H   0  0  0  0  0  0  0  0  0  0  0  0
  5  6  2  0  0  0  0
  5  7  1  0  0  0  0
  2  3  1  0  0  0  0
  2  4  1  0  0  0  0
  2  5  1  0  0  0  0
  1  2  1  0  0  0  0
 22 23  2  0  0  0  0
 22 24  1  0  0  0  0
 18 19  1  0  0  0  0
 18 20  1  0  0  0  0
 18 21  1  0  0  0  0
 17 18  1  0  0  0  0
 14 15  1  0  0  0  0
 14 16  1  0  0  0  0
 14 17  1  0  0  0  0
 11 12  1  0  0  0  0
 11 13  1  0  0  0  0
 11 14  1  0  0  0  0
  9 10  1  0  0  0  0
  9 11  1  0  0  0  0
  9 22  1  0  0  0  0
  7  8  1  0  0  0  0
  7  9  1  0  0  0  0
 26 27  1  0  0  0  0
 26 28  1  0  0  0  0
 26 29  1  0  0  0  0
 24 25  1  0  0  0  0
 24 26  1  0  0  0  0
M  END
$$$$
default_name
  -OEChem-02102213163D

 29 28  0     1  0  0  0  0  0999 V2000
   -3.5781   -3.7296    1.2702 H   0  0  0  0  0  0  0  0  0  0  0  0
   -3.5311   -2.7616    0.7732 C   0  0  0  0  0  0  0  0  0  0  0  0
   -4.2371   -2.0766    1.2382 H   0  0  0  0  0  0  0  0  0  0  0  0
   -3.7681   -2.8816   -0.2818 H   0  0  0  0  0  0  0  0  0  0  0  0
   -2.1321   -2.2086    0.9112 C   0  0  0  0  0  0  0  0  0  0  0  0
   -1.2751   -2.8426    1.5112 O   0  0  0  0  0  0  0  0  0  0  0  0
   -1.9041   -1.0186    0.3602 N   0  0  0  0  0  0  0  0  0  0  0  0
   -2.6671   -0.5416   -0.0988 H   0  0  0  0  0  0  0  0  0  0  0  0
   -0.6131   -0.3236    0.3832 C   0  0  1  0  0  0  0  0  0  0  0  0
    0.1346   -0.9625   -0.0894 H   0  0  0  0  0  0  0  0  0  0  0  0
   -0.7253    0.9751   -0.4365 C   0  0  0  0  0  0  0  0  0  0  0  0
   -0.0306    1.7107   -0.0255 H   0  0  0  0  0  0  0  0  0  0  0  0
   -0.4376    0.7745   -1.4695 H   0  0  0  0  0  0  0  0  0  0  0  0
   -2.1321    1.5842   -0.4292 C   0  0  0  0  0  0  0  0  0  0  0  0
   -2.1333    2.4882   -1.0373 H   0  0  0  0  0  0  0  0  0  0  0  0
   -2.8269    0.8663   -0.8666 H   0  0  0  0  0  0  0  0  0  0  0  0
   -2.7261    2.0192    1.2254 S   0  0  0  0  0  0  0  0  0  0  0  0
   -2.9370    0.3613    1.9246 C   0  0  0  0  0  0  0  0  0  0  0  0
   -1.9802   -0.1616    1.9257 H   0  0  0  0  0  0  0  0  0  0  0  0
   -3.3016    0.4447    2.9488 H   0  0  0  0  0  0  0  0  0  0  0  0
   -3.6598   -0.1990    1.3310 H   0  0  0  0  0  0  0  0  0  0  0  0
   -0.1711   -0.0594    1.8296 C   0  0  0  0  0  0  0  0  0  0  0  0
    0.9865   -0.2908    2.1726 O   0  0  0  0  0  0  0  0  0  0  0  0
   -1.0921    0.4156    2.6780 N   0  0  0  0  0  0  0  0  0  0  0  0
   -2.0168    0.5953    2.3206 H   0  0  0  0  0  0  0  0  0  0  0  0
   -0.8319    0.7034    4.0877 C   0  0  0  0  0  0  0  0  0  0  0  0
   -0.0192    1.4288    4.1710 H   0  0  0  0  0  0  0  0  0  0  0  0
   -1.7255    1.1088    4.5641 H   0  0  0  0  0  0  0  0  0  0  0  0
   -0.5319   -0.2118    4.6011 H   0  0  0  0  0  0  0  0  0  0  0  0
  5  6  2  0  0  0  0
  5  7  1  0  0  0  0
  2  3  1  0  0  0  0
  2  4  1  0  0  0  0
  2  5  1  0  0  0  0
  1  2  1  0  0  0  0
 22 23  2  0  0  0  0
 22 24  1  0  0  0  0
 18 19  1  0  0  0  0
 18 20  1  0  0  0  0
 18 21  1  0  0  0  0
 17 18  1  0  0  0  0
 14 15  1  0  0  0  0
 14 16  1  0  0  0  0
 14 17  1  0  0  0  0
 11 12  1  0  0  0  0
 11 13  1  0  0  0  0
 11 14  1  0  0  0  0
  9 10  1  0  0  0  0
  9 11  1  0  0  0  0
  9 22  1  0  0  0  0
  7  8  1  0  0  0  0
  7  9  1  0  0  0  0
 26 27  1  0  0  0  0
 26 28  1  0  0  0  0
 26 29  1  0  0  0  0
 24 25  1  0  0  0  0
 24 26  1  0  0  0  0
M  END
$$$$
default_name
  -OEChem-02102213163D

 29 28  0     1  0  0  0  0  0999 V2000
   -3.5781   -3.7296    1.2702 H   0  0  0  0  0  0  0  0  0  0  0  0
   -3.5311   -2.7616    0.7732 C   0  0  0  0  0  0  0  0  0  0  0  0
   -4.2371   -2.0766    1.2382 H   0  0  0  0  0  0  0  0  0  0  0  0
   -3.7681   -2.8816   -0.2818 H   0  0  0  0  0  0  0  0  0  0  0  0
   -2.1321   -2.2086    0.9112 C   0  0  0  0  0  0  0  0  0  0  0  0
   -1.2751   -2.8426    1.5112 O   0  0  0  0  0  0  0  0  0  0  0  0
   -1.9041   -1.0186    0.3602 N   0  0  0  0  0  0  0  0  0  0  0  0
   -2.6671   -0.5416   -0.0988 H   0  0  0  0  0  0  0  0  0  0  0  0
   -0.6131   -0.3236    0.3832 C   0  0  1  0  0  0  0  0  0  0  0  0
    0.1346   -0.9625   -0.0894 H   0  0  0  0  0  0  0  0  0  0  0  0
   -0.7253    0.9751   -0.4365 C   0  0  0  0  0  0  0  0  0  0  0  0
   -0.0306    1.7107   -0.0255 H   0  0  0  0  0  0  0  0  0  0  0  0
   -0.4376    0.7745   -1.4695 H   0  0  0  0  0  0  0  0  0  0  0  0
   -2.1321    1.5842   -0.4292 C   0  0  0  0  0  0  0  0  0  0  0  0
   -2.2081    2.3178   -1.2311 H   0  0  0  0  0  0  0  0  0  0  0  0
   -2.8583    0.7907   -0.6097 H   0  0  0  0  0  0  0  0  0  0  0  0
   -2.5590    2.4064    1.1269 S   0  0  0  0  0  0  0  0  0  0  0  0
   -2.6742    0.9646    2.2176 C   0  0  0  0  0  0  0  0  0  0  0  0
   -1.7153    0.4462    2.2443 H   0  0  0  0  0  0  0  0  0  0  0  0
   -2.9329    1.2930    3.2247 H   0  0  0  0  0  0  0  0  0  0  0  0
   -3.4464    0.2874    1.8517 H   0  0  0  0  0  0  0  0  0  0  0  0
   -0.1711   -0.0594    1.8296 C   0  0  0  0  0  0  0  0  0  0  0  0
    0.9865   -0.2908    2.1726 O   0  0  0  0  0  0  0  0  0  0  0  0
   -1.0921    0.4156    2.6780 N   0  0  0  0  0  0  0  0  0  0  0  0
   -2.0168    0.5953    2.3206 H   0  0  0  0  0  0  0  0  0  0  0  0
   -0.8319    0.7034    4.0877 C   0  0  0  0  0  0  0  0  0  0  0  0
   -0.0192    1.4288    4.1710 H   0  0  0  0  0  0  0  0  0  0  0  0
   -1.7255    1.1088    4.5641 H   0  0  0  0  0  0  0  0  0  0  0  0
   -0.5319   -0.2118    4.6011 H   0  0  0  0  0  0  0  0  0  0  0  0
  5  6  2  0  0  0  0
  5  7  1  0  0  0  0
  2  3  1  0  0  0  0
  2  4  1  0  0  0  0
  2  5  1  0  0  0  0
  1  2  1  0  0  0  0
 22 23  2  0  0  0  0
 22 24  1  0  0  0  0
 18 19  1  0  0  0  0
 18 20  1  0  0  0  0
 18 21  1  0  0  0  0
 17 18  1  0  0  0  0
 14 15  1  0  0  0  0
 14 16  1  0  0  0  0
 14 17  1  0  0  0  0
 11 12  1  0  0  0  0
 11 13  1  0  0  0  0
 11 14  1  0  0  0  0
  9 10  1  0  0  0  0
  9 11  1  0  0  0  0
  9 22  1  0  0  0  0
  7  8  1  0  0  0  0
  7  9  1  0  0  0  0
 26 27  1  0  0  0  0
 26 28  1  0  0  0  0
 26 29  1  0  0  0  0
 24 25  1  0  0  0  0
 24 26  1  0  0  0  0
M  END
$$$$
default_name
  -OEChem-02102213163D

 29 28  0     1  0  0  0  0  0999 V2000
   -3.5781   -3.7296    1.2702 H   0  0  0  0  0  0  0  0  0  0  0  0
   -3.5311   -2.7616    0.7732 C   0  0  0  0  0  0  0  0  0  0  0  0
   -4.2371   -2.0766    1.2382 H   0  0  0  0  0  0  0  0  0  0  0  0
   -3.7681   -2.8816   -0.2818 H   0  0  0  0  0  0  0  0  0  0  0  0
   -2.1321   -2.2086    0.9112 C   0  0  0  0  0  0  0  0  0  0  0  0
   -1.2751   -2.8426    1.5112 O   0  0  0  0  0  0  0  0  0  0  0  0
   -1.9041   -1.0186    0.3602 N   0  0  0  0  0  0  0  0  0  0  0  0
   -2.6671   -0.5416   -0.0988 H   0  0  0  0  0  0  0  0  0  0  0  0
   -0.6131   -0.3236    0.3832 C   0  0  1  0  0  0  0  0  0  0  0  0
    0.1346   -0.9625   -0.0894 H   0  0  0  0  0  0  0  0  0  0  0  0
   -0.7253    0.9751   -0.4365 C   0  0  0  0  0  0  0  0  0  0  0  0
   -0.0306    1.7107   -0.0255 H   0  0  0  0  0  0  0  0  0  0  0  0
   -0.4376    0.7745   -1.4695 H   0  0  0  0  0  0  0  0  0  0  0  0
   -2.1321    1.5842   -0.4292 C   0  0  0  0  0  0  0  0  0  0  0  0
   -2.3001    2.1071   -1.3702 H   0  0  0  0  0  0  0  0  0  0  0  0
   -2.8621    0.7787   -0.3404 H   0  0  0  0  0  0  0  0  0  0  0  0
   -2.4081    2.7573    0.9226 S   0  0  0  0  0  0  0  0  0  0  0  0
   -2.3911    1.6173    2.3304 C   0  0  0  0  0  0  0  0  0  0  0  0
   -1.4275    1.1093    2.3805 H   0  0  0  0  0  0  0  0  0  0  0  0
   -2.5494    2.1784    3.2518 H   0  0  0  0  0  0  0  0  0  0  0  0
   -3.1874    0.8812    2.2173 H   0  0  0  0  0  0  0  0  0  0  0  0
   -0.1711   -0.0594    1.8296 C   0  0  0  0  0  0  0  0  0  0  0  0
    0.9865   -0.2908    2.1726 O   0  0  0  0  0  0  0  0  0  0  0  0
   -1.0921    0.4156    2.6780 N   0  0  0  0  0  0  0  0  0  0  0  0
   -2.0168    0.5953    2.3206 H   0  0  0  0  0  0  0  0  0  0  0  0
   -0.8319    0.7034    4.0877 C   0  0  0  0  0  0  0  0  0  0  0  0
   -0.0192    1.4288    4.1710 H   0  0  0  0  0  0  0  0  0  0  0  0
   -1.7255    1.1088    4.5641 H   0  0  0  0  0  0  0  0  0  0  0  0
   -0.5319   -0.2118    4.6011 H   0  0  0  0  0  0  0  0  0  0  0  0
  5  6  2  0  0  0  0
  5  7  1  0  0  0  0
  2  3  1  0  0  0  0
  2  4  1  0  0  0  0
  2  5  1  0  0  0  0
  1  2  1  0  0  0  0
 22 23  2  0  0  0  0
 22 24  1  0  0  0  0
 18 19  1  0  0  0  0
 18 20  1  0  0  0  0
 18 21  1  0  0  0  0
 17 18  1  0  0  0  0
 14 15  1  0  0  0  0
 14 16  1  0  0  0  0
 14 17  1  0  0  0  0
 11 12  1  0  0  0  0
 11 13  1  0  0  0  0
 11 14  1  0  0  0  0
  9 10  1  0  0  0  0
  9 11  1  0  0  0  0
  9 22  1  0  0  0  0
  7  8  1  0  0  0  0
  7  9  1  0  0  0  0
 26 27  1  0  0  0  0
 26 28  1  0  0  0  0
 26 29  1  0  0  0  0
 24 25  1  0  0  0  0
 24 26  1  0  0  0  0
M  END
$$$$
default_name
  -OEChem-02102213163D

 29 28  0     1  0  0  0  0  0999 V2000
   -3.5781   -3.7296    1.2702 H   0  0  0  0  0  0  0  0  0  0  0  0
   -3.5311   -2.7616    0.7732 C   0  0  0  0  0  0  0  0  0  0  0  0
   -4.2371   -2.0766    1.2382 H   0  0  0  0  0  0  0  0  0  0  0  0
   -3.7681   -2.8816   -0.2818 H   0  0  0  0  0  0  0  0  0  0  0  0
   -2.1321   -2.2086    0.9112 C   0  0  0  0  0  0  0  0  0  0  0  0
   -1.2751   -2.8426    1.5112 O   0  0  0  0  0  0  0  0  0  0  0  0
   -1.9041   -1.0186    0.3602 N   0  0  0  0  0  0  0  0  0  0  0  0
   -2.6671   -0.5416   -0.0988 H   0  0  0  0  0  0  0  0  0  0  0  0
   -0.6131   -0.3236    0.3832 C   0  0  1  0  0  0  0  0  0  0  0  0
    0.1346   -0.9625   -0.0894 H   0  0  0  0  0  0  0  0  0  0  0  0
   -0.7253    0.9751   -0.4365 C   0  0  0  0  0  0  0  0  0  0  0  0
   -0.0306    1.7107   -0.0255 H   0  0  0  0  0  0  0  0  0  0  0  0
   -0.4376    0.7745   -1.4695 H   0  0  0  0  0  0  0  0  0  0  0  0
   -2.1321    1.5842   -0.4292 C   0  0  0  0  0  0  0  0  0  0  0  0
   -2.4030    1.8704   -1.4450 H   0  0  0  0  0  0  0  0  0  0  0  0
   -2.8380    0.8311   -0.0770 H   0  0  0  0  0  0  0  0  0  0  0  0
   -2.2839    3.0479    0.6264 S   0  0  0  0  0  0  0  0  0  0  0  0
   -2.1068    2.2748    2.2552 C   0  0  0  0  0  0  0  0  0  0  0  0
   -1.1363    1.7826    2.3249 H   0  0  0  0  0  0  0  0  0  0  0  0
   -2.1773    3.0405    3.0282 H   0  0  0  0  0  0  0  0  0  0  0  0
   -2.9004    1.5419    2.4027 H   0  0  0  0  0  0  0  0  0  0  0  0
   -0.1711   -0.0594    1.8296 C   0  0  0  0  0  0  0  0  0  0  0  0
    0.9865   -0.2908    2.1726 O   0  0  0  0  0  0  0  0  0  0  0  0
   -1.0921    0.4156    2.6780 N   0  0  0  0  0  0  0  0  0  0  0  0
   -2.0168    0.5953    2.3206 H   0  0  0  0  0  0  0  0  0  0  0  0
   -0.8319    0.7034    4.0877 C   0  0  0  0  0  0  0  0  0  0  0  0
   -0.0192    1.4288    4.1710 H   0  0  0  0  0  0  0  0  0  0  0  0
   -1.7255    1.1088    4.5641 H   0  0  0  0  0  0  0  0  0  0  0  0
   -0.5319   -0.2118    4.6011 H   0  0  0  0  0  0  0  0  0  0  0  0
  5  6  2  0  0  0  0
  5  7  1  0  0  0  0
  2  3  1  0  0  0  0
  2  4  1  0  0  0  0
  2  5  1  0  0  0  0
  1  2  1  0  0  0  0
 22 23  2  0  0  0  0
 22 24  1  0  0  0  0
 18 19  1  0  0  0  0
 18 20  1  0  0  0  0
 18 21  1  0  0  0  0
 17 18  1  0  0  0  0
 14 15  1  0  0  0  0
 14 16  1  0  0  0  0
 14 17  1  0  0  0  0
 11 12  1  0  0  0  0
 11 13  1  0  0  0  0
 11 14  1  0  0  0  0
  9 10  1  0  0  0  0
  9 11  1  0  0  0  0
  9 22  1  0  0  0  0
  7  8  1  0  0  0  0
  7  9  1  0  0  0  0
 26 27  1  0  0  0  0
 26 28  1  0  0  0  0
 26 29  1  0  0  0  0
 24 25  1  0  0  0  0
 24 26  1  0  0  0  0
M  END
$$$$
default_name
  -OEChem-02102213163D

 29 28  0     1  0  0  0  0  0999 V2000
   -3.5781   -3.7296    1.2702 H   0  0  0  0  0  0  0  0  0  0  0  0
   -3.5311   -2.7616    0.7732 C   0  0  0  0  0  0  0  0  0  0  0  0
   -4.2371   -2.0766    1.2382 H   0  0  0  0  0  0  0  0  0  0  0  0
   -3.7681   -2.8816   -0.2818 H   0  0  0  0  0  0  0  0  0  0  0  0
   -2.1321   -2.2086    0.9112 C   0  0  0  0  0  0  0  0  0  0  0  0
   -1.2751   -2.8426    1.5112 O   0  0  0  0  0  0  0  0  0  0  0  0
   -1.9041   -1.0186    0.3602 N   0  0  0  0  0  0  0  0  0  0  0  0
   -2.6671   -0.5416   -0.0988 H   0  0  0  0  0  0  0  0  0  0  0  0
   -0.6131   -0.3236    0.3832 C   0  0  1  0  0  0  0  0  0  0  0  0
    0.1346   -0.9625   -0.0894 H   0  0  0  0  0  0  0  0  0  0  0  0
   -0.7253    0.9751   -0.4365 C   0  0  0  0  0  0  0  0  0  0  0  0
   -0.0306    1.7107   -0.0255 H   0  0  0  0  0  0  0  0  0  0  0  0
   -0.4376    0.7745   -1.4695 H   0  0  0  0  0  0  0  0  0  0  0  0
   -2.1321    1.5842   -0.4292 C   0  0  0  0  0  0  0  0  0  0  0  0
   -2.5097    1.6239   -1.4504 H   0  0  0  0  0  0  0  0  0  0  0  0
   -2.7878    0.9443    0.1625 H   0  0  0  0  0  0  0  0  0  0  0  0
   -2.1947    3.2583    0.2585 S   0  0  0  0  0  0  0  0  0  0  0  0
   -1.8407    2.8924    1.9971 C   0  0  0  0  0  0  0  0  0  0  0  0
   -0.8615    2.4201    2.0814 H   0  0  0  0  0  0  0  0  0  0  0  0
   -1.8420    3.8206    2.5693 H   0  0  0  0  0  0  0  0  0  0  0  0
   -2.6049    2.2245    2.3954 H   0  0  0  0  0  0  0  0  0  0  0  0
   -0.1711   -0.0594    1.8296 C   0  0  0  0  0  0  0  0  0  0  0  0
    0.9865   -0.2908    2.1726 O   0  0  0  0  0  0  0  0  0  0  0  0
   -1.0921    0.4156    2.6780 N   0  0  0  0  0  0  0  0  0  0  0  0
   -2.0168    0.5953    2.3206 H   0  0  0  0  0  0  0  0  0  0  0  0
   -0.8319    0.7034    4.0877 C   0  0  0  0  0  0  0  0  0  0  0  0
   -0.0192    1.4288    4.1710 H   0  0  0  0  0  0  0  0  0  0  0  0
   -1.7255    1.1088    4.5641 H   0  0  0  0  0  0  0  0  0  0  0  0
   -0.5319   -0.2118    4.6011 H   0  0  0  0  0  0  0  0  0  0  0  0
  5  6  2  0  0  0  0
  5  7  1  0  0  0  0
  2  3  1  0  0  0  0
  2  4  1  0  0  0  0
  2  5  1  0  0  0  0
  1  2  1  0  0  0  0
 22 23  2  0  0  0  0
 22 24  1  0  0  0  0
 18 19  1  0  0  0  0
 18 20  1  0  0  0  0
 18 21  1  0  0  0  0
 17 18  1  0  0  0  0
 14 15  1  0  0  0  0
 14 16  1  0  0  0  0
 14 17  1  0  0  0  0
 11 12  1  0  0  0  0
 11 13  1  0  0  0  0
 11 14  1  0  0  0  0
  9 10  1  0  0  0  0
  9 11  1  0  0  0  0
  9 22  1  0  0  0  0
  7  8  1  0  0  0  0
  7  9  1  0  0  0  0
 26 27  1  0  0  0  0
 26 28  1  0  0  0  0
 26 29  1  0  0  0  0
 24 25  1  0  0  0  0
 24 26  1  0  0  0  0
M  END
$$$$
default_name
  -OEChem-02102213163D

 29 28  0     1  0  0  0  0  0999 V2000
   -3.5781   -3.7296    1.2702 H   0  0  0  0  0  0  0  0  0  0  0  0
   -3.5311   -2.7616    0.7732 C   0  0  0  0  0  0  0  0  0  0  0  0
   -4.2371   -2.0766    1.2382 H   0  0  0  0  0  0  0  0  0  0  0  0
   -3.7681   -2.8816   -0.2818 H   0  0  0  0  0  0  0  0  0  0  0  0
   -2.1321   -2.2086    0.9112 C   0  0  0  0  0  0  0  0  0  0  0  0
   -1.2751   -2.8426    1.5112 O   0  0  0  0  0  0  0  0  0  0  0  0
   -1.9041   -1.0186    0.3602 N   0  0  0  0  0  0  0  0  0  0  0  0
   -2.6671   -0.5416   -0.0988 H   0  0  0  0  0  0  0  0  0  0  0  0
   -0.6131   -0.3236    0.3832 C   0  0  1  0  0  0  0  0  0  0  0  0
    0.1346   -0.9625   -0.0894 H   0  0  0  0  0  0  0  0  0  0  0  0
   -0.7253    0.9751   -0.4365 C   0  0  0  0  0  0  0  0  0  0  0  0
   -0.0306    1.7107   -0.0255 H   0  0  0  0  0  0  0  0  0  0  0  0
   -0.4376    0.7745   -1.4695 H   0  0  0  0  0  0  0  0  0  0  0  0
   -2.1321    1.5842   -0.4292 C   0  0  0  0  0  0  0  0  0  0  0  0
   -2.6131    1.3843   -1.3862 H   0  0  0  0  0  0  0  0  0  0  0  0
   -2.7148    1.1105    0.3618 H   0  0  0  0  0  0  0  0  0  0  0  0
   -2.1466    3.3744   -0.1560 S   0  0  0  0  0  0  0  0  0  0  0  0
   -1.6110    3.4281    1.5738 C   0  0  0  0  0  0  0  0  0  0  0  0
   -0.6220    2.9783    1.6666 H   0  0  0  0  0  0  0  0  0  0  0  0
   -1.5662    4.4655    1.9062 H   0  0  0  0  0  0  0  0  0  0  0  0
   -2.3211    2.8824    2.1958 H   0  0  0  0  0  0  0  0  0  0  0  0
   -0.1711   -0.0594    1.8296 C   0  0  0  0  0  0  0  0  0  0  0  0
    0.9865   -0.2908    2.1726 O   0  0  0  0  0  0  0  0  0  0  0  0
   -1.0921    0.4156    2.6780 N   0  0  0  0  0  0  0  0  0  0  0  0
   -2.0168    0.5953    2.3206 H   0  0  0  0  0  0  0  0  0  0  0  0
   -0.8319    0.7034    4.0877 C   0  0  0  0  0  0  0  0  0  0  0  0
   -0.0192    1.4288    4.1710 H   0  0  0  0  0  0  0  0  0  0  0  0
   -1.7255    1.1088    4.5641 H   0  0  0  0  0  0  0  0  0  0  0  0
   -0.5319   -0.2118    4.6011 H   0  0  0  0  0  0  0  0  0  0  0  0
  5  6  2  0  0  0  0
  5  7  1  0  0  0  0
  2  3  1  0  0  0  0
  2  4  1  0  0  0  0
  2  5  1  0  0  0  0
  1  2  1  0  0  0  0
 22 23  2  0  0  0  0
 22 24  1  0  0  0  0
 18 19  1  0  0  0  0
 18 20  1  0  0  0  0
 18 21  1  0  0  0  0
 17 18  1  0  0  0  0
 14 15  1  0  0  0  0
 14 16  1  0  0  0  0
 14 17  1  0  0  0  0
 11 12  1  0  0  0  0
 11 13  1  0  0  0  0
 11 14  1  0  0  0  0
  9 10  1  0  0  0  0
  9 11  1  0  0  0  0
  9 22  1  0  0  0  0
  7  8  1  0  0  0  0
  7  9  1  0  0  0  0
 26 27  1  0  0  0  0
 26 28  1  0  0  0  0
 26 29  1  0  0  0  0
 24 25  1  0  0  0  0
 24 26  1  0  0  0  0
M  END
$$$$
default_name
  -OEChem-02102213163D

 29 28  0     1  0  0  0  0  0999 V2000
   -3.5781   -3.7296    1.2702 H   0  0  0  0  0  0  0  0  0  0  0  0
   -3.5311   -2.7616    0.7732 C   0  0  0  0  0  0  0  0  0  0  0  0
   -4.2371   -2.0766    1.2382 H   0  0  0  0  0  0  0  0  0  0  0  0
   -3.7681   -2.8816   -0.2818 H   0  0  0  0  0  0  0  0  0  0  0  0
   -2.1321   -2.2086    0.9112 C   0  0  0  0  0  0  0  0  0  0  0  0
   -1.2751   -2.8426    1.5112 O   0  0  0  0  0  0  0  0  0  0  0  0
   -1.9041   -1.0186    0.3602 N   0  0  0  0  0  0  0  0  0  0  0  0
   -2.6671   -0.5416   -0.0988 H   0  0  0  0  0  0  0  0  0  0  0  0
   -0.6131   -0.3236    0.3832 C   0  0  1  0  0  0  0  0  0  0  0  0
    0.1346   -0.9625   -0.0894 H   0  0  0  0  0  0  0  0  0  0  0  0
   -0.7253    0.9751   -0.4365 C   0  0  0  0  0  0  0  0  0  0  0  0
   -0.0306    1.7107   -0.0255 H   0  0  0  0  0  0  0  0  0  0  0  0
   -0.4376    0.7745   -1.4695 H   0  0  0  0  0  0  0  0  0  0  0  0
   -2.1321    1.5842   -0.4292 C   0  0  0  0  0  0  0  0  0  0  0  0
   -2.7061    1.1681   -1.2566 H   0  0  0  0  0  0  0  0  0  0  0  0
   -2.6239    1.3186    0.5073 H   0  0  0  0  0  0  0  0  0  0  0  0
   -2.1429    3.3881   -0.5889 S   0  0  0  0  0  0  0  0  0  0  0  0
   -1.4333    3.8452    1.0140 C   0  0  0  0  0  0  0  0  0  0  0  0
   -0.4340    3.4193    1.1086 H   0  0  0  0  0  0  0  0  0  0  0  0
   -1.3688    4.9313    1.0842 H   0  0  0  0  0  0  0  0  0  0  0  0
   -2.0683    3.4709    1.8175 H   0  0  0  0  0  0  0  0  0  0  0  0
   -0.1711   -0.0594    1.8296 C   0  0  0  0  0  0  0  0  0  0  0  0
    0.9865   -0.2908    2.1726 O   0  0  0  0  0  0  0  0  0  0  0  0
   -1.0921    0.4156    2.6780 N   0  0  0  0  0  0  0  0  0  0  0  0
   -2.0168    0.5953    2.3206 H   0  0  0  0  0  0  0  0  0  0  0  0
   -0.8319    0.7034    4.0877 C   0  0  0  0  0  0  0  0  0  0  0  0
   -0.0192    1.4288    4.1710 H   0  0  0  0  0  0  0  0  0  0  0  0
   -1.7255    1.1088    4.5641 H   0  0  0  0  0  0  0  0  0  0  0  0
   -0.5319   -0.2118    4.6011 H   0  0  0  0  0  0  0  0  0  0  0  0
  5  6  2  0  0  0  0
  5  7  1  0  0  0  0
  2  3  1  0  0  0  0
  2  4  1  0  0  0  0
  2  5  1  0  0  0  0
  1  2  1  0  0  0  0
 22 23  2  0  0  0  0
 22 24  1  0  0  0  0
 18 19  1  0  0  0  0
 18 20  1  0  0  0  0
 18 21  1  0  0  0  0
 17 18  1  0  0  0  0
 14 15  1  0  0  0  0
 14 16  1  0  0  0  0
 14 17  1  0  0  0  0
 11 12  1  0  0  0  0
 11 13  1  0  0  0  0
 11 14  1  0  0  0  0
  9 10  1  0  0  0  0
  9 11  1  0  0  0  0
  9 22  1  0  0  0  0
  7  8  1  0  0  0  0
  7  9  1  0  0  0  0
 26 27  1  0  0  0  0
 26 28  1  0  0  0  0
 26 29  1  0  0  0  0
 24 25  1  0  0  0  0
 24 26  1  0  0  0  0
M  END
$$$$
default_name
  -OEChem-02102213163D

 29 28  0     1  0  0  0  0  0999 V2000
   -3.5781   -3.7296    1.2702 H   0  0  0  0  0  0  0  0  0  0  0  0
   -3.5311   -2.7616    0.7732 C   0  0  0  0  0  0  0  0  0  0  0  0
   -4.2371   -2.0766    1.2382 H   0  0  0  0  0  0  0  0  0  0  0  0
   -3.7681   -2.8816   -0.2818 H   0  0  0  0  0  0  0  0  0  0  0  0
   -2.1321   -2.2086    0.9112 C   0  0  0  0  0  0  0  0  0  0  0  0
   -1.2751   -2.8426    1.5112 O   0  0  0  0  0  0  0  0  0  0  0  0
   -1.9041   -1.0186    0.3602 N   0  0  0  0  0  0  0  0  0  0  0  0
   -2.6671   -0.5416   -0.0988 H   0  0  0  0  0  0  0  0  0  0  0  0
   -0.6131   -0.3236    0.3832 C   0  0  1  0  0  0  0  0  0  0  0  0
    0.1346   -0.9625   -0.0894 H   0  0  0  0  0  0  0  0  0  0  0  0
   -0.7253    0.9751   -0.4365 C   0  0  0  0  0  0  0  0  0  0  0  0
   -0.0306    1.7107   -0.0255 H   0  0  0  0  0  0  0  0  0  0  0  0
   -0.4376    0.7745   -1.4695 H   0  0  0  0  0  0  0  0  0  0  0  0
   -2.1321    1.5842   -0.4292 C   0  0  0  0  0  0  0  0  0  0  0  0
   -2.7822    0.9899   -1.0705 H   0  0  0  0  0  0  0  0  0  0  0  0
   -2.5215    1.5542    0.5891 H   0  0  0  0  0  0  0  0  0  0  0  0
   -2.1839    3.2985   -1.0107 S   0  0  0  0  0  0  0  0  0  0  0  0
   -1.3198    4.1153    0.3560 C   0  0  0  0  0  0  0  0  0  0  0  0
   -0.3103    3.7130    0.4456 H   0  0  0  0  0  0  0  0  0  0  0  0
   -1.2632    5.1863    0.1592 H   0  0  0  0  0  0  0  0  0  0  0  0
   -1.8637    3.9498    1.2864 H   0  0  0  0  0  0  0  0  0  0  0  0
   -0.1711   -0.0594    1.8296 C   0  0  0  0  0  0  0  0  0  0  0  0
    0.9865   -0.2908    2.1726 O   0  0  0  0  0  0  0  0  0  0  0  0
   -1.0921    0.4156    2.6780 N   0  0  0  0  0  0  0  0  0  0  0  0
   -2.0168    0.5953    2.3206 H   0  0  0  0  0  0  0  0  0  0  0  0
   -0.8319    0.7034    4.0877 C   0  0  0  0  0  0  0  0  0  0  0  0
   -0.0192    1.4288    4.1710 H   0  0  0  0  0  0  0  0  0  0  0  0
   -1.7255    1.1088    4.5641 H   0  0  0  0  0  0  0  0  0  0  0  0
   -0.5319   -0.2118    4.6011 H   0  0  0  0  0  0  0  0  0  0  0  0
  5  6  2  0  0  0  0
  5  7  1  0  0  0  0
  2  3  1  0  0  0  0
  2  4  1  0  0  0  0
  2  5  1  0  0  0  0
  1  2  1  0  0  0  0
 22 23  2  0  0  0  0
 22 24  1  0  0  0  0
 18 19  1  0  0  0  0
 18 20  1  0  0  0  0
 18 21  1  0  0  0  0
 17 18  1  0  0  0  0
 14 15  1  0  0  0  0
 14 16  1  0  0  0  0
 14 17  1  0  0  0  0
 11 12  1  0  0  0  0
 11 13  1  0  0  0  0
 11 14  1  0  0  0  0
  9 10  1  0  0  0  0
  9 11  1  0  0  0  0
  9 22  1  0  0  0  0
  7  8  1  0  0  0  0
  7  9  1  0  0  0  0
 26 27  1  0  0  0  0
 26 28  1  0  0  0  0
 26 29  1  0  0  0  0
 24 25  1  0  0  0  0
 24 26  1  0  0  0  0
M  END
$$$$
default_name
  -OEChem-02102213163D

 29 28  0     1  0  0  0  0  0999 V2000
   -3.5781   -3.7296    1.2702 H   0  0  0  0  0  0  0  0  0  0  0  0
   -3.5311   -2.7616    0.7732 C   0  0  0  0  0  0  0  0  0  0  0  0
   -4.2371   -2.0766    1.2382 H   0  0  0  0  0  0  0  0  0  0  0  0
   -3.7681   -2.8816   -0.2818 H   0  0  0  0  0  0  0  0  0  0  0  0
   -2.1321   -2.2086    0.9112 C   0  0  0  0  0  0  0  0  0  0  0  0
   -1.2751   -2.8426    1.5112 O   0  0  0  0  0  0  0  0  0  0  0  0
   -1.9041   -1.0186    0.3602 N   0  0  0  0  0  0  0  0  0  0  0  0
   -2.6671   -0.5416   -0.0988 H   0  0  0  0  0  0  0  0  0  0  0  0
   -0.6131   -0.3236    0.3832 C   0  0  1  0  0  0  0  0  0  0  0  0
    0.1346   -0.9625   -0.0894 H   0  0  0  0  0  0  0  0  0  0  0  0
   -0.7253    0.9751   -0.4365 C   0  0  0  0  0  0  0  0  0  0  0  0
    0.1359    1.6078   -0.2114 H   0  0  0  0  0  0  0  0  0  0  0  0
   -0.7015    0.7325   -1.4999 H   0  0  0  0  0  0  0  0  0  0  0  0
   -2.0002    1.7750   -0.1449 C   0  0  0  0  0  0  0  0  0  0  0  0
   -2.8690    1.1568   -0.3688 H   0  0  0  0  0  0  0  0  0  0  0  0
   -2.0171    2.0331    0.9145 H   0  0  0  0  0  0  0  0  0  0  0  0
   -2.1345    3.3029   -1.1078 S   0  0  0  0  0  0  0  0  0  0  0  0
   -0.8012    4.2658   -0.3483 C   0  0  0  0  0  0  0  0  0  0  0  0
    0.1485    3.7465   -0.4802 H   0  0  0  0  0  0  0  0  0  0  0  0
   -0.7447    5.2443   -0.8261 H   0  0  0  0  0  0  0  0  0  0  0  0
   -1.0021    4.3971    0.7153 H   0  0  0  0  0  0  0  0  0  0  0  0
   -0.1711   -0.0594    1.8296 C   0  0  0  0  0  0  0  0  0  0  0  0
    0.9865   -0.2908    2.1726 O   0  0  0  0  0  0  0  0  0  0  0  0
   -1.0921    0.4156    2.6780 N   0  0  0  0  0  0  0  0  0  0  0  0
   -2.0168    0.5953    2.3206 H   0  0  0  0  0  0  0  0  0  0  0  0
   -0.8319    0.7034    4.0877 C   0  0  0  0  0  0  0  0  0  0  0  0
   -0.0192    1.4288    4.1710 H   0  0  0  0  0  0  0  0  0  0  0  0
   -1.7255    1.1088    4.5641 H   0  0  0  0  0  0  0  0  0  0  0  0
   -0.5319   -0.2118    4.6011 H   0  0  0  0  0  0  0  0  0  0  0  0
  5  6  2  0  0  0  0
  5  7  1  0  0  0  0
  2  3  1  0  0  0  0
  2  4  1  0  0  0  0
  2  5  1  0  0  0  0
  1  2  1  0  0  0  0
 22 23  2  0  0  0  0
 22 24  1  0  0  0  0
 18 19  1  0  0  0  0
 18 20  1  0  0  0  0
 18 21  1  0  0  0  0
 17 18  1  0  0  0  0
 14 15  1  0  0  0  0
 14 16  1  0  0  0  0
 14 17  1  0  0  0  0
 11 12  1  0  0  0  0
 11 13  1  0  0  0  0
 11 14  1  0  0  0  0
  9 10  1  0  0  0  0
  9 11  1  0  0  0  0
  9 22  1  0  0  0  0
  7  8  1  0  0  0  0
  7  9  1  0  0  0  0
 26 27  1  0  0  0  0
 26 28  1  0  0  0  0
 26 29  1  0  0  0  0
 24 25  1  0  0  0  0
 24 26  1  0  0  0  0
M  END
$$$$
default_name
  -OEChem-02102213163D

 29 28  0     1  0  0  0  0  0999 V2000
   -3.5781   -3.7296    1.2702 H   0  0  0  0  0  0  0  0  0  0  0  0
   -3.5311   -2.7616    0.7732 C   0  0  0  0  0  0  0  0  0  0  0  0
   -4.2371   -2.0766    1.2382 H   0  0  0  0  0  0  0  0  0  0  0  0
   -3.7681   -2.8816   -0.2818 H   0  0  0  0  0  0  0  0  0  0  0  0
   -2.1321   -2.2086    0.9112 C   0  0  0  0  0  0  0  0  0  0  0  0
   -1.2751   -2.8426    1.5112 O   0  0  0  0  0  0  0  0  0  0  0  0
   -1.9041   -1.0186    0.3602 N   0  0  0  0  0  0  0  0  0  0  0  0
   -2.6671   -0.5416   -0.0988 H   0  0  0  0  0  0  0  0  0  0  0  0
   -0.6131   -0.3236    0.3832 C   0  0  1  0  0  0  0  0  0  0  0  0
    0.1346   -0.9625   -0.0894 H   0  0  0  0  0  0  0  0  0  0  0  0
   -0.7253    0.9751   -0.4365 C   0  0  0  0  0  0  0  0  0  0  0  0
    0.1359    1.6078   -0.2114 H   0  0  0  0  0  0  0  0  0  0  0  0
   -0.7015    0.7325   -1.4999 H   0  0  0  0  0  0  0  0  0  0  0  0
   -2.0002    1.7750   -0.1449 C   0  0  0  0  0  0  0  0  0  0  0  0
   -2.8494    1.0933   -0.1084 H   0  0  0  0  0  0  0  0  0  0  0  0
   -1.8961    2.2578    0.8274 H   0  0  0  0  0  0  0  0  0  0  0  0
   -2.3558    3.0499   -1.3810 S   0  0  0  0  0  0  0  0  0  0  0  0
   -0.9996    4.2009   -1.0377 C   0  0  0  0  0  0  0  0  0  0  0  0
   -0.0438    3.6984   -1.1886 H   0  0  0  0  0  0  0  0  0  0  0  0
   -1.0683    5.0526   -1.7150 H   0  0  0  0  0  0  0  0  0  0  0  0
   -1.0689    4.5545   -0.0086 H   0  0  0  0  0  0  0  0  0  0  0  0
   -0.1711   -0.0594    1.8296 C   0  0  0  0  0  0  0  0  0  0  0  0
    0.9865   -0.2908    2.1726 O   0  0  0  0  0  0  0  0  0  0  0  0
   -1.0921    0.4156    2.6780 N   0  0  0  0  0  0  0  0  0  0  0  0
   -2.0168    0.5953    2.3206 H   0  0  0  0  0  0  0  0  0  0  0  0
   -0.8319    0.7034    4.0877 C   0  0  0  0  0  0  0  0  0  0  0  0
   -0.0192    1.4288    4.1710 H   0  0  0  0  0  0  0  0  0  0  0  0
   -1.7255    1.1088    4.5641 H   0  0  0  0  0  0  0  0  0  0  0  0
   -0.5319   -0.2118    4.6011 H   0  0  0  0  0  0  0  0  0  0  0  0
  5  6  2  0  0  0  0
  5  7  1  0  0  0  0
  2  3  1  0  0  0  0
  2  4  1  0  0  0  0
  2  5  1  0  0  0  0
  1  2  1  0  0  0  0
 22 23  2  0  0  0  0
 22 24  1  0  0  0  0
 18 19  1  0  0  0  0
 18 20  1  0  0  0  0
 18 21  1  0  0  0  0
 17 18  1  0  0  0  0
 14 15  1  0  0  0  0
 14 16  1  0  0  0  0
 14 17  1  0  0  0  0
 11 12  1  0  0  0  0
 11 13  1  0  0  0  0
 11 14  1  0  0  0  0
  9 10  1  0  0  0  0
  9 11  1  0  0  0  0
  9 22  1  0  0  0  0
  7  8  1  0  0  0  0
  7  9  1  0  0  0  0
 26 27  1  0  0  0  0
 26 28  1  0  0  0  0
 26 29  1  0  0  0  0
 24 25  1  0  0  0  0
 24 26  1  0  0  0  0
M  END
$$$$
default_name
  -OEChem-02102213163D

 29 28  0     1  0  0  0  0  0999 V2000
   -3.5781   -3.7296    1.2702 H   0  0  0  0  0  0  0  0  0  0  0  0
   -3.5311   -2.7616    0.7732 C   0  0  0  0  0  0  0  0  0  0  0  0
   -4.2371   -2.0766    1.2382 H   0  0  0  0  0  0  0  0  0  0  0  0
   -3.7681   -2.8816   -0.2818 H   0  0  0  0  0  0  0  0  0  0  0  0
   -2.1321   -2.2086    0.9112 C   0  0  0  0  0  0  0  0  0  0  0  0
   -1.2751   -2.8426    1.5112 O   0  0  0  0  0  0  0  0  0  0  0  0
   -1.9041   -1.0186    0.3602 N   0  0  0  0  0  0  0  0  0  0  0  0
   -2.6671   -0.5416   -0.0988 H   0  0  0  0  0  0  0  0  0  0  0  0
   -0.6131   -0.3236    0.3832 C   0  0  1  0  0  0  0  0  0  0  0  0
    0.1346   -0.9625   -0.0894 H   0  0  0  0  0  0  0  0  0  0  0  0
   -0.7253    0.9751   -0.4365 C   0  0  0  0  0  0  0  0  0  0  0  0
    0.1359    1.6078   -0.2114 H   0  0  0  0  0  0  0  0  0  0  0  0
   -0.7015    0.7325   -1.4999 H   0  0  0  0  0  0  0  0  0  0  0  0
   -2.0002    1.7750   -0.1449 C   0  0  0  0  0  0  0  0  0  0  0  0
   -2.7921    1.0889    0.1540 H   0  0  0  0  0  0  0  0  0  0  0  0
   -1.8020    2.4620    0.6786 H   0  0  0  0  0  0  0  0  0  0  0  0
   -2.5939    2.7358   -1.5605 S   0  0  0  0  0  0  0  0  0  0  0  0
   -1.2812    3.9800   -1.6628 C   0  0  0  0  0  0  0  0  0  0  0  0
   -0.3228    3.4899   -1.8365 H   0  0  0  0  0  0  0  0  0  0  0  0
   -1.4915    4.6602   -2.4887 H   0  0  0  0  0  0  0  0  0  0  0  0
   -1.2389    4.5474   -0.7327 H   0  0  0  0  0  0  0  0  0  0  0  0
   -0.1711   -0.0594    1.8296 C   0  0  0  0  0  0  0  0  0  0  0  0
    0.9865   -0.2908    2.1726 O   0  0  0  0  0  0  0  0  0  0  0  0
   -1.0921    0.4156    2.6780 N   0  0  0  0  0  0  0  0  0  0  0  0
   -2.0168    0.5953    2.3206 H   0  0  0  0  0  0  0  0  0  0  0  0
   -0.8319    0.7034    4.0877 C   0  0  0  0  0  0  0  0  0  0  0  0
   -0.0192    1.4288    4.1710 H   0  0  0  0  0  0  0  0  0  0  0  0
   -1.7255    1.1088    4.5641 H   0  0  0  0  0  0  0  0  0  0  0  0
   -0.5319   -0.2118    4.6011 H   0  0  0  0  0  0  0  0  0  0  0  0
  5  6  2  0  0  0  0
  5  7  1  0  0  0  0
  2  3  1  0  0  0  0
  2  4  1  0  0  0  0
  2  5  1  0  0  0  0
  1  2  1  0  0  0  0
 22 23  2  0  0  0  0
 22 24  1  0  0  0  0
 18 19  1  0  0  0  0
 18 20  1  0  0  0  0
 18 21  1  0  0  0  0
 17 18  1  0  0  0  0
 14 15  1  0  0  0  0
 14 16  1  0  0  0  0
 14 17  1  0  0  0  0
 11 12  1  0  0  0  0
 11 13  1  0  0  0  0
 11 14  1  0  0  0  0
  9 10  1  0  0  0  0
  9 11  1  0  0  0  0
  9 22  1  0  0  0  0
  7  8  1  0  0  0  0
  7  9  1  0  0  0  0
 26 27  1  0  0  0  0
 26 28  1  0  0  0  0
 26 29  1  0  0  0  0
 24 25  1  0  0  0  0
 24 26  1  0  0  0  0
M  END
$$$$
default_name
  -OEChem-02102213163D

 29 28  0     1  0  0  0  0  0999 V2000
   -3.5781   -3.7296    1.2702 H   0  0  0  0  0  0  0  0  0  0  0  0
   -3.5311   -2.7616    0.7732 C   0  0  0  0  0  0  0  0  0  0  0  0
   -4.2371   -2.0766    1.2382 H   0  0  0  0  0  0  0  0  0  0  0  0
   -3.7681   -2.8816   -0.2818 H   0  0  0  0  0  0  0  0  0  0  0  0
   -2.1321   -2.2086    0.9112 C   0  0  0  0  0  0  0  0  0  0  0  0
   -1.2751   -2.8426    1.5112 O   0  0  0  0  0  0  0  0  0  0  0  0
   -1.9041   -1.0186    0.3602 N   0  0  0  0  0  0  0  0  0  0  0  0
   -2.6671   -0.5416   -0.0988 H   0  0  0  0  0  0  0  0  0  0  0  0
   -0.6131   -0.3236    0.3832 C   0  0  1  0  0  0  0  0  0  0  0  0
    0.1346   -0.9625   -0.0894 H   0  0  0  0  0  0  0  0  0  0  0  0
   -0.7253    0.9751   -0.4365 C   0  0  0  0  0  0  0  0  0  0  0  0
    0.1359    1.6078   -0.2114 H   0  0  0  0  0  0  0  0  0  0  0  0
   -0.7015    0.7325   -1.4999 H   0  0  0  0  0  0  0  0  0  0  0  0
   -2.0002    1.7750   -0.1449 C   0  0  0  0  0  0  0  0  0  0  0  0
   -2.7011    1.1440    0.4008 H   0  0  0  0  0  0  0  0  0  0  0  0
   -1.7413    2.6318    0.4782 H   0  0  0  0  0  0  0  0  0  0  0  0
   -2.8327    2.3820   -1.6342 S   0  0  0  0  0  0  0  0  0  0  0  0
   -1.6267    3.6182   -2.1811 C   0  0  0  0  0  0  0  0  0  0  0  0
   -0.6695    3.1353   -2.3799 H   0  0  0  0  0  0  0  0  0  0  0  0
   -1.9854    4.0938   -3.0944 H   0  0  0  0  0  0  0  0  0  0  0  0
   -1.5006    4.3764   -1.4077 H   0  0  0  0  0  0  0  0  0  0  0  0
   -0.1711   -0.0594    1.8296 C   0  0  0  0  0  0  0  0  0  0  0  0
    0.9865   -0.2908    2.1726 O   0  0  0  0  0  0  0  0  0  0  0  0
   -1.0921    0.4156    2.6780 N   0  0  0  0  0  0  0  0  0  0  0  0
   -2.0168    0.5953    2.3206 H   0  0  0  0  0  0  0  0  0  0  0  0
   -0.8319    0.7034    4.0877 C   0  0  0  0  0  0  0  0  0  0  0  0
   -0.0192    1.4288    4.1710 H   0  0  0  0  0  0  0  0  0  0  0  0
   -1.7255    1.1088    4.5641 H   0  0  0  0  0  0  0  0  0  0  0  0
   -0.5319   -0.2118    4.6011 H   0  0  0  0  0  0  0  0  0  0  0  0
  5  6  2  0  0  0  0
  5  7  1  0  0  0  0
  2  3  1  0  0  0  0
  2  4  1  0  0  0  0
  2  5  1  0  0  0  0
  1  2  1  0  0  0  0
 22 23  2  0  0  0  0
 22 24  1  0  0  0  0
 18 19  1  0  0  0  0
 18 20  1  0  0  0  0
 18 21  1  0  0  0  0
 17 18  1  0  0  0  0
 14 15  1  0  0  0  0
 14 16  1  0  0  0  0
 14 17  1  0  0  0  0
 11 12  1  0  0  0  0
 11 13  1  0  0  0  0
 11 14  1  0  0  0  0
  9 10  1  0  0  0  0
  9 11  1  0  0  0  0
  9 22  1  0  0  0  0
  7  8  1  0  0  0  0
  7  9  1  0  0  0  0
 26 27  1  0  0  0  0
 26 28  1  0  0  0  0
 26 29  1  0  0  0  0
 24 25  1  0  0  0  0
 24 26  1  0  0  0  0
M  END
$$$$
default_name
  -OEChem-02102213163D

 29 28  0     1  0  0  0  0  0999 V2000
   -3.5781   -3.7296    1.2702 H   0  0  0  0  0  0  0  0  0  0  0  0
   -3.5311   -2.7616    0.7732 C   0  0  0  0  0  0  0  0  0  0  0  0
   -4.2371   -2.0766    1.2382 H   0  0  0  0  0  0  0  0  0  0  0  0
   -3.7681   -2.8816   -0.2818 H   0  0  0  0  0  0  0  0  0  0  0  0
   -2.1321   -2.2086    0.9112 C   0  0  0  0  0  0  0  0  0  0  0  0
   -1.2751   -2.8426    1.5112 O   0  0  0  0  0  0  0  0  0  0  0  0
   -1.9041   -1.0186    0.3602 N   0  0  0  0  0  0  0  0  0  0  0  0
   -2.6671   -0.5416   -0.0988 H   0  0  0  0  0  0  0  0  0  0  0  0
   -0.6131   -0.3236    0.3832 C   0  0  1  0  0  0  0  0  0  0  0  0
    0.1346   -0.9625   -0.0894 H   0  0  0  0  0  0  0  0  0  0  0  0
   -0.7253    0.9751   -0.4365 C   0  0  0  0  0  0  0  0  0  0  0  0
    0.1359    1.6078   -0.2114 H   0  0  0  0  0  0  0  0  0  0  0  0
   -0.7015    0.7325   -1.4999 H   0  0  0  0  0  0  0  0  0  0  0  0
   -2.0002    1.7750   -0.1449 C   0  0  0  0  0  0  0  0  0  0  0  0
   -2.5826    1.2548    0.6150 H   0  0  0  0  0  0  0  0  0  0  0  0
   -1.7180    2.7557    0.2398 H   0  0  0  0  0  0  0  0  0  0  0  0
   -3.0559    2.0127   -1.5970 S   0  0  0  0  0  0  0  0  0  0  0  0
   -2.0126    3.1403   -2.5572 C   0  0  0  0  0  0  0  0  0  0  0  0
   -1.0604    2.6588   -2.7815 H   0  0  0  0  0  0  0  0  0  0  0  0
   -2.5164    3.3920   -3.4909 H   0  0  0  0  0  0  0  0  0  0  0  0
   -1.8361    4.0530   -1.9875 H   0  0  0  0  0  0  0  0  0  0  0  0
   -0.1711   -0.0594    1.8296 C   0  0  0  0  0  0  0  0  0  0  0  0
    0.9865   -0.2908    2.1726 O   0  0  0  0  0  0  0  0  0  0  0  0
   -1.0921    0.4156    2.6780 N   0  0  0  0  0  0  0  0  0  0  0  0
   -2.0168    0.5953    2.3206 H   0  0  0  0  0  0  0  0  0  0  0  0
   -0.8319    0.7034    4.0877 C   0  0  0  0  0  0  0  0  0  0  0  0
   -0.0192    1.4288    4.1710 H   0  0  0  0  0  0  0  0  0  0  0  0
   -1.7255    1.1088    4.5641 H   0  0  0  0  0  0  0  0  0  0  0  0
   -0.5319   -0.2118    4.6011 H   0  0  0  0  0  0  0  0  0  0  0  0
  5  6  2  0  0  0  0
  5  7  1  0  0  0  0
  2  3  1  0  0  0  0
  2  4  1  0  0  0  0
  2  5  1  0  0  0  0
  1  2  1  0  0  0  0
 22 23  2  0  0  0  0
 22 24  1  0  0  0  0
 18 19  1  0  0  0  0
 18 20  1  0  0  0  0
 18 21  1  0  0  0  0
 17 18  1  0  0  0  0
 14 15  1  0  0  0  0
 14 16  1  0  0  0  0
 14 17  1  0  0  0  0
 11 12  1  0  0  0  0
 11 13  1  0  0  0  0
 11 14  1  0  0  0  0
  9 10  1  0  0  0  0
  9 11  1  0  0  0  0
  9 22  1  0  0  0  0
  7  8  1  0  0  0  0
  7  9  1  0  0  0  0
 26 27  1  0  0  0  0
 26 28  1  0  0  0  0
 26 29  1  0  0  0  0
 24 25  1  0  0  0  0
 24 26  1  0  0  0  0
M  END
$$$$
default_name
  -OEChem-02102213163D

 29 28  0     1  0  0  0  0  0999 V2000
   -3.5781   -3.7296    1.2702 H   0  0  0  0  0  0  0  0  0  0  0  0
   -3.5311   -2.7616    0.7732 C   0  0  0  0  0  0  0  0  0  0  0  0
   -4.2371   -2.0766    1.2382 H   0  0  0  0  0  0  0  0  0  0  0  0
   -3.7681   -2.8816   -0.2818 H   0  0  0  0  0  0  0  0  0  0  0  0
   -2.1321   -2.2086    0.9112 C   0  0  0  0  0  0  0  0  0  0  0  0
   -1.2751   -2.8426    1.5112 O   0  0  0  0  0  0  0  0  0  0  0  0
   -1.9041   -1.0186    0.3602 N   0  0  0  0  0  0  0  0  0  0  0  0
   -2.6671   -0.5416   -0.0988 H   0  0  0  0  0  0  0  0  0  0  0  0
   -0.6131   -0.3236    0.3832 C   0  0  1  0  0  0  0  0  0  0  0  0
    0.1346   -0.9625   -0.0894 H   0  0  0  0  0  0  0  0  0  0  0  0
   -0.7253    0.9751   -0.4365 C   0  0  0  0  0  0  0  0  0  0  0  0
    0.1359    1.6078   -0.2114 H   0  0  0  0  0  0  0  0  0  0  0  0
   -0.7015    0.7325   -1.4999 H   0  0  0  0  0  0  0  0  0  0  0  0
   -2.0002    1.7750   -0.1449 C   0  0  0  0  0  0  0  0  0  0  0  0
   -2.4446    1.4138    0.7820 H   0  0  0  0  0  0  0  0  0  0  0  0
   -1.7339    2.8252   -0.0202 H   0  0  0  0  0  0  0  0  0  0  0  0
   -3.2483    1.6530   -1.4514 S   0  0  0  0  0  0  0  0  0  0  0  0
   -2.4127    2.5786   -2.7655 C   0  0  0  0  0  0  0  0  0  0  0  0
   -1.4687    2.0928   -3.0142 H   0  0  0  0  0  0  0  0  0  0  0  0
   -3.0483    2.6026   -3.6510 H   0  0  0  0  0  0  0  0  0  0  0  0
   -2.2226    3.5994   -2.4326 H   0  0  0  0  0  0  0  0  0  0  0  0
   -0.1711   -0.0594    1.8296 C   0  0  0  0  0  0  0  0  0  0  0  0
    0.9865   -0.2908    2.1726 O   0  0  0  0  0  0  0  0  0  0  0  0
   -1.0921    0.4156    2.6780 N   0  0  0  0  0  0  0  0  0  0  0  0
   -2.0168    0.5953    2.3206 H   0  0  0  0  0  0  0  0  0  0  0  0
   -0.8319    0.7034    4.0877 C   0  0  0  0  0  0  0  0  0  0  0  0
   -0.0192    1.4288    4.1710 H   0  0  0  0  0  0  0  0  0  0  0  0
   -1.7255    1.1088    4.5641 H   0  0  0  0  0  0  0  0  0  0  0  0
   -0.5319   -0.2118    4.6011 H   0  0  0  0  0  0  0  0  0  0  0  0
  5  6  2  0  0  0  0
  5  7  1  0  0  0  0
  2  3  1  0  0  0  0
  2  4  1  0  0  0  0
  2  5  1  0  0  0  0
  1  2  1  0  0  0  0
 22 23  2  0  0  0  0
 22 24  1  0  0  0  0
 18 19  1  0  0  0  0
 18 20  1  0  0  0  0
 18 21  1  0  0  0  0
 17 18  1  0  0  0  0
 14 15  1  0  0  0  0
 14 16  1  0  0  0  0
 14 17  1  0  0  0  0
 11 12  1  0  0  0  0
 11 13  1  0  0  0  0
 11 14  1  0  0  0  0
  9 10  1  0  0  0  0
  9 11  1  0  0  0  0
  9 22  1  0  0  0  0
  7  8  1  0  0  0  0
  7  9  1  0  0  0  0
 26 27  1  0  0  0  0
 26 28  1  0  0  0  0
 26 29  1  0  0  0  0
 24 25  1  0  0  0  0
 24 26  1  0  0  0  0
M  END
$$$$
default_name
  -OEChem-02102213163D

 29 28  0     1  0  0  0  0  0999 V2000
   -3.5781   -3.7296    1.2702 H   0  0  0  0  0  0  0  0  0  0  0  0
   -3.5311   -2.7616    0.7732 C   0  0  0  0  0  0  0  0  0  0  0  0
   -4.2371   -2.0766    1.2382 H   0  0  0  0  0  0  0  0  0  0  0  0
   -3.7681   -2.8816   -0.2818 H   0  0  0  0  0  0  0  0  0  0  0  0
   -2.1321   -2.2086    0.9112 C   0  0  0  0  0  0  0  0  0  0  0  0
   -1.2751   -2.8426    1.5112 O   0  0  0  0  0  0  0  0  0  0  0  0
   -1.9041   -1.0186    0.3602 N   0  0  0  0  0  0  0  0  0  0  0  0
   -2.6671   -0.5416   -0.0988 H   0  0  0  0  0  0  0  0  0  0  0  0
   -0.6131   -0.3236    0.3832 C   0  0  1  0  0  0  0  0  0  0  0  0
    0.1346   -0.9625   -0.0894 H   0  0  0  0  0  0  0  0  0  0  0  0
   -0.7253    0.9751   -0.4365 C   0  0  0  0  0  0  0  0  0  0  0  0
    0.1359    1.6078   -0.2114 H   0  0  0  0  0  0  0  0  0  0  0  0
   -0.7015    0.7325   -1.4999 H   0  0  0  0  0  0  0  0  0  0  0  0
   -2.0002    1.7750   -0.1449 C   0  0  0  0  0  0  0  0  0  0  0  0
   -2.2966    1.6101    0.8905 H   0  0  0  0  0  0  0  0  0  0  0  0
   -1.7877    2.8356   -0.2842 H   0  0  0  0  0  0  0  0  0  0  0  0
   -3.3968    1.3274   -1.2074 S   0  0  0  0  0  0  0  0  0  0  0  0
   -2.7996    1.9716   -2.7917 C   0  0  0  0  0  0  0  0  0  0  0  0
   -1.8666    1.4760   -3.0619 H   0  0  0  0  0  0  0  0  0  0  0  0
   -3.5449    1.7795   -3.5640 H   0  0  0  0  0  0  0  0  0  0  0  0
   -2.6336    3.0463   -2.7128 H   0  0  0  0  0  0  0  0  0  0  0  0
   -0.1711   -0.0594    1.8296 C   0  0  0  0  0  0  0  0  0  0  0  0
    0.9865   -0.2908    2.1726 O   0  0  0  0  0  0  0  0  0  0  0  0
   -1.0921    0.4156    2.6780 N   0  0  0  0  0  0  0  0  0  0  0  0
   -2.0168    0.5953    2.3206 H   0  0  0  0  0  0  0  0  0  0  0  0
   -0.8319    0.7034    4.0877 C   0  0  0  0  0  0  0  0  0  0  0  0
   -0.0192    1.4288    4.1710 H   0  0  0  0  0  0  0  0  0  0  0  0
   -1.7255    1.1088    4.5641 H   0  0  0  0  0  0  0  0  0  0  0  0
   -0.5319   -0.2118    4.6011 H   0  0  0  0  0  0  0  0  0  0  0  0
  5  6  2  0  0  0  0
  5  7  1  0  0  0  0
  2  3  1  0  0  0  0
  2  4  1  0  0  0  0
  2  5  1  0  0  0  0
  1  2  1  0  0  0  0
 22 23  2  0  0  0  0
 22 24  1  0  0  0  0
 18 19  1  0  0  0  0
 18 20  1  0  0  0  0
 18 21  1  0  0  0  0
 17 18  1  0  0  0  0
 14 15  1  0  0  0  0
 14 16  1  0  0  0  0
 14 17  1  0  0  0  0
 11 12  1  0  0  0  0
 11 13  1  0  0  0  0
 11 14  1  0  0  0  0
  9 10  1  0  0  0  0
  9 11  1  0  0  0  0
  9 22  1  0  0  0  0
  7  8  1  0  0  0  0
  7  9  1  0  0  0  0
 26 27  1  0  0  0  0
 26 28  1  0  0  0  0
 26 29  1  0  0  0  0
 24 25  1  0  0  0  0
 24 26  1  0  0  0  0
M  END
$$$$
default_name
  -OEChem-02102213163D

 29 28  0     1  0  0  0  0  0999 V2000
   -3.5781   -3.7296    1.2702 H   0  0  0  0  0  0  0  0  0  0  0  0
   -3.5311   -2.7616    0.7732 C   0  0  0  0  0  0  0  0  0  0  0  0
   -4.2371   -2.0766    1.2382 H   0  0  0  0  0  0  0  0  0  0  0  0
   -3.7681   -2.8816   -0.2818 H   0  0  0  0  0  0  0  0  0  0  0  0
   -2.1321   -2.2086    0.9112 C   0  0  0  0  0  0  0  0  0  0  0  0
   -1.2751   -2.8426    1.5112 O   0  0  0  0  0  0  0  0  0  0  0  0
   -1.9041   -1.0186    0.3602 N   0  0  0  0  0  0  0  0  0  0  0  0
   -2.6671   -0.5416   -0.0988 H   0  0  0  0  0  0  0  0  0  0  0  0
   -0.6131   -0.3236    0.3832 C   0  0  1  0  0  0  0  0  0  0  0  0
    0.1346   -0.9625   -0.0894 H   0  0  0  0  0  0  0  0  0  0  0  0
   -0.7253    0.9751   -0.4365 C   0  0  0  0  0  0  0  0  0  0  0  0
    0.1359    1.6078   -0.2114 H   0  0  0  0  0  0  0  0  0  0  0  0
   -0.7015    0.7325   -1.4999 H   0  0  0  0  0  0  0  0  0  0  0  0
   -2.0002    1.7750   -0.1449 C   0  0  0  0  0  0  0  0  0  0  0  0
   -2.1487    1.8303    0.9331 H   0  0  0  0  0  0  0  0  0  0  0  0
   -1.8759    2.7862   -0.5341 H   0  0  0  0  0  0  0  0  0  0  0  0
   -3.4912    1.0582   -0.8815 S   0  0  0  0  0  0  0  0  0  0  0  0
   -3.1469    1.3605   -2.6342 C   0  0  0  0  0  0  0  0  0  0  0  0
   -2.2271    0.8503   -2.9215 H   0  0  0  0  0  0  0  0  0  0  0  0
   -3.9722    0.9787   -3.2358 H   0  0  0  0  0  0  0  0  0  0  0  0
   -3.0413    2.4316   -2.8088 H   0  0  0  0  0  0  0  0  0  0  0  0
   -0.1711   -0.0594    1.8296 C   0  0  0  0  0  0  0  0  0  0  0  0
    0.9865   -0.2908    2.1726 O   0  0  0  0  0  0  0  0  0  0  0  0
   -1.0921    0.4156    2.6780 N   0  0  0  0  0  0  0  0  0  0  0  0
   -2.0168    0.5953    2.3206 H   0  0  0  0  0  0  0  0  0  0  0  0
   -0.8319    0.7034    4.0877 C   0  0  0  0  0  0  0  0  0  0  0  0
   -0.0192    1.4288    4.1710 H   0  0  0  0  0  0  0  0  0  0  0  0
   -1.7255    1.1088    4.5641 H   0  0  0  0  0  0  0  0  0  0  0  0
   -0.5319   -0.2118    4.6011 H   0  0  0  0  0  0  0  0  0  0  0  0
  5  6  2  0  0  0  0
  5  7  1  0  0  0  0
  2  3  1  0  0  0  0
  2  4  1  0  0  0  0
  2  5  1  0  0  0  0
  1  2  1  0  0  0  0
 22 23  2  0  0  0  0
 22 24  1  0  0  0  0
 18 19  1  0  0  0  0
 18 20  1  0  0  0  0
 18 21  1  0  0  0  0
 17 18  1  0  0  0  0
 14 15  1  0  0  0  0
 14 16  1  0  0  0  0
 14 17  1  0  0  0  0
 11 12  1  0  0  0  0
 11 13  1  0  0  0  0
 11 14  1  0  0  0  0
  9 10  1  0  0  0  0
  9 11  1  0  0  0  0
  9 22  1  0  0  0  0
  7  8  1  0  0  0  0
  7  9  1  0  0  0  0
 26 27  1  0  0  0  0
 26 28  1  0  0  0  0
 26 29  1  0  0  0  0
 24 25  1  0  0  0  0
 24 26  1  0  0  0  0
M  END
$$$$
default_name
  -OEChem-02102213163D

 29 28  0     1  0  0  0  0  0999 V2000
   -3.5781   -3.7296    1.2702 H   0  0  0  0  0  0  0  0  0  0  0  0
   -3.5311   -2.7616    0.7732 C   0  0  0  0  0  0  0  0  0  0  0  0
   -4.2371   -2.0766    1.2382 H   0  0  0  0  0  0  0  0  0  0  0  0
   -3.7681   -2.8816   -0.2818 H   0  0  0  0  0  0  0  0  0  0  0  0
   -2.1321   -2.2086    0.9112 C   0  0  0  0  0  0  0  0  0  0  0  0
   -1.2751   -2.8426    1.5112 O   0  0  0  0  0  0  0  0  0  0  0  0
   -1.9041   -1.0186    0.3602 N   0  0  0  0  0  0  0  0  0  0  0  0
   -2.6671   -0.5416   -0.0988 H   0  0  0  0  0  0  0  0  0  0  0  0
   -0.6131   -0.3236    0.3832 C   0  0  1  0  0  0  0  0  0  0  0  0
    0.1346   -0.9625   -0.0894 H   0  0  0  0  0  0  0  0  0  0  0  0
   -0.7253    0.9751   -0.4365 C   0  0  0  0  0  0  0  0  0  0  0  0
    0.1359    1.6078   -0.2114 H   0  0  0  0  0  0  0  0  0  0  0  0
   -0.7015    0.7325   -1.4999 H   0  0  0  0  0  0  0  0  0  0  0  0
   -2.0002    1.7750   -0.1449 C   0  0  0  0  0  0  0  0  0  0  0  0
   -2.0109    2.0595    0.9068 H   0  0  0  0  0  0  0  0  0  0  0  0
   -1.9924    2.6803   -0.7530 H   0  0  0  0  0  0  0  0  0  0  0  0
   -3.5252    0.8636   -0.4961 S   0  0  0  0  0  0  0  0  0  0  0  0
   -3.4311    0.7871   -2.3036 C   0  0  0  0  0  0  0  0  0  0  0  0
   -2.5255    0.2584   -2.6026 H   0  0  0  0  0  0  0  0  0  0  0  0
   -4.3013    0.2548   -2.6886 H   0  0  0  0  0  0  0  0  0  0  0  0
   -3.4178    1.7971   -2.7143 H   0  0  0  0  0  0  0  0  0  0  0  0
   -0.1711   -0.0594    1.8296 C   0  0  0  0  0  0  0  0  0  0  0  0
    0.9865   -0.2908    2.1726 O   0  0  0  0  0  0  0  0  0  0  0  0
   -1.0921    0.4156    2.6780 N   0  0  0  0  0  0  0  0  0  0  0  0
   -2.0168    0.5953    2.3206 H   0  0  0  0  0  0  0  0  0  0  0  0
   -0.8319    0.7034    4.0877 C   0  0  0  0  0  0  0  0  0  0  0  0
   -0.0192    1.4288    4.1710 H   0  0  0  0  0  0  0  0  0  0  0  0
   -1.7255    1.1088    4.5641 H   0  0  0  0  0  0  0  0  0  0  0  0
   -0.5319   -0.2118    4.6011 H   0  0  0  0  0  0  0  0  0  0  0  0
  5  6  2  0  0  0  0
  5  7  1  0  0  0  0
  2  3  1  0  0  0  0
  2  4  1  0  0  0  0
  2  5  1  0  0  0  0
  1  2  1  0  0  0  0
 22 23  2  0  0  0  0
 22 24  1  0  0  0  0
 18 19  1  0  0  0  0
 18 20  1  0  0  0  0
 18 21  1  0  0  0  0
 17 18  1  0  0  0  0
 14 15  1  0  0  0  0
 14 16  1  0  0  0  0
 14 17  1  0  0  0  0
 11 12  1  0  0  0  0
 11 13  1  0  0  0  0
 11 14  1  0  0  0  0
  9 10  1  0  0  0  0
  9 11  1  0  0  0  0
  9 22  1  0  0  0  0
  7  8  1  0  0  0  0
  7  9  1  0  0  0  0
 26 27  1  0  0  0  0
 26 28  1  0  0  0  0
 26 29  1  0  0  0  0
 24 25  1  0  0  0  0
 24 26  1  0  0  0  0
M  END
$$$$
default_name
  -OEChem-02102213163D

 29 28  0     1  0  0  0  0  0999 V2000
   -3.5781   -3.7296    1.2702 H   0  0  0  0  0  0  0  0  0  0  0  0
   -3.5311   -2.7616    0.7732 C   0  0  0  0  0  0  0  0  0  0  0  0
   -4.2371   -2.0766    1.2382 H   0  0  0  0  0  0  0  0  0  0  0  0
   -3.7681   -2.8816   -0.2818 H   0  0  0  0  0  0  0  0  0  0  0  0
   -2.1321   -2.2086    0.9112 C   0  0  0  0  0  0  0  0  0  0  0  0
   -1.2751   -2.8426    1.5112 O   0  0  0  0  0  0  0  0  0  0  0  0
   -1.9041   -1.0186    0.3602 N   0  0  0  0  0  0  0  0  0  0  0  0
   -2.6671   -0.5416   -0.0988 H   0  0  0  0  0  0  0  0  0  0  0  0
   -0.6131   -0.3236    0.3832 C   0  0  1  0  0  0  0  0  0  0  0  0
    0.1346   -0.9625   -0.0894 H   0  0  0  0  0  0  0  0  0  0  0  0
   -0.7253    0.9751   -0.4365 C   0  0  0  0  0  0  0  0  0  0  0  0
    0.1359    1.6078   -0.2114 H   0  0  0  0  0  0  0  0  0  0  0  0
   -0.7015    0.7325   -1.4999 H   0  0  0  0  0  0  0  0  0  0  0  0
   -2.0002    1.7750   -0.1449 C   0  0  0  0  0  0  0  0  0  0  0  0
   -1.8927    2.2820    0.8135 H   0  0  0  0  0  0  0  0  0  0  0  0
   -2.1293    2.5252   -0.9259 H   0  0  0  0  0  0  0  0  0  0  0  0
   -3.4964    0.7569   -0.0773 S   0  0  0  0  0  0  0  0  0  0  0  0
   -3.6327    0.2904   -1.8225 C   0  0  0  0  0  0  0  0  0  0  0  0
   -2.7416   -0.2594   -2.1268 H   0  0  0  0  0  0  0  0  0  0  0  0
   -4.5096   -0.3428   -1.9599 H   0  0  0  0  0  0  0  0  0  0  0  0
   -3.7374    1.1860   -2.4355 H   0  0  0  0  0  0  0  0  0  0  0  0
   -0.1711   -0.0594    1.8296 C   0  0  0  0  0  0  0  0  0  0  0  0
    0.9865   -0.2908    2.1726 O   0  0  0  0  0  0  0  0  0  0  0  0
   -1.0921    0.4156    2.6780 N   0  0  0  0  0  0  0  0  0  0  0  0
   -2.0168    0.5953    2.3206 H   0  0  0  0  0  0  0  0  0  0  0  0
   -0.8319    0.7034    4.0877 C   0  0  0  0  0  0  0  0  0  0  0  0
   -0.0192    1.4288    4.1710 H   0  0  0  0  0  0  0  0  0  0  0  0
   -1.7255    1.1088    4.5641 H   0  0  0  0  0  0  0  0  0  0  0  0
   -0.5319   -0.2118    4.6011 H   0  0  0  0  0  0  0  0  0  0  0  0
  5  6  2  0  0  0  0
  5  7  1  0  0  0  0
  2  3  1  0  0  0  0
  2  4  1  0  0  0  0
  2  5  1  0  0  0  0
  1  2  1  0  0  0  0
 22 23  2  0  0  0  0
 22 24  1  0  0  0  0
 18 19  1  0  0  0  0
 18 20  1  0  0  0  0
 18 21  1  0  0  0  0
 17 18  1  0  0  0  0
 14 15  1  0  0  0  0
 14 16  1  0  0  0  0
 14 17  1  0  0  0  0
 11 12  1  0  0  0  0
 11 13  1  0  0  0  0
 11 14  1  0  0  0  0
  9 10  1  0  0  0  0
  9 11  1  0  0  0  0
  9 22  1  0  0  0  0
  7  8  1  0  0  0  0
  7  9  1  0  0  0  0
 26 27  1  0  0  0  0
 26 28  1  0  0  0  0
 26 29  1  0  0  0  0
 24 25  1  0  0  0  0
 24 26  1  0  0  0  0
M  END
$$$$
default_name
  -OEChem-02102213163D

 29 28  0     1  0  0  0  0  0999 V2000
   -3.5781   -3.7296    1.2702 H   0  0  0  0  0  0  0  0  0  0  0  0
   -3.5311   -2.7616    0.7732 C   0  0  0  0  0  0  0  0  0  0  0  0
   -4.2371   -2.0766    1.2382 H   0  0  0  0  0  0  0  0  0  0  0  0
   -3.7681   -2.8816   -0.2818 H   0  0  0  0  0  0  0  0  0  0  0  0
   -2.1321   -2.2086    0.9112 C   0  0  0  0  0  0  0  0  0  0  0  0
   -1.2751   -2.8426    1.5112 O   0  0  0  0  0  0  0  0  0  0  0  0
   -1.9041   -1.0186    0.3602 N   0  0  0  0  0  0  0  0  0  0  0  0
   -2.6671   -0.5416   -0.0988 H   0  0  0  0  0  0  0  0  0  0  0  0
   -0.6131   -0.3236    0.3832 C   0  0  1  0  0  0  0  0  0  0  0  0
    0.1346   -0.9625   -0.0894 H   0  0  0  0  0  0  0  0  0  0  0  0
   -0.7253    0.9751   -0.4365 C   0  0  0  0  0  0  0  0  0  0  0  0
    0.1359    1.6078   -0.2114 H   0  0  0  0  0  0  0  0  0  0  0  0
   -0.7015    0.7325   -1.4999 H   0  0  0  0  0  0  0  0  0  0  0  0
   -2.0002    1.7750   -0.1449 C   0  0  0  0  0  0  0  0  0  0  0  0
   -1.8020    2.4826    0.6595 H   0  0  0  0  0  0  0  0  0  0  0  0
   -2.2772    2.3314   -1.0411 H   0  0  0  0  0  0  0  0  0  0  0  0
   -3.4067    0.7454    0.3463 S   0  0  0  0  0  0  0  0  0  0  0  0
   -3.7380   -0.0957   -1.2236 C   0  0  0  0  0  0  0  0  0  0  0  0
   -2.8606   -0.6677   -1.5266 H   0  0  0  0  0  0  0  0  0  0  0  0
   -4.5830   -0.7735   -1.0992 H   0  0  0  0  0  0  0  0  0  0  0  0
   -3.9785    0.6401   -1.9915 H   0  0  0  0  0  0  0  0  0  0  0  0
   -0.1711   -0.0594    1.8296 C   0  0  0  0  0  0  0  0  0  0  0  0
    0.9865   -0.2908    2.1726 O   0  0  0  0  0  0  0  0  0  0  0  0
   -1.0921    0.4156    2.6780 N   0  0  0  0  0  0  0  0  0  0  0  0
   -2.0168    0.5953    2.3206 H   0  0  0  0  0  0  0  0  0  0  0  0
   -0.8319    0.7034    4.0877 C   0  0  0  0  0  0  0  0  0  0  0  0
   -0.0192    1.4288    4.1710 H   0  0  0  0  0  0  0  0  0  0  0  0
   -1.7255    1.1088    4.5641 H   0  0  0  0  0  0  0  0  0  0  0  0
   -0.5319   -0.2118    4.6011 H   0  0  0  0  0  0  0  0  0  0  0  0
  5  6  2  0  0  0  0
  5  7  1  0  0  0  0
  2  3  1  0  0  0  0
  2  4  1  0  0  0  0
  2  5  1  0  0  0  0
  1  2  1  0  0  0  0
 22 23  2  0  0  0  0
 22 24  1  0  0  0  0
 18 19  1  0  0  0  0
 18 20  1  0  0  0  0
 18 21  1  0  0  0  0
 17 18  1  0  0  0  0
 14 15  1  0  0  0  0
 14 16  1  0  0  0  0
 14 17  1  0  0  0  0
 11 12  1  0  0  0  0
 11 13  1  0  0  0  0
 11 14  1  0  0  0  0
  9 10  1  0  0  0  0
  9 11  1  0  0  0  0
  9 22  1  0  0  0  0
  7  8  1  0  0  0  0
  7  9  1  0  0  0  0
 26 27  1  0  0  0  0
 26 28  1  0  0  0  0
 26 29  1  0  0  0  0
 24 25  1  0  0  0  0
 24 26  1  0  0  0  0
M  END
$$$$
default_name
  -OEChem-02102213163D

 29 28  0     1  0  0  0  0  0999 V2000
   -3.5781   -3.7296    1.2702 H   0  0  0  0  0  0  0  0  0  0  0  0
   -3.5311   -2.7616    0.7732 C   0  0  0  0  0  0  0  0  0  0  0  0
   -4.2371   -2.0766    1.2382 H   0  0  0  0  0  0  0  0  0  0  0  0
   -3.7681   -2.8816   -0.2818 H   0  0  0  0  0  0  0  0  0  0  0  0
   -2.1321   -2.2086    0.9112 C   0  0  0  0  0  0  0  0  0  0  0  0
   -1.2751   -2.8426    1.5112 O   0  0  0  0  0  0  0  0  0  0  0  0
   -1.9041   -1.0186    0.3602 N   0  0  0  0  0  0  0  0  0  0  0  0
   -2.6671   -0.5416   -0.0988 H   0  0  0  0  0  0  0  0  0  0  0  0
   -0.6131   -0.3236    0.3832 C   0  0  1  0  0  0  0  0  0  0  0  0
    0.1346   -0.9625   -0.0894 H   0  0  0  0  0  0  0  0  0  0  0  0
   -0.7253    0.9751   -0.4365 C   0  0  0  0  0  0  0  0  0  0  0  0
    0.1359    1.6078   -0.2114 H   0  0  0  0  0  0  0  0  0  0  0  0
   -0.7015    0.7325   -1.4999 H   0  0  0  0  0  0  0  0  0  0  0  0
   -2.0002    1.7750   -0.1449 C   0  0  0  0  0  0  0  0  0  0  0  0
   -1.7451    2.6478    0.4553 H   0  0  0  0  0  0  0  0  0  0  0  0
   -2.4261    2.1121   -1.0906 H   0  0  0  0  0  0  0  0  0  0  0  0
   -3.2623    0.8299    0.7458 S   0  0  0  0  0  0  0  0  0  0  0  0
   -3.7399   -0.3450   -0.5478 C   0  0  0  0  0  0  0  0  0  0  0  0
   -2.8743   -0.9388   -0.8429 H   0  0  0  0  0  0  0  0  0  0  0  0
   -4.5165   -1.0079   -0.1652 H   0  0  0  0  0  0  0  0  0  0  0  0
   -4.1245    0.1964   -1.4126 H   0  0  0  0  0  0  0  0  0  0  0  0
   -0.1711   -0.0594    1.8296 C   0  0  0  0  0  0  0  0  0  0  0  0
    0.9865   -0.2908    2.1726 O   0  0  0  0  0  0  0  0  0  0  0  0
   -1.0921    0.4156    2.6780 N   0  0  0  0  0  0  0  0  0  0  0  0
   -2.0168    0.5953    2.3206 H   0  0  0  0  0  0  0  0  0  0  0  0
   -0.8319    0.7034    4.0877 C   0  0  0  0  0  0  0  0  0  0  0  0
   -0.0192    1.4288    4.1710 H   0  0  0  0  0  0  0  0  0  0  0  0
   -1.7255    1.1088    4.5641 H   0  0  0  0  0  0  0  0  0  0  0  0
   -0.5319   -0.2118    4.6011 H   0  0  0  0  0  0  0  0  0  0  0  0
  5  6  2  0  0  0  0
  5  7  1  0  0  0  0
  2  3  1  0  0  0  0
  2  4  1  0  0  0  0
  2  5  1  0  0  0  0
  1  2  1  0  0  0  0
 22 23  2  0  0  0  0
 22 24  1  0  0  0  0
 18 19  1  0  0  0  0
 18 20  1  0  0  0  0
 18 21  1  0  0  0  0
 17 18  1  0  0  0  0
 14 15  1  0  0  0  0
 14 16  1  0  0  0  0
 14 17  1  0  0  0  0
 11 12  1  0  0  0  0
 11 13  1  0  0  0  0
 11 14  1  0  0  0  0
  9 10  1  0  0  0  0
  9 11  1  0  0  0  0
  9 22  1  0  0  0  0
  7  8  1  0  0  0  0
  7  9  1  0  0  0  0
 26 27  1  0  0  0  0
 26 28  1  0  0  0  0
 26 29  1  0  0  0  0
 24 25  1  0  0  0  0
 24 26  1  0  0  0  0
M  END
$$$$
default_name
  -OEChem-02102213163D

 29 28  0     1  0  0  0  0  0999 V2000
   -3.5781   -3.7296    1.2702 H   0  0  0  0  0  0  0  0  0  0  0  0
   -3.5311   -2.7616    0.7732 C   0  0  0  0  0  0  0  0  0  0  0  0
   -4.2371   -2.0766    1.2382 H   0  0  0  0  0  0  0  0  0  0  0  0
   -3.7681   -2.8816   -0.2818 H   0  0  0  0  0  0  0  0  0  0  0  0
   -2.1321   -2.2086    0.9112 C   0  0  0  0  0  0  0  0  0  0  0  0
   -1.2751   -2.8426    1.5112 O   0  0  0  0  0  0  0  0  0  0  0  0
   -1.9041   -1.0186    0.3602 N   0  0  0  0  0  0  0  0  0  0  0  0
   -2.6671   -0.5416   -0.0988 H   0  0  0  0  0  0  0  0  0  0  0  0
   -0.6131   -0.3236    0.3832 C   0  0  1  0  0  0  0  0  0  0  0  0
    0.1346   -0.9625   -0.0894 H   0  0  0  0  0  0  0  0  0  0  0  0
   -0.7253    0.9751   -0.4365 C   0  0  0  0  0  0  0  0  0  0  0  0
    0.1359    1.6078   -0.2114 H   0  0  0  0  0  0  0  0  0  0  0  0
   -0.7015    0.7325   -1.4999 H   0  0  0  0  0  0  0  0  0  0  0  0
   -2.0002    1.7750   -0.1449 C   0  0  0  0  0  0  0  0  0  0  0  0
   -1.7258    2.7661    0.2149 H   0  0  0  0  0  0  0  0  0  0  0  0
   -2.5658    1.8823   -1.0712 H   0  0  0  0  0  0  0  0  0  0  0  0
   -3.0731    1.0046    1.0940 S   0  0  0  0  0  0  0  0  0  0  0  0
   -3.6382   -0.4404    0.1589 C   0  0  0  0  0  0  0  0  0  0  0  0
   -2.7819   -1.0542   -0.1223 H   0  0  0  0  0  0  0  0  0  0  0  0
   -4.3145   -1.0300    0.7784 H   0  0  0  0  0  0  0  0  0  0  0  0
   -4.1655   -0.1148   -0.7382 H   0  0  0  0  0  0  0  0  0  0  0  0
   -0.1711   -0.0594    1.8296 C   0  0  0  0  0  0  0  0  0  0  0  0
    0.9865   -0.2908    2.1726 O   0  0  0  0  0  0  0  0  0  0  0  0
   -1.0921    0.4156    2.6780 N   0  0  0  0  0  0  0  0  0  0  0  0
   -2.0168    0.5953    2.3206 H   0  0  0  0  0  0  0  0  0  0  0  0
   -0.8319    0.7034    4.0877 C   0  0  0  0  0  0  0  0  0  0  0  0
   -0.0192    1.4288    4.1710 H   0  0  0  0  0  0  0  0  0  0  0  0
   -1.7255    1.1088    4.5641 H   0  0  0  0  0  0  0  0  0  0  0  0
   -0.5319   -0.2118    4.6011 H   0  0  0  0  0  0  0  0  0  0  0  0
  5  6  2  0  0  0  0
  5  7  1  0  0  0  0
  2  3  1  0  0  0  0
  2  4  1  0  0  0  0
  2  5  1  0  0  0  0
  1  2  1  0  0  0  0
 22 23  2  0  0  0  0
 22 24  1  0  0  0  0
 18 19  1  0  0  0  0
 18 20  1  0  0  0  0
 18 21  1  0  0  0  0
 17 18  1  0  0  0  0
 14 15  1  0  0  0  0
 14 16  1  0  0  0  0
 14 17  1  0  0  0  0
 11 12  1  0  0  0  0
 11 13  1  0  0  0  0
 11 14  1  0  0  0  0
  9 10  1  0  0  0  0
  9 11  1  0  0  0  0
  9 22  1  0  0  0  0
  7  8  1  0  0  0  0
  7  9  1  0  0  0  0
 26 27  1  0  0  0  0
 26 28  1  0  0  0  0
 26 29  1  0  0  0  0
 24 25  1  0  0  0  0
 24 26  1  0  0  0  0
M  END
$$$$
default_name
  -OEChem-02102213163D

 29 28  0     1  0  0  0  0  0999 V2000
   -3.5781   -3.7296    1.2702 H   0  0  0  0  0  0  0  0  0  0  0  0
   -3.5311   -2.7616    0.7732 C   0  0  0  0  0  0  0  0  0  0  0  0
   -4.2371   -2.0766    1.2382 H   0  0  0  0  0  0  0  0  0  0  0  0
   -3.7681   -2.8816   -0.2818 H   0  0  0  0  0  0  0  0  0  0  0  0
   -2.1321   -2.2086    0.9112 C   0  0  0  0  0  0  0  0  0  0  0  0
   -1.2751   -2.8426    1.5112 O   0  0  0  0  0  0  0  0  0  0  0  0
   -1.9041   -1.0186    0.3602 N   0  0  0  0  0  0  0  0  0  0  0  0
   -2.6671   -0.5416   -0.0988 H   0  0  0  0  0  0  0  0  0  0  0  0
   -0.6131   -0.3236    0.3832 C   0  0  1  0  0  0  0  0  0  0  0  0
    0.1346   -0.9625   -0.0894 H   0  0  0  0  0  0  0  0  0  0  0  0
   -0.7253    0.9751   -0.4365 C   0  0  0  0  0  0  0  0  0  0  0  0
    0.1359    1.6078   -0.2114 H   0  0  0  0  0  0  0  0  0  0  0  0
   -0.7015    0.7325   -1.4999 H   0  0  0  0  0  0  0  0  0  0  0  0
   -2.0002    1.7750   -0.1449 C   0  0  0  0  0  0  0  0  0  0  0  0
   -1.7455    2.8297   -0.0454 H   0  0  0  0  0  0  0  0  0  0  0  0
   -2.6869    1.6577   -0.9840 H   0  0  0  0  0  0  0  0  0  0  0  0
   -2.8518    1.2576    1.3672 S   0  0  0  0  0  0  0  0  0  0  0  0
   -3.4397   -0.3755    0.8483 C   0  0  0  0  0  0  0  0  0  0  0  0
   -2.5897   -1.0061    0.5861 H   0  0  0  0  0  0  0  0  0  0  0  0
   -3.9909   -0.8383    1.6673 H   0  0  0  0  0  0  0  0  0  0  0  0
   -4.0987   -0.2722   -0.0143 H   0  0  0  0  0  0  0  0  0  0  0  0
   -0.1711   -0.0594    1.8296 C   0  0  0  0  0  0  0  0  0  0  0  0
    0.9865   -0.2908    2.1726 O   0  0  0  0  0  0  0  0  0  0  0  0
   -1.0921    0.4156    2.6780 N   0  0  0  0  0  0  0  0  0  0  0  0
   -2.0168    0.5953    2.3206 H   0  0  0  0  0  0  0  0  0  0  0  0
   -0.8319    0.7034    4.0877 C   0  0  0  0  0  0  0  0  0  0  0  0
   -0.0192    1.4288    4.1710 H   0  0  0  0  0  0  0  0  0  0  0  0
   -1.7255    1.1088    4.5641 H   0  0  0  0  0  0  0  0  0  0  0  0
   -0.5319   -0.2118    4.6011 H   0  0  0  0  0  0  0  0  0  0  0  0
  5  6  2  0  0  0  0
  5  7  1  0  0  0  0
  2  3  1  0  0  0  0
  2  4  1  0  0  0  0
  2  5  1  0  0  0  0
  1  2  1  0  0  0  0
 22 23  2  0  0  0  0
 22 24  1  0  0  0  0
 18 19  1  0  0  0  0
 18 20  1  0  0  0  0
 18 21  1  0  0  0  0
 17 18  1  0  0  0  0
 14 15  1  0  0  0  0
 14 16  1  0  0  0  0
 14 17  1  0  0  0  0
 11 12  1  0  0  0  0
 11 13  1  0  0  0  0
 11 14  1  0  0  0  0
  9 10  1  0  0  0  0
  9 11  1  0  0  0  0
  9 22  1  0  0  0  0
  7  8  1  0  0  0  0
  7  9  1  0  0  0  0
 26 27  1  0  0  0  0
 26 28  1  0  0  0  0
 26 29  1  0  0  0  0
 24 25  1  0  0  0  0
 24 26  1  0  0  0  0
M  END
$$$$
default_name
  -OEChem-02102213163D

 29 28  0     1  0  0  0  0  0999 V2000
   -3.5781   -3.7296    1.2702 H   0  0  0  0  0  0  0  0  0  0  0  0
   -3.5311   -2.7616    0.7732 C   0  0  0  0  0  0  0  0  0  0  0  0
   -4.2371   -2.0766    1.2382 H   0  0  0  0  0  0  0  0  0  0  0  0
   -3.7681   -2.8816   -0.2818 H   0  0  0  0  0  0  0  0  0  0  0  0
   -2.1321   -2.2086    0.9112 C   0  0  0  0  0  0  0  0  0  0  0  0
   -1.2751   -2.8426    1.5112 O   0  0  0  0  0  0  0  0  0  0  0  0
   -1.9041   -1.0186    0.3602 N   0  0  0  0  0  0  0  0  0  0  0  0
   -2.6671   -0.5416   -0.0988 H   0  0  0  0  0  0  0  0  0  0  0  0
   -0.6131   -0.3236    0.3832 C   0  0  1  0  0  0  0  0  0  0  0  0
    0.1346   -0.9625   -0.0894 H   0  0  0  0  0  0  0  0  0  0  0  0
   -0.7253    0.9751   -0.4365 C   0  0  0  0  0  0  0  0  0  0  0  0
    0.1359    1.6078   -0.2114 H   0  0  0  0  0  0  0  0  0  0  0  0
   -0.7015    0.7325   -1.4999 H   0  0  0  0  0  0  0  0  0  0  0  0
   -2.0002    1.7750   -0.1449 C   0  0  0  0  0  0  0  0  0  0  0  0
   -1.8027    2.8340   -0.3079 H   0  0  0  0  0  0  0  0  0  0  0  0
   -2.7809    1.4535   -0.8352 H   0  0  0  0  0  0  0  0  0  0  0  0
   -2.6137    1.5717    1.5468 S   0  0  0  0  0  0  0  0  0  0  0  0
   -3.1582   -0.1546    1.4734 C   0  0  0  0  0  0  0  0  0  0  0  0
   -2.3107   -0.7976    1.2341 H   0  0  0  0  0  0  0  0  0  0  0  0
   -3.5678   -0.4458    2.4410 H   0  0  0  0  0  0  0  0  0  0  0  0
   -3.9286   -0.2651    0.7098 H   0  0  0  0  0  0  0  0  0  0  0  0
   -0.1711   -0.0594    1.8296 C   0  0  0  0  0  0  0  0  0  0  0  0
    0.9865   -0.2908    2.1726 O   0  0  0  0  0  0  0  0  0  0  0  0
   -1.0921    0.4156    2.6780 N   0  0  0  0  0  0  0  0  0  0  0  0
   -2.0168    0.5953    2.3206 H   0  0  0  0  0  0  0  0  0  0  0  0
   -0.8319    0.7034    4.0877 C   0  0  0  0  0  0  0  0  0  0  0  0
   -0.0192    1.4288    4.1710 H   0  0  0  0  0  0  0  0  0  0  0  0
   -1.7255    1.1088    4.5641 H   0  0  0  0  0  0  0  0  0  0  0  0
   -0.5319   -0.2118    4.6011 H   0  0  0  0  0  0  0  0  0  0  0  0
  5  6  2  0  0  0  0
  5  7  1  0  0  0  0
  2  3  1  0  0  0  0
  2  4  1  0  0  0  0
  2  5  1  0  0  0  0
  1  2  1  0  0  0  0
 22 23  2  0  0  0  0
 22 24  1  0  0  0  0
 18 19  1  0  0  0  0
 18 20  1  0  0  0  0
 18 21  1  0  0  0  0
 17 18  1  0  0  0  0
 14 15  1  0  0  0  0
 14 16  1  0  0  0  0
 14 17  1  0  0  0  0
 11 12  1  0  0  0  0
 11 13  1  0  0  0  0
 11 14  1  0  0  0  0
  9 10  1  0  0  0  0
  9 11  1  0  0  0  0
  9 22  1  0  0  0  0
  7  8  1  0  0  0  0
  7  9  1  0  0  0  0
 26 27  1  0  0  0  0
 26 28  1  0  0  0  0
 26 29  1  0  0  0  0
 24 25  1  0  0  0  0
 24 26  1  0  0  0  0
M  END
$$$$
default_name
  -OEChem-02102213163D

 29 28  0     1  0  0  0  0  0999 V2000
   -3.5781   -3.7296    1.2702 H   0  0  0  0  0  0  0  0  0  0  0  0
   -3.5311   -2.7616    0.7732 C   0  0  0  0  0  0  0  0  0  0  0  0
   -4.2371   -2.0766    1.2382 H   0  0  0  0  0  0  0  0  0  0  0  0
   -3.7681   -2.8816   -0.2818 H   0  0  0  0  0  0  0  0  0  0  0  0
   -2.1321   -2.2086    0.9112 C   0  0  0  0  0  0  0  0  0  0  0  0
   -1.2751   -2.8426    1.5112 O   0  0  0  0  0  0  0  0  0  0  0  0
   -1.9041   -1.0186    0.3602 N   0  0  0  0  0  0  0  0  0  0  0  0
   -2.6671   -0.5416   -0.0988 H   0  0  0  0  0  0  0  0  0  0  0  0
   -0.6131   -0.3236    0.3832 C   0  0  1  0  0  0  0  0  0  0  0  0
    0.1346   -0.9625   -0.0894 H   0  0  0  0  0  0  0  0  0  0  0  0
   -0.7253    0.9751   -0.4365 C   0  0  0  0  0  0  0  0  0  0  0  0
    0.1359    1.6078   -0.2114 H   0  0  0  0  0  0  0  0  0  0  0  0
   -0.7015    0.7325   -1.4999 H   0  0  0  0  0  0  0  0  0  0  0  0
   -2.0002    1.7750   -0.1449 C   0  0  0  0  0  0  0  0  0  0  0  0
   -1.8937    2.7789   -0.5547 H   0  0  0  0  0  0  0  0  0  0  0  0
   -2.8417    1.2837   -0.6348 H   0  0  0  0  0  0  0  0  0  0  0  0
   -2.3749    1.9254    1.6205 S   0  0  0  0  0  0  0  0  0  0  0  0
   -2.8127    0.2072    1.9917 C   0  0  0  0  0  0  0  0  0  0  0  0
   -1.9640   -0.4430    1.7774 H   0  0  0  0  0  0  0  0  0  0  0  0
   -3.0739    0.1206    3.0467 H   0  0  0  0  0  0  0  0  0  0  0  0
   -3.6670   -0.0941    1.3848 H   0  0  0  0  0  0  0  0  0  0  0  0
   -0.1711   -0.0594    1.8296 C   0  0  0  0  0  0  0  0  0  0  0  0
    0.9865   -0.2908    2.1726 O   0  0  0  0  0  0  0  0  0  0  0  0
   -1.0921    0.4156    2.6780 N   0  0  0  0  0  0  0  0  0  0  0  0
   -2.0168    0.5953    2.3206 H   0  0  0  0  0  0  0  0  0  0  0  0
   -0.8319    0.7034    4.0877 C   0  0  0  0  0  0  0  0  0  0  0  0
   -0.0192    1.4288    4.1710 H   0  0  0  0  0  0  0  0  0  0  0  0
   -1.7255    1.1088    4.5641 H   0  0  0  0  0  0  0  0  0  0  0  0
   -0.5319   -0.2118    4.6011 H   0  0  0  0  0  0  0  0  0  0  0  0
  5  6  2  0  0  0  0
  5  7  1  0  0  0  0
  2  3  1  0  0  0  0
  2  4  1  0  0  0  0
  2  5  1  0  0  0  0
  1  2  1  0  0  0  0
 22 23  2  0  0  0  0
 22 24  1  0  0  0  0
 18 19  1  0  0  0  0
 18 20  1  0  0  0  0
 18 21  1  0  0  0  0
 17 18  1  0  0  0  0
 14 15  1  0  0  0  0
 14 16  1  0  0  0  0
 14 17  1  0  0  0  0
 11 12  1  0  0  0  0
 11 13  1  0  0  0  0
 11 14  1  0  0  0  0
  9 10  1  0  0  0  0
  9 11  1  0  0  0  0
  9 22  1  0  0  0  0
  7  8  1  0  0  0  0
  7  9  1  0  0  0  0
 26 27  1  0  0  0  0
 26 28  1  0  0  0  0
 26 29  1  0  0  0  0
 24 25  1  0  0  0  0
 24 26  1  0  0  0  0
M  END
$$$$
default_name
  -OEChem-02102213163D

 29 28  0     1  0  0  0  0  0999 V2000
   -3.5781   -3.7296    1.2702 H   0  0  0  0  0  0  0  0  0  0  0  0
   -3.5311   -2.7616    0.7732 C   0  0  0  0  0  0  0  0  0  0  0  0
   -4.2371   -2.0766    1.2382 H   0  0  0  0  0  0  0  0  0  0  0  0
   -3.7681   -2.8816   -0.2818 H   0  0  0  0  0  0  0  0  0  0  0  0
   -2.1321   -2.2086    0.9112 C   0  0  0  0  0  0  0  0  0  0  0  0
   -1.2751   -2.8426    1.5112 O   0  0  0  0  0  0  0  0  0  0  0  0
   -1.9041   -1.0186    0.3602 N   0  0  0  0  0  0  0  0  0  0  0  0
   -2.6671   -0.5416   -0.0988 H   0  0  0  0  0  0  0  0  0  0  0  0
   -0.6131   -0.3236    0.3832 C   0  0  1  0  0  0  0  0  0  0  0  0
    0.1346   -0.9625   -0.0894 H   0  0  0  0  0  0  0  0  0  0  0  0
   -0.7253    0.9751   -0.4365 C   0  0  0  0  0  0  0  0  0  0  0  0
    0.1359    1.6078   -0.2114 H   0  0  0  0  0  0  0  0  0  0  0  0
   -0.7015    0.7325   -1.4999 H   0  0  0  0  0  0  0  0  0  0  0  0
   -2.0002    1.7750   -0.1449 C   0  0  0  0  0  0  0  0  0  0  0  0
   -2.0123    2.6681   -0.7689 H   0  0  0  0  0  0  0  0  0  0  0  0
   -2.8649    1.1598   -0.3964 H   0  0  0  0  0  0  0  0  0  0  0  0
   -2.1517    2.2947    1.5833 S   0  0  0  0  0  0  0  0  0  0  0  0
   -2.4268    0.6852    2.3678 C   0  0  0  0  0  0  0  0  0  0  0  0
   -1.5731    0.0335    2.1791 H   0  0  0  0  0  0  0  0  0  0  0  0
   -2.5428    0.8224    3.4432 H   0  0  0  0  0  0  0  0  0  0  0  0
   -3.3315    0.2293    1.9646 H   0  0  0  0  0  0  0  0  0  0  0  0
   -0.1711   -0.0594    1.8296 C   0  0  0  0  0  0  0  0  0  0  0  0
    0.9865   -0.2908    2.1726 O   0  0  0  0  0  0  0  0  0  0  0  0
   -1.0921    0.4156    2.6780 N   0  0  0  0  0  0  0  0  0  0  0  0
   -2.0168    0.5953    2.3206 H   0  0  0  0  0  0  0  0  0  0  0  0
   -0.8319    0.7034    4.0877 C   0  0  0  0  0  0  0  0  0  0  0  0
   -0.0192    1.4288    4.1710 H   0  0  0  0  0  0  0  0  0  0  0  0
   -1.7255    1.1088    4.5641 H   0  0  0  0  0  0  0  0  0  0  0  0
   -0.5319   -0.2118    4.6011 H   0  0  0  0  0  0  0  0  0  0  0  0
  5  6  2  0  0  0  0
  5  7  1  0  0  0  0
  2  3  1  0  0  0  0
  2  4  1  0  0  0  0
  2  5  1  0  0  0  0
  1  2  1  0  0  0  0
 22 23  2  0  0  0  0
 22 24  1  0  0  0  0
 18 19  1  0  0  0  0
 18 20  1  0  0  0  0
 18 21  1  0  0  0  0
 17 18  1  0  0  0  0
 14 15  1  0  0  0  0
 14 16  1  0  0  0  0
 14 17  1  0  0  0  0
 11 12  1  0  0  0  0
 11 13  1  0  0  0  0
 11 14  1  0  0  0  0
  9 10  1  0  0  0  0
  9 11  1  0  0  0  0
  9 22  1  0  0  0  0
  7  8  1  0  0  0  0
  7  9  1  0  0  0  0
 26 27  1  0  0  0  0
 26 28  1  0  0  0  0
 26 29  1  0  0  0  0
 24 25  1  0  0  0  0
 24 26  1  0  0  0  0
M  END
$$$$
default_name
  -OEChem-02102213163D

 29 28  0     1  0  0  0  0  0999 V2000
   -3.5781   -3.7296    1.2702 H   0  0  0  0  0  0  0  0  0  0  0  0
   -3.5311   -2.7616    0.7732 C   0  0  0  0  0  0  0  0  0  0  0  0
   -4.2371   -2.0766    1.2382 H   0  0  0  0  0  0  0  0  0  0  0  0
   -3.7681   -2.8816   -0.2818 H   0  0  0  0  0  0  0  0  0  0  0  0
   -2.1321   -2.2086    0.9112 C   0  0  0  0  0  0  0  0  0  0  0  0
   -1.2751   -2.8426    1.5112 O   0  0  0  0  0  0  0  0  0  0  0  0
   -1.9041   -1.0186    0.3602 N   0  0  0  0  0  0  0  0  0  0  0  0
   -2.6671   -0.5416   -0.0988 H   0  0  0  0  0  0  0  0  0  0  0  0
   -0.6131   -0.3236    0.3832 C   0  0  1  0  0  0  0  0  0  0  0  0
    0.1346   -0.9625   -0.0894 H   0  0  0  0  0  0  0  0  0  0  0  0
   -0.7253    0.9751   -0.4365 C   0  0  0  0  0  0  0  0  0  0  0  0
    0.1359    1.6078   -0.2114 H   0  0  0  0  0  0  0  0  0  0  0  0
   -0.7015    0.7325   -1.4999 H   0  0  0  0  0  0  0  0  0  0  0  0
   -2.0002    1.7750   -0.1449 C   0  0  0  0  0  0  0  0  0  0  0  0
   -2.1502    2.5092   -0.9359 H   0  0  0  0  0  0  0  0  0  0  0  0
   -2.8490    1.0903   -0.1364 H   0  0  0  0  0  0  0  0  0  0  0  0
   -1.9593    2.6544    1.4377 S   0  0  0  0  0  0  0  0  0  0  0  0
   -2.0267    1.2468    2.5760 C   0  0  0  0  0  0  0  0  0  0  0  0
   -1.1648    0.5994    2.4117 H   0  0  0  0  0  0  0  0  0  0  0  0
   -2.0109    1.6117    3.6034 H   0  0  0  0  0  0  0  0  0  0  0  0
   -2.9450    0.6829    2.4098 H   0  0  0  0  0  0  0  0  0  0  0  0
   -0.1711   -0.0594    1.8296 C   0  0  0  0  0  0  0  0  0  0  0  0
    0.9865   -0.2908    2.1726 O   0  0  0  0  0  0  0  0  0  0  0  0
   -1.0921    0.4156    2.6780 N   0  0  0  0  0  0  0  0  0  0  0  0
   -2.0168    0.5953    2.3206 H   0  0  0  0  0  0  0  0  0  0  0  0
   -0.8319    0.7034    4.0877 C   0  0  0  0  0  0  0  0  0  0  0  0
   -0.0192    1.4288    4.1710 H   0  0  0  0  0  0  0  0  0  0  0  0
   -1.7255    1.1088    4.5641 H   0  0  0  0  0  0  0  0  0  0  0  0
   -0.5319   -0.2118    4.6011 H   0  0  0  0  0  0  0  0  0  0  0  0
  5  6  2  0  0  0  0
  5  7  1  0  0  0  0
  2  3  1  0  0  0  0
  2  4  1  0  0  0  0
  2  5  1  0  0  0  0
  1  2  1  0  0  0  0
 22 23  2  0  0  0  0
 22 24  1  0  0  0  0
 18 19  1  0  0  0  0
 18 20  1  0  0  0  0
 18 21  1  0  0  0  0
 17 18  1  0  0  0  0
 14 15  1  0  0  0  0
 14 16  1  0  0  0  0
 14 17  1  0  0  0  0
 11 12  1  0  0  0  0
 11 13  1  0  0  0  0
 11 14  1  0  0  0  0
  9 10  1  0  0  0  0
  9 11  1  0  0  0  0
  9 22  1  0  0  0  0
  7  8  1  0  0  0  0
  7  9  1  0  0  0  0
 26 27  1  0  0  0  0
 26 28  1  0  0  0  0
 26 29  1  0  0  0  0
 24 25  1  0  0  0  0
 24 26  1  0  0  0  0
M  END
$$$$
default_name
  -OEChem-02102213163D

 29 28  0     1  0  0  0  0  0999 V2000
   -3.5781   -3.7296    1.2702 H   0  0  0  0  0  0  0  0  0  0  0  0
   -3.5311   -2.7616    0.7732 C   0  0  0  0  0  0  0  0  0  0  0  0
   -4.2371   -2.0766    1.2382 H   0  0  0  0  0  0  0  0  0  0  0  0
   -3.7681   -2.8816   -0.2818 H   0  0  0  0  0  0  0  0  0  0  0  0
   -2.1321   -2.2086    0.9112 C   0  0  0  0  0  0  0  0  0  0  0  0
   -1.2751   -2.8426    1.5112 O   0  0  0  0  0  0  0  0  0  0  0  0
   -1.9041   -1.0186    0.3602 N   0  0  0  0  0  0  0  0  0  0  0  0
   -2.6671   -0.5416   -0.0988 H   0  0  0  0  0  0  0  0  0  0  0  0
   -0.6131   -0.3236    0.3832 C   0  0  1  0  0  0  0  0  0  0  0  0
    0.1346   -0.9625   -0.0894 H   0  0  0  0  0  0  0  0  0  0  0  0
   -0.7253    0.9751   -0.4365 C   0  0  0  0  0  0  0  0  0  0  0  0
    0.1359    1.6078   -0.2114 H   0  0  0  0  0  0  0  0  0  0  0  0
   -0.7015    0.7325   -1.4999 H   0  0  0  0  0  0  0  0  0  0  0  0
   -2.0002    1.7750   -0.1449 C   0  0  0  0  0  0  0  0  0  0  0  0
   -2.2982    2.3129   -1.0444 H   0  0  0  0  0  0  0  0  0  0  0  0
   -2.7952    1.0799    0.1276 H   0  0  0  0  0  0  0  0  0  0  0  0
   -1.8108    2.9800    1.1936 S   0  0  0  0  0  0  0  0  0  0  0  0
   -1.6398    1.8538    2.6023 C   0  0  0  0  0  0  0  0  0  0  0  0
   -0.7668    1.2163    2.4595 H   0  0  0  0  0  0  0  0  0  0  0  0
   -1.5144    2.4348    3.5164 H   0  0  0  0  0  0  0  0  0  0  0  0
   -2.5339    1.2360    2.6899 H   0  0  0  0  0  0  0  0  0  0  0  0
   -0.1711   -0.0594    1.8296 C   0  0  0  0  0  0  0  0  0  0  0  0
    0.9865   -0.2908    2.1726 O   0  0  0  0  0  0  0  0  0  0  0  0
   -1.0921    0.4156    2.6780 N   0  0  0  0  0  0  0  0  0  0  0  0
   -2.0168    0.5953    2.3206 H   0  0  0  0  0  0  0  0  0  0  0  0
   -0.8319    0.7034    4.0877 C   0  0  0  0  0  0  0  0  0  0  0  0
   -0.0192    1.4288    4.1710 H   0  0  0  0  0  0  0  0  0  0  0  0
   -1.7255    1.1088    4.5641 H   0  0  0  0  0  0  0  0  0  0  0  0
   -0.5319   -0.2118    4.6011 H   0  0  0  0  0  0  0  0  0  0  0  0
  5  6  2  0  0  0  0
  5  7  1  0  0  0  0
  2  3  1  0  0  0  0
  2  4  1  0  0  0  0
  2  5  1  0  0  0  0
  1  2  1  0  0  0  0
 22 23  2  0  0  0  0
 22 24  1  0  0  0  0
 18 19  1  0  0  0  0
 18 20  1  0  0  0  0
 18 21  1  0  0  0  0
 17 18  1  0  0  0  0
 14 15  1  0  0  0  0
 14 16  1  0  0  0  0
 14 17  1  0  0  0  0
 11 12  1  0  0  0  0
 11 13  1  0  0  0  0
 11 14  1  0  0  0  0
  9 10  1  0  0  0  0
  9 11  1  0  0  0  0
  9 22  1  0  0  0  0
  7  8  1  0  0  0  0
  7  9  1  0  0  0  0
 26 27  1  0  0  0  0
 26 28  1  0  0  0  0
 26 29  1  0  0  0  0
 24 25  1  0  0  0  0
 24 26  1  0  0  0  0
M  END
$$$$
default_name
  -OEChem-02102213163D

 29 28  0     1  0  0  0  0  0999 V2000
   -3.5781   -3.7296    1.2702 H   0  0  0  0  0  0  0  0  0  0  0  0
   -3.5311   -2.7616    0.7732 C   0  0  0  0  0  0  0  0  0  0  0  0
   -4.2371   -2.0766    1.2382 H   0  0  0  0  0  0  0  0  0  0  0  0
   -3.7681   -2.8816   -0.2818 H   0  0  0  0  0  0  0  0  0  0  0  0
   -2.1321   -2.2086    0.9112 C   0  0  0  0  0  0  0  0  0  0  0  0
   -1.2751   -2.8426    1.5112 O   0  0  0  0  0  0  0  0  0  0  0  0
   -1.9041   -1.0186    0.3602 N   0  0  0  0  0  0  0  0  0  0  0  0
   -2.6671   -0.5416   -0.0988 H   0  0  0  0  0  0  0  0  0  0  0  0
   -0.6131   -0.3236    0.3832 C   0  0  1  0  0  0  0  0  0  0  0  0
    0.1346   -0.9625   -0.0894 H   0  0  0  0  0  0  0  0  0  0  0  0
   -0.7253    0.9751   -0.4365 C   0  0  0  0  0  0  0  0  0  0  0  0
    0.1359    1.6078   -0.2114 H   0  0  0  0  0  0  0  0  0  0  0  0
   -0.7015    0.7325   -1.4999 H   0  0  0  0  0  0  0  0  0  0  0  0
   -2.0002    1.7750   -0.1449 C   0  0  0  0  0  0  0  0  0  0  0  0
   -2.4461    2.0926   -1.0869 H   0  0  0  0  0  0  0  0  0  0  0  0
   -2.7070    1.1293    0.3775 H   0  0  0  0  0  0  0  0  0  0  0  0
   -1.7164    3.2493    0.8678 S   0  0  0  0  0  0  0  0  0  0  0  0
   -1.2925    2.4649    2.4448 C   0  0  0  0  0  0  0  0  0  0  0  0
   -0.4064    1.8420    2.3191 H   0  0  0  0  0  0  0  0  0  0  0  0
   -1.0870    3.2356    3.1881 H   0  0  0  0  0  0  0  0  0  0  0  0
   -2.1263    1.8507    2.7859 H   0  0  0  0  0  0  0  0  0  0  0  0
   -0.1711   -0.0594    1.8296 C   0  0  0  0  0  0  0  0  0  0  0  0
    0.9865   -0.2908    2.1726 O   0  0  0  0  0  0  0  0  0  0  0  0
   -1.0921    0.4156    2.6780 N   0  0  0  0  0  0  0  0  0  0  0  0
   -2.0168    0.5953    2.3206 H   0  0  0  0  0  0  0  0  0  0  0  0
   -0.8319    0.7034    4.0877 C   0  0  0  0  0  0  0  0  0  0  0  0
   -0.0192    1.4288    4.1710 H   0  0  0  0  0  0  0  0  0  0  0  0
   -1.7255    1.1088    4.5641 H   0  0  0  0  0  0  0  0  0  0  0  0
   -0.5319   -0.2118    4.6011 H   0  0  0  0  0  0  0  0  0  0  0  0
  5  6  2  0  0  0  0
  5  7  1  0  0  0  0
  2  3  1  0  0  0  0
  2  4  1  0  0  0  0
  2  5  1  0  0  0  0
  1  2  1  0  0  0  0
 22 23  2  0  0  0  0
 22 24  1  0  0  0  0
 18 19  1  0  0  0  0
 18 20  1  0  0  0  0
 18 21  1  0  0  0  0
 17 18  1  0  0  0  0
 14 15  1  0  0  0  0
 14 16  1  0  0  0  0
 14 17  1  0  0  0  0
 11 12  1  0  0  0  0
 11 13  1  0  0  0  0
 11 14  1  0  0  0  0
  9 10  1  0  0  0  0
  9 11  1  0  0  0  0
  9 22  1  0  0  0  0
  7  8  1  0  0  0  0
  7  9  1  0  0  0  0
 26 27  1  0  0  0  0
 26 28  1  0  0  0  0
 26 29  1  0  0  0  0
 24 25  1  0  0  0  0
 24 26  1  0  0  0  0
M  END
$$$$
default_name
  -OEChem-02102213163D

 29 28  0     1  0  0  0  0  0999 V2000
   -3.5781   -3.7296    1.2702 H   0  0  0  0  0  0  0  0  0  0  0  0
   -3.5311   -2.7616    0.7732 C   0  0  0  0  0  0  0  0  0  0  0  0
   -4.2371   -2.0766    1.2382 H   0  0  0  0  0  0  0  0  0  0  0  0
   -3.7681   -2.8816   -0.2818 H   0  0  0  0  0  0  0  0  0  0  0  0
   -2.1321   -2.2086    0.9112 C   0  0  0  0  0  0  0  0  0  0  0  0
   -1.2751   -2.8426    1.5112 O   0  0  0  0  0  0  0  0  0  0  0  0
   -1.9041   -1.0186    0.3602 N   0  0  0  0  0  0  0  0  0  0  0  0
   -2.6671   -0.5416   -0.0988 H   0  0  0  0  0  0  0  0  0  0  0  0
   -0.6131   -0.3236    0.3832 C   0  0  1  0  0  0  0  0  0  0  0  0
    0.1346   -0.9625   -0.0894 H   0  0  0  0  0  0  0  0  0  0  0  0
   -0.7253    0.9751   -0.4365 C   0  0  0  0  0  0  0  0  0  0  0  0
    0.1359    1.6078   -0.2114 H   0  0  0  0  0  0  0  0  0  0  0  0
   -0.7015    0.7325   -1.4999 H   0  0  0  0  0  0  0  0  0  0  0  0
   -2.0002    1.7750   -0.1449 C   0  0  0  0  0  0  0  0  0  0  0  0
   -2.5839    1.8635   -1.0607 H   0  0  0  0  0  0  0  0  0  0  0  0
   -2.5905    1.2352    0.5964 H   0  0  0  0  0  0  0  0  0  0  0  0
   -1.6824    3.4439    0.4823 S   0  0  0  0  0  0  0  0  0  0  0  0
   -1.0083    3.0383    2.1142 C   0  0  0  0  0  0  0  0  0  0  0  0
   -0.1079    2.4339    2.0001 H   0  0  0  0  0  0  0  0  0  0  0  0
   -0.7579    3.9595    2.6409 H   0  0  0  0  0  0  0  0  0  0  0  0
   -1.7498    2.4852    2.6914 H   0  0  0  0  0  0  0  0  0  0  0  0
   -0.1711   -0.0594    1.8296 C   0  0  0  0  0  0  0  0  0  0  0  0
    0.9865   -0.2908    2.1726 O   0  0  0  0  0  0  0  0  0  0  0  0
   -1.0921    0.4156    2.6780 N   0  0  0  0  0  0  0  0  0  0  0  0
   -2.0168    0.5953    2.3206 H   0  0  0  0  0  0  0  0  0  0  0  0
   -0.8319    0.7034    4.0877 C   0  0  0  0  0  0  0  0  0  0  0  0
   -0.0192    1.4288    4.1710 H   0  0  0  0  0  0  0  0  0  0  0  0
   -1.7255    1.1088    4.5641 H   0  0  0  0  0  0  0  0  0  0  0  0
   -0.5319   -0.2118    4.6011 H   0  0  0  0  0  0  0  0  0  0  0  0
  5  6  2  0  0  0  0
  5  7  1  0  0  0  0
  2  3  1  0  0  0  0
  2  4  1  0  0  0  0
  2  5  1  0  0  0  0
  1  2  1  0  0  0  0
 22 23  2  0  0  0  0
 22 24  1  0  0  0  0
 18 19  1  0  0  0  0
 18 20  1  0  0  0  0
 18 21  1  0  0  0  0
 17 18  1  0  0  0  0
 14 15  1  0  0  0  0
 14 16  1  0  0  0  0
 14 17  1  0  0  0  0
 11 12  1  0  0  0  0
 11 13  1  0  0  0  0
 11 14  1  0  0  0  0
  9 10  1  0  0  0  0
  9 11  1  0  0  0  0
  9 22  1  0  0  0  0
  7  8  1  0  0  0  0
  7  9  1  0  0  0  0
 26 27  1  0  0  0  0
 26 28  1  0  0  0  0
 26 29  1  0  0  0  0
 24 25  1  0  0  0  0
 24 26  1  0  0  0  0
M  END
$$$$
default_name
  -OEChem-02102213163D

 29 28  0     1  0  0  0  0  0999 V2000
   -3.5781   -3.7296    1.2702 H   0  0  0  0  0  0  0  0  0  0  0  0
   -3.5311   -2.7616    0.7732 C   0  0  0  0  0  0  0  0  0  0  0  0
   -4.2371   -2.0766    1.2382 H   0  0  0  0  0  0  0  0  0  0  0  0
   -3.7681   -2.8816   -0.2818 H   0  0  0  0  0  0  0  0  0  0  0  0
   -2.1321   -2.2086    0.9112 C   0  0  0  0  0  0  0  0  0  0  0  0
   -1.2751   -2.8426    1.5112 O   0  0  0  0  0  0  0  0  0  0  0  0
   -1.9041   -1.0186    0.3602 N   0  0  0  0  0  0  0  0  0  0  0  0
   -2.6671   -0.5416   -0.0988 H   0  0  0  0  0  0  0  0  0  0  0  0
   -0.6131   -0.3236    0.3832 C   0  0  1  0  0  0  0  0  0  0  0  0
    0.1346   -0.9625   -0.0894 H   0  0  0  0  0  0  0  0  0  0  0  0
   -0.7253    0.9751   -0.4365 C   0  0  0  0  0  0  0  0  0  0  0  0
    0.1359    1.6078   -0.2114 H   0  0  0  0  0  0  0  0  0  0  0  0
   -0.7015    0.7325   -1.4999 H   0  0  0  0  0  0  0  0  0  0  0  0
   -2.0002    1.7750   -0.1449 C   0  0  0  0  0  0  0  0  0  0  0  0
   -2.7021    1.6410   -0.9674 H   0  0  0  0  0  0  0  0  0  0  0  0
   -2.4536    1.3903    0.7693 H   0  0  0  0  0  0  0  0  0  0  0  0
   -1.7113    3.5506    0.0635 S   0  0  0  0  0  0  0  0  0  0  0  0
   -0.8067    3.5350    1.6330 C   0  0  0  0  0  0  0  0  0  0  0  0
    0.1081    2.9516    1.5244 H   0  0  0  0  0  0  0  0  0  0  0  0
   -0.5496    4.5572    1.9122 H   0  0  0  0  0  0  0  0  0  0  0  0
   -1.4301    3.0963    2.4126 H   0  0  0  0  0  0  0  0  0  0  0  0
   -0.1711   -0.0594    1.8296 C   0  0  0  0  0  0  0  0  0  0  0  0
    0.9865   -0.2908    2.1726 O   0  0  0  0  0  0  0  0  0  0  0  0
   -1.0921    0.4156    2.6780 N   0  0  0  0  0  0  0  0  0  0  0  0
   -2.0168    0.5953    2.3206 H   0  0  0  0  0  0  0  0  0  0  0  0
   -0.8319    0.7034    4.0877 C   0  0  0  0  0  0  0  0  0  0  0  0
   -0.0192    1.4288    4.1710 H   0  0  0  0  0  0  0  0  0  0  0  0
   -1.7255    1.1088    4.5641 H   0  0  0  0  0  0  0  0  0  0  0  0
   -0.5319   -0.2118    4.6011 H   0  0  0  0  0  0  0  0  0  0  0  0
  5  6  2  0  0  0  0
  5  7  1  0  0  0  0
  2  3  1  0  0  0  0
  2  4  1  0  0  0  0
  2  5  1  0  0  0  0
  1  2  1  0  0  0  0
 22 23  2  0  0  0  0
 22 24  1  0  0  0  0
 18 19  1  0  0  0  0
 18 20  1  0  0  0  0
 18 21  1  0  0  0  0
 17 18  1  0  0  0  0
 14 15  1  0  0  0  0
 14 16  1  0  0  0  0
 14 17  1  0  0  0  0
 11 12  1  0  0  0  0
 11 13  1  0  0  0  0
 11 14  1  0  0  0  0
  9 10  1  0  0  0  0
  9 11  1  0  0  0  0
  9 22  1  0  0  0  0
  7  8  1  0  0  0  0
  7  9  1  0  0  0  0
 26 27  1  0  0  0  0
 26 28  1  0  0  0  0
 26 29  1  0  0  0  0
 24 25  1  0  0  0  0
 24 26  1  0  0  0  0
M  END
$$$$
default_name
  -OEChem-02102213163D

 29 28  0     1  0  0  0  0  0999 V2000
   -3.5781   -3.7296    1.2702 H   0  0  0  0  0  0  0  0  0  0  0  0
   -3.5311   -2.7616    0.7732 C   0  0  0  0  0  0  0  0  0  0  0  0
   -4.2371   -2.0766    1.2382 H   0  0  0  0  0  0  0  0  0  0  0  0
   -3.7681   -2.8816   -0.2818 H   0  0  0  0  0  0  0  0  0  0  0  0
   -2.1321   -2.2086    0.9112 C   0  0  0  0  0  0  0  0  0  0  0  0
   -1.2751   -2.8426    1.5112 O   0  0  0  0  0  0  0  0  0  0  0  0
   -1.9041   -1.0186    0.3602 N   0  0  0  0  0  0  0  0  0  0  0  0
   -2.6671   -0.5416   -0.0988 H   0  0  0  0  0  0  0  0  0  0  0  0
   -0.6131   -0.3236    0.3832 C   0  0  1  0  0  0  0  0  0  0  0  0
    0.1346   -0.9625   -0.0894 H   0  0  0  0  0  0  0  0  0  0  0  0
   -0.7253    0.9751   -0.4365 C   0  0  0  0  0  0  0  0  0  0  0  0
    0.1359    1.6078   -0.2114 H   0  0  0  0  0  0  0  0  0  0  0  0
   -0.7015    0.7325   -1.4999 H   0  0  0  0  0  0  0  0  0  0  0  0
   -2.0002    1.7750   -0.1449 C   0  0  0  0  0  0  0  0  0  0  0  0
   -2.7928    1.4403   -0.8134 H   0  0  0  0  0  0  0  0  0  0  0  0
   -2.3057    1.5841    0.8845 H   0  0  0  0  0  0  0  0  0  0  0  0
   -1.8009    3.5621   -0.3600 S   0  0  0  0  0  0  0  0  0  0  0  0
   -0.7013    3.9211    1.0342 C   0  0  0  0  0  0  0  0  0  0  0  0
    0.2271    3.3600    0.9242 H   0  0  0  0  0  0  0  0  0  0  0  0
   -0.4762    4.9878    1.0515 H   0  0  0  0  0  0  0  0  0  0  0  0
   -1.1891    3.6423    1.9686 H   0  0  0  0  0  0  0  0  0  0  0  0
   -0.1711   -0.0594    1.8296 C   0  0  0  0  0  0  0  0  0  0  0  0
    0.9865   -0.2908    2.1726 O   0  0  0  0  0  0  0  0  0  0  0  0
   -1.0921    0.4156    2.6780 N   0  0  0  0  0  0  0  0  0  0  0  0
   -2.0168    0.5953    2.3206 H   0  0  0  0  0  0  0  0  0  0  0  0
   -0.8319    0.7034    4.0877 C   0  0  0  0  0  0  0  0  0  0  0  0
   -0.0192    1.4288    4.1710 H   0  0  0  0  0  0  0  0  0  0  0  0
   -1.7255    1.1088    4.5641 H   0  0  0  0  0  0  0  0  0  0  0  0
   -0.5319   -0.2118    4.6011 H   0  0  0  0  0  0  0  0  0  0  0  0
  5  6  2  0  0  0  0
  5  7  1  0  0  0  0
  2  3  1  0  0  0  0
  2  4  1  0  0  0  0
  2  5  1  0  0  0  0
  1  2  1  0  0  0  0
 22 23  2  0  0  0  0
 22 24  1  0  0  0  0
 18 19  1  0  0  0  0
 18 20  1  0  0  0  0
 18 21  1  0  0  0  0
 17 18  1  0  0  0  0
 14 15  1  0  0  0  0
 14 16  1  0  0  0  0
 14 17  1  0  0  0  0
 11 12  1  0  0  0  0
 11 13  1  0  0  0  0
 11 14  1  0  0  0  0
  9 10  1  0  0  0  0
  9 11  1  0  0  0  0
  9 22  1  0  0  0  0
  7  8  1  0  0  0  0
  7  9  1  0  0  0  0
 26 27  1  0  0  0  0
 26 28  1  0  0  0  0
 26 29  1  0  0  0  0
 24 25  1  0  0  0  0
 24 26  1  0  0  0  0
M  END
$$$$
default_name
  -OEChem-02102213163D

 29 28  0     1  0  0  0  0  0999 V2000
   -3.5781   -3.7296    1.2702 H   0  0  0  0  0  0  0  0  0  0  0  0
   -3.5311   -2.7616    0.7732 C   0  0  0  0  0  0  0  0  0  0  0  0
   -4.2371   -2.0766    1.2382 H   0  0  0  0  0  0  0  0  0  0  0  0
   -3.7681   -2.8816   -0.2818 H   0  0  0  0  0  0  0  0  0  0  0  0
   -2.1321   -2.2086    0.9112 C   0  0  0  0  0  0  0  0  0  0  0  0
   -1.2751   -2.8426    1.5112 O   0  0  0  0  0  0  0  0  0  0  0  0
   -1.9041   -1.0186    0.3602 N   0  0  0  0  0  0  0  0  0  0  0  0
   -2.6671   -0.5416   -0.0988 H   0  0  0  0  0  0  0  0  0  0  0  0
   -0.6131   -0.3236    0.3832 C   0  0  1  0  0  0  0  0  0  0  0  0
    0.1346   -0.9625   -0.0894 H   0  0  0  0  0  0  0  0  0  0  0  0
   -0.7253    0.9751   -0.4365 C   0  0  0  0  0  0  0  0  0  0  0  0
    0.1359    1.6078   -0.2114 H   0  0  0  0  0  0  0  0  0  0  0  0
   -0.7015    0.7325   -1.4999 H   0  0  0  0  0  0  0  0  0  0  0  0
   -2.0002    1.7750   -0.1449 C   0  0  0  0  0  0  0  0  0  0  0  0
   -2.8498    1.2752   -0.6092 H   0  0  0  0  0  0  0  0  0  0  0  0
   -2.1568    1.8034    0.9340 H   0  0  0  0  0  0  0  0  0  0  0  0
   -1.9453    3.4776   -0.7596 S   0  0  0  0  0  0  0  0  0  0  0  0
   -0.6995    4.1704    0.3584 C   0  0  0  0  0  0  0  0  0  0  0  0
    0.2409    3.6311    0.2405 H   0  0  0  0  0  0  0  0  0  0  0  0
   -0.5428    5.2222    0.1175 H   0  0  0  0  0  0  0  0  0  0  0  0
   -1.0431    4.0859    1.3897 H   0  0  0  0  0  0  0  0  0  0  0  0
   -0.1711   -0.0594    1.8296 C   0  0  0  0  0  0  0  0  0  0  0  0
    0.9865   -0.2908    2.1726 O   0  0  0  0  0  0  0  0  0  0  0  0
   -1.0921    0.4156    2.6780 N   0  0  0  0  0  0  0  0  0  0  0  0
   -2.0168    0.5953    2.3206 H   0  0  0  0  0  0  0  0  0  0  0  0
   -0.8319    0.7034    4.0877 C   0  0  0  0  0  0  0  0  0  0  0  0
   -0.0192    1.4288    4.1710 H   0  0  0  0  0  0  0  0  0  0  0  0
   -1.7255    1.1088    4.5641 H   0  0  0  0  0  0  0  0  0  0  0  0
   -0.5319   -0.2118    4.6011 H   0  0  0  0  0  0  0  0  0  0  0  0
  5  6  2  0  0  0  0
  5  7  1  0  0  0  0
  2  3  1  0  0  0  0
  2  4  1  0  0  0  0
  2  5  1  0  0  0  0
  1  2  1  0  0  0  0
 22 23  2  0  0  0  0
 22 24  1  0  0  0  0
 18 19  1  0  0  0  0
 18 20  1  0  0  0  0
 18 21  1  0  0  0  0
 17 18  1  0  0  0  0
 14 15  1  0  0  0  0
 14 16  1  0  0  0  0
 14 17  1  0  0  0  0
 11 12  1  0  0  0  0
 11 13  1  0  0  0  0
 11 14  1  0  0  0  0
  9 10  1  0  0  0  0
  9 11  1  0  0  0  0
  9 22  1  0  0  0  0
  7  8  1  0  0  0  0
  7  9  1  0  0  0  0
 26 27  1  0  0  0  0
 26 28  1  0  0  0  0
 26 29  1  0  0  0  0
 24 25  1  0  0  0  0
 24 26  1  0  0  0  0
M  END
$$$$
default_name
  -OEChem-02102213163D

 29 28  0     1  0  0  0  0  0999 V2000
   -3.5781   -3.7296    1.2702 H   0  0  0  0  0  0  0  0  0  0  0  0
   -3.5311   -2.7616    0.7732 C   0  0  0  0  0  0  0  0  0  0  0  0
   -4.2371   -2.0766    1.2382 H   0  0  0  0  0  0  0  0  0  0  0  0
   -3.7681   -2.8816   -0.2818 H   0  0  0  0  0  0  0  0  0  0  0  0
   -2.1321   -2.2086    0.9112 C   0  0  0  0  0  0  0  0  0  0  0  0
   -1.2751   -2.8426    1.5112 O   0  0  0  0  0  0  0  0  0  0  0  0
   -1.9041   -1.0186    0.3602 N   0  0  0  0  0  0  0  0  0  0  0  0
   -2.6671   -0.5416   -0.0988 H   0  0  0  0  0  0  0  0  0  0  0  0
   -0.6131   -0.3236    0.3832 C   0  0  1  0  0  0  0  0  0  0  0  0
    0.1346   -0.9625   -0.0894 H   0  0  0  0  0  0  0  0  0  0  0  0
   -0.7253    0.9751   -0.4365 C   0  0  0  0  0  0  0  0  0  0  0  0
    0.2420    1.4819   -0.4254 H   0  0  0  0  0  0  0  0  0  0  0  0
   -0.9687    0.7278   -1.4708 H   0  0  0  0  0  0  0  0  0  0  0  0
   -1.7844    1.9465    0.0972 C   0  0  0  0  0  0  0  0  0  0  0  0
   -2.7568    1.4551    0.0885 H   0  0  0  0  0  0  0  0  0  0  0  0
   -1.5330    2.2082    1.1257 H   0  0  0  0  0  0  0  0  0  0  0  0
   -1.9184    3.4747   -0.8652 S   0  0  0  0  0  0  0  0  0  0  0  0
   -0.3328    4.2444   -0.4464 C   0  0  0  0  0  0  0  0  0  0  0  0
    0.4853    3.5969   -0.7633 H   0  0  0  0  0  0  0  0  0  0  0  0
   -0.2503    5.2036   -0.9582 H   0  0  0  0  0  0  0  0  0  0  0  0
   -0.2755    4.4062    0.6303 H   0  0  0  0  0  0  0  0  0  0  0  0
   -0.1711   -0.0594    1.8296 C   0  0  0  0  0  0  0  0  0  0  0  0
    0.9865   -0.2908    2.1726 O   0  0  0  0  0  0  0  0  0  0  0  0
   -1.0921    0.4156    2.6780 N   0  0  0  0  0  0  0  0  0  0  0  0
   -2.0168    0.5953    2.3206 H   0  0  0  0  0  0  0  0  0  0  0  0
   -0.8319    0.7034    4.0877 C   0  0  0  0  0  0  0  0  0  0  0  0
   -0.0192    1.4288    4.1710 H   0  0  0  0  0  0  0  0  0  0  0  0
   -1.7255    1.1088    4.5641 H   0  0  0  0  0  0  0  0  0  0  0  0
   -0.5319   -0.2118    4.6011 H   0  0  0  0  0  0  0  0  0  0  0  0
  5  6  2  0  0  0  0
  5  7  1  0  0  0  0
  2  3  1  0  0  0  0
  2  4  1  0  0  0  0
  2  5  1  0  0  0  0
  1  2  1  0  0  0  0
 22 23  2  0  0  0  0
 22 24  1  0  0  0  0
 18 19  1  0  0  0  0
 18 20  1  0  0  0  0
 18 21  1  0  0  0  0
 17 18  1  0  0  0  0
 14 15  1  0  0  0  0
 14 16  1  0  0  0  0
 14 17  1  0  0  0  0
 11 12  1  0  0  0  0
 11 13  1  0  0  0  0
 11 14  1  0  0  0  0
  9 10  1  0  0  0  0
  9 11  1  0  0  0  0
  9 22  1  0  0  0  0
  7  8  1  0  0  0  0
  7  9  1  0  0  0  0
 26 27  1  0  0  0  0
 26 28  1  0  0  0  0
 26 29  1  0  0  0  0
 24 25  1  0  0  0  0
 24 26  1  0  0  0  0
M  END
$$$$
default_name
  -OEChem-02102213163D

 29 28  0     1  0  0  0  0  0999 V2000
   -3.5781   -3.7296    1.2702 H   0  0  0  0  0  0  0  0  0  0  0  0
   -3.5311   -2.7616    0.7732 C   0  0  0  0  0  0  0  0  0  0  0  0
   -4.2371   -2.0766    1.2382 H   0  0  0  0  0  0  0  0  0  0  0  0
   -3.7681   -2.8816   -0.2818 H   0  0  0  0  0  0  0  0  0  0  0  0
   -2.1321   -2.2086    0.9112 C   0  0  0  0  0  0  0  0  0  0  0  0
   -1.2751   -2.8426    1.5112 O   0  0  0  0  0  0  0  0  0  0  0  0
   -1.9041   -1.0186    0.3602 N   0  0  0  0  0  0  0  0  0  0  0  0
   -2.6671   -0.5416   -0.0988 H   0  0  0  0  0  0  0  0  0  0  0  0
   -0.6131   -0.3236    0.3832 C   0  0  1  0  0  0  0  0  0  0  0  0
    0.1346   -0.9625   -0.0894 H   0  0  0  0  0  0  0  0  0  0  0  0
   -0.7253    0.9751   -0.4365 C   0  0  0  0  0  0  0  0  0  0  0  0
    0.2420    1.4819   -0.4254 H   0  0  0  0  0  0  0  0  0  0  0  0
   -0.9687    0.7278   -1.4708 H   0  0  0  0  0  0  0  0  0  0  0  0
   -1.7844    1.9465    0.0972 C   0  0  0  0  0  0  0  0  0  0  0  0
   -2.6893    1.3904    0.3404 H   0  0  0  0  0  0  0  0  0  0  0  0
   -1.4048    2.4134    1.0068 H   0  0  0  0  0  0  0  0  0  0  0  0
   -2.2264    3.2541   -1.0751 S   0  0  0  0  0  0  0  0  0  0  0  0
   -0.6847    4.2054   -1.0737 C   0  0  0  0  0  0  0  0  0  0  0  0
    0.1375    3.5736   -1.4111 H   0  0  0  0  0  0  0  0  0  0  0  0
   -0.7842    5.0559   -1.7487 H   0  0  0  0  0  0  0  0  0  0  0  0
   -0.4776    4.5689   -0.0668 H   0  0  0  0  0  0  0  0  0  0  0  0
   -0.1711   -0.0594    1.8296 C   0  0  0  0  0  0  0  0  0  0  0  0
    0.9865   -0.2908    2.1726 O   0  0  0  0  0  0  0  0  0  0  0  0
   -1.0921    0.4156    2.6780 N   0  0  0  0  0  0  0  0  0  0  0  0
   -2.0168    0.5953    2.3206 H   0  0  0  0  0  0  0  0  0  0  0  0
   -0.8319    0.7034    4.0877 C   0  0  0  0  0  0  0  0  0  0  0  0
   -0.0192    1.4288    4.1710 H   0  0  0  0  0  0  0  0  0  0  0  0
   -1.7255    1.1088    4.5641 H   0  0  0  0  0  0  0  0  0  0  0  0
   -0.5319   -0.2118    4.6011 H   0  0  0  0  0  0  0  0  0  0  0  0
  5  6  2  0  0  0  0
  5  7  1  0  0  0  0
  2  3  1  0  0  0  0
  2  4  1  0  0  0  0
  2  5  1  0  0  0  0
  1  2  1  0  0  0  0
 22 23  2  0  0  0  0
 22 24  1  0  0  0  0
 18 19  1  0  0  0  0
 18 20  1  0  0  0  0
 18 21  1  0  0  0  0
 17 18  1  0  0  0  0
 14 15  1  0  0  0  0
 14 16  1  0  0  0  0
 14 17  1  0  0  0  0
 11 12  1  0  0  0  0
 11 13  1  0  0  0  0
 11 14  1  0  0  0  0
  9 10  1  0  0  0  0
  9 11  1  0  0  0  0
  9 22  1  0  0  0  0
  7  8  1  0  0  0  0
  7  9  1  0  0  0  0
 26 27  1  0  0  0  0
 26 28  1  0  0  0  0
 26 29  1  0  0  0  0
 24 25  1  0  0  0  0
 24 26  1  0  0  0  0
M  END
$$$$
default_name
  -OEChem-02102213163D

 29 28  0     1  0  0  0  0  0999 V2000
   -3.5781   -3.7296    1.2702 H   0  0  0  0  0  0  0  0  0  0  0  0
   -3.5311   -2.7616    0.7732 C   0  0  0  0  0  0  0  0  0  0  0  0
   -4.2371   -2.0766    1.2382 H   0  0  0  0  0  0  0  0  0  0  0  0
   -3.7681   -2.8816   -0.2818 H   0  0  0  0  0  0  0  0  0  0  0  0
   -2.1321   -2.2086    0.9112 C   0  0  0  0  0  0  0  0  0  0  0  0
   -1.2751   -2.8426    1.5112 O   0  0  0  0  0  0  0  0  0  0  0  0
   -1.9041   -1.0186    0.3602 N   0  0  0  0  0  0  0  0  0  0  0  0
   -2.6671   -0.5416   -0.0988 H   0  0  0  0  0  0  0  0  0  0  0  0
   -0.6131   -0.3236    0.3832 C   0  0  1  0  0  0  0  0  0  0  0  0
    0.1346   -0.9625   -0.0894 H   0  0  0  0  0  0  0  0  0  0  0  0
   -0.7253    0.9751   -0.4365 C   0  0  0  0  0  0  0  0  0  0  0  0
    0.2420    1.4819   -0.4254 H   0  0  0  0  0  0  0  0  0  0  0  0
   -0.9687    0.7278   -1.4708 H   0  0  0  0  0  0  0  0  0  0  0  0
   -1.7844    1.9465    0.0972 C   0  0  0  0  0  0  0  0  0  0  0  0
   -2.5769    1.3790    0.5841 H   0  0  0  0  0  0  0  0  0  0  0  0
   -1.3189    2.6019    0.8342 H   0  0  0  0  0  0  0  0  0  0  0  0
   -2.5385    2.9758   -1.1878 S   0  0  0  0  0  0  0  0  0  0  0  0
   -1.1240    4.0238   -1.6149 C   0  0  0  0  0  0  0  0  0  0  0  0
   -0.3027    3.4038   -1.9756 H   0  0  0  0  0  0  0  0  0  0  0  0
   -1.4162    4.7238   -2.3983 H   0  0  0  0  0  0  0  0  0  0  0  0
   -0.8019    4.5831   -0.7361 H   0  0  0  0  0  0  0  0  0  0  0  0
   -0.1711   -0.0594    1.8296 C   0  0  0  0  0  0  0  0  0  0  0  0
    0.9865   -0.2908    2.1726 O   0  0  0  0  0  0  0  0  0  0  0  0
   -1.0921    0.4156    2.6780 N   0  0  0  0  0  0  0  0  0  0  0  0
   -2.0168    0.5953    2.3206 H   0  0  0  0  0  0  0  0  0  0  0  0
   -0.8319    0.7034    4.0877 C   0  0  0  0  0  0  0  0  0  0  0  0
   -0.0192    1.4288    4.1710 H   0  0  0  0  0  0  0  0  0  0  0  0
   -1.7255    1.1088    4.5641 H   0  0  0  0  0  0  0  0  0  0  0  0
   -0.5319   -0.2118    4.6011 H   0  0  0  0  0  0  0  0  0  0  0  0
  5  6  2  0  0  0  0
  5  7  1  0  0  0  0
  2  3  1  0  0  0  0
  2  4  1  0  0  0  0
  2  5  1  0  0  0  0
  1  2  1  0  0  0  0
 22 23  2  0  0  0  0
 22 24  1  0  0  0  0
 18 19  1  0  0  0  0
 18 20  1  0  0  0  0
 18 21  1  0  0  0  0
 17 18  1  0  0  0  0
 14 15  1  0  0  0  0
 14 16  1  0  0  0  0
 14 17  1  0  0  0  0
 11 12  1  0  0  0  0
 11 13  1  0  0  0  0
 11 14  1  0  0  0  0
  9 10  1  0  0  0  0
  9 11  1  0  0  0  0
  9 22  1  0  0  0  0
  7  8  1  0  0  0  0
  7  9  1  0  0  0  0
 26 27  1  0  0  0  0
 26 28  1  0  0  0  0
 26 29  1  0  0  0  0
 24 25  1  0  0  0  0
 24 26  1  0  0  0  0
M  END
$$$$
default_name
  -OEChem-02102213163D

 29 28  0     1  0  0  0  0  0999 V2000
   -3.5781   -3.7296    1.2702 H   0  0  0  0  0  0  0  0  0  0  0  0
   -3.5311   -2.7616    0.7732 C   0  0  0  0  0  0  0  0  0  0  0  0
   -4.2371   -2.0766    1.2382 H   0  0  0  0  0  0  0  0  0  0  0  0
   -3.7681   -2.8816   -0.2818 H   0  0  0  0  0  0  0  0  0  0  0  0
   -2.1321   -2.2086    0.9112 C   0  0  0  0  0  0  0  0  0  0  0  0
   -1.2751   -2.8426    1.5112 O   0  0  0  0  0  0  0  0  0  0  0  0
   -1.9041   -1.0186    0.3602 N   0  0  0  0  0  0  0  0  0  0  0  0
   -2.6671   -0.5416   -0.0988 H   0  0  0  0  0  0  0  0  0  0  0  0
   -0.6131   -0.3236    0.3832 C   0  0  1  0  0  0  0  0  0  0  0  0
    0.1346   -0.9625   -0.0894 H   0  0  0  0  0  0  0  0  0  0  0  0
   -0.7253    0.9751   -0.4365 C   0  0  0  0  0  0  0  0  0  0  0  0
    0.2420    1.4819   -0.4254 H   0  0  0  0  0  0  0  0  0  0  0  0
   -0.9687    0.7278   -1.4708 H   0  0  0  0  0  0  0  0  0  0  0  0
   -1.7844    1.9465    0.0972 C   0  0  0  0  0  0  0  0  0  0  0  0
   -2.4273    1.4217    0.8032 H   0  0  0  0  0  0  0  0  0  0  0  0
   -1.2812    2.7609    0.6197 H   0  0  0  0  0  0  0  0  0  0  0  0
   -2.8334    2.6587   -1.1958 S   0  0  0  0  0  0  0  0  0  0  0  0
   -1.6207    3.7121   -2.0332 C   0  0  0  0  0  0  0  0  0  0  0  0
   -0.8051    3.0993   -2.4183 H   0  0  0  0  0  0  0  0  0  0  0  0
   -2.1032    4.2298   -2.8627 H   0  0  0  0  0  0  0  0  0  0  0  0
   -1.2261    4.4479   -1.3320 H   0  0  0  0  0  0  0  0  0  0  0  0
   -0.1711   -0.0594    1.8296 C   0  0  0  0  0  0  0  0  0  0  0  0
    0.9865   -0.2908    2.1726 O   0  0  0  0  0  0  0  0  0  0  0  0
   -1.0921    0.4156    2.6780 N   0  0  0  0  0  0  0  0  0  0  0  0
   -2.0168    0.5953    2.3206 H   0  0  0  0  0  0  0  0  0  0  0  0
   -0.8319    0.7034    4.0877 C   0  0  0  0  0  0  0  0  0  0  0  0
   -0.0192    1.4288    4.1710 H   0  0  0  0  0  0  0  0  0  0  0  0
   -1.7255    1.1088    4.5641 H   0  0  0  0  0  0  0  0  0  0  0  0
   -0.5319   -0.2118    4.6011 H   0  0  0  0  0  0  0  0  0  0  0  0
  5  6  2  0  0  0  0
  5  7  1  0  0  0  0
  2  3  1  0  0  0  0
  2  4  1  0  0  0  0
  2  5  1  0  0  0  0
  1  2  1  0  0  0  0
 22 23  2  0  0  0  0
 22 24  1  0  0  0  0
 18 19  1  0  0  0  0
 18 20  1  0  0  0  0
 18 21  1  0  0  0  0
 17 18  1  0  0  0  0
 14 15  1  0  0  0  0
 14 16  1  0  0  0  0
 14 17  1  0  0  0  0
 11 12  1  0  0  0  0
 11 13  1  0  0  0  0
 11 14  1  0  0  0  0
  9 10  1  0  0  0  0
  9 11  1  0  0  0  0
  9 22  1  0  0  0  0
  7  8  1  0  0  0  0
  7  9  1  0  0  0  0
 26 27  1  0  0  0  0
 26 28  1  0  0  0  0
 26 29  1  0  0  0  0
 24 25  1  0  0  0  0
 24 26  1  0  0  0  0
M  END
$$$$
default_name
  -OEChem-02102213163D

 29 28  0     1  0  0  0  0  0999 V2000
   -3.5781   -3.7296    1.2702 H   0  0  0  0  0  0  0  0  0  0  0  0
   -3.5311   -2.7616    0.7732 C   0  0  0  0  0  0  0  0  0  0  0  0
   -4.2371   -2.0766    1.2382 H   0  0  0  0  0  0  0  0  0  0  0  0
   -3.7681   -2.8816   -0.2818 H   0  0  0  0  0  0  0  0  0  0  0  0
   -2.1321   -2.2086    0.9112 C   0  0  0  0  0  0  0  0  0  0  0  0
   -1.2751   -2.8426    1.5112 O   0  0  0  0  0  0  0  0  0  0  0  0
   -1.9041   -1.0186    0.3602 N   0  0  0  0  0  0  0  0  0  0  0  0
   -2.6671   -0.5416   -0.0988 H   0  0  0  0  0  0  0  0  0  0  0  0
   -0.6131   -0.3236    0.3832 C   0  0  1  0  0  0  0  0  0  0  0  0
    0.1346   -0.9625   -0.0894 H   0  0  0  0  0  0  0  0  0  0  0  0
   -0.7253    0.9751   -0.4365 C   0  0  0  0  0  0  0  0  0  0  0  0
    0.2420    1.4819   -0.4254 H   0  0  0  0  0  0  0  0  0  0  0  0
   -0.9687    0.7278   -1.4708 H   0  0  0  0  0  0  0  0  0  0  0  0
   -1.7844    1.9465    0.0972 C   0  0  0  0  0  0  0  0  0  0  0  0
   -2.2507    1.5156    0.9827 H   0  0  0  0  0  0  0  0  0  0  0  0
   -1.2943    2.8794    0.3779 H   0  0  0  0  0  0  0  0  0  0  0  0
   -3.0910    2.3244   -1.0984 S   0  0  0  0  0  0  0  0  0  0  0  0
   -2.1409    3.2915   -2.3001 C   0  0  0  0  0  0  0  0  0  0  0  0
   -1.3355    2.6807   -2.7091 H   0  0  0  0  0  0  0  0  0  0  0  0
   -2.7985    3.6078   -3.1102 H   0  0  0  0  0  0  0  0  0  0  0  0
   -1.7214    4.1726   -1.8138 H   0  0  0  0  0  0  0  0  0  0  0  0
   -0.1711   -0.0594    1.8296 C   0  0  0  0  0  0  0  0  0  0  0  0
    0.9865   -0.2908    2.1726 O   0  0  0  0  0  0  0  0  0  0  0  0
   -1.0921    0.4156    2.6780 N   0  0  0  0  0  0  0  0  0  0  0  0
   -2.0168    0.5953    2.3206 H   0  0  0  0  0  0  0  0  0  0  0  0
   -0.8319    0.7034    4.0877 C   0  0  0  0  0  0  0  0  0  0  0  0
   -0.0192    1.4288    4.1710 H   0  0  0  0  0  0  0  0  0  0  0  0
   -1.7255    1.1088    4.5641 H   0  0  0  0  0  0  0  0  0  0  0  0
   -0.5319   -0.2118    4.6011 H   0  0  0  0  0  0  0  0  0  0  0  0
  5  6  2  0  0  0  0
  5  7  1  0  0  0  0
  2  3  1  0  0  0  0
  2  4  1  0  0  0  0
  2  5  1  0  0  0  0
  1  2  1  0  0  0  0
 22 23  2  0  0  0  0
 22 24  1  0  0  0  0
 18 19  1  0  0  0  0
 18 20  1  0  0  0  0
 18 21  1  0  0  0  0
 17 18  1  0  0  0  0
 14 15  1  0  0  0  0
 14 16  1  0  0  0  0
 14 17  1  0  0  0  0
 11 12  1  0  0  0  0
 11 13  1  0  0  0  0
 11 14  1  0  0  0  0
  9 10  1  0  0  0  0
  9 11  1  0  0  0  0
  9 22  1  0  0  0  0
  7  8  1  0  0  0  0
  7  9  1  0  0  0  0
 26 27  1  0  0  0  0
 26 28  1  0  0  0  0
 26 29  1  0  0  0  0
 24 25  1  0  0  0  0
 24 26  1  0  0  0  0
M  END
$$$$
default_name
  -OEChem-02102213163D

 29 28  0     1  0  0  0  0  0999 V2000
   -3.5781   -3.7296    1.2702 H   0  0  0  0  0  0  0  0  0  0  0  0
   -3.5311   -2.7616    0.7732 C   0  0  0  0  0  0  0  0  0  0  0  0
   -4.2371   -2.0766    1.2382 H   0  0  0  0  0  0  0  0  0  0  0  0
   -3.7681   -2.8816   -0.2818 H   0  0  0  0  0  0  0  0  0  0  0  0
   -2.1321   -2.2086    0.9112 C   0  0  0  0  0  0  0  0  0  0  0  0
   -1.2751   -2.8426    1.5112 O   0  0  0  0  0  0  0  0  0  0  0  0
   -1.9041   -1.0186    0.3602 N   0  0  0  0  0  0  0  0  0  0  0  0
   -2.6671   -0.5416   -0.0988 H   0  0  0  0  0  0  0  0  0  0  0  0
   -0.6131   -0.3236    0.3832 C   0  0  1  0  0  0  0  0  0  0  0  0
    0.1346   -0.9625   -0.0894 H   0  0  0  0  0  0  0  0  0  0  0  0
   -0.7253    0.9751   -0.4365 C   0  0  0  0  0  0  0  0  0  0  0  0
    0.2420    1.4819   -0.4254 H   0  0  0  0  0  0  0  0  0  0  0  0
   -0.9687    0.7278   -1.4708 H   0  0  0  0  0  0  0  0  0  0  0  0
   -1.7844    1.9465    0.0972 C   0  0  0  0  0  0  0  0  0  0  0  0
   -2.0592    1.6543    1.1103 H   0  0  0  0  0  0  0  0  0  0  0  0
   -1.3573    2.9495    0.1253 H   0  0  0  0  0  0  0  0  0  0  0  0
   -3.2937    1.9956   -0.9024 S   0  0  0  0  0  0  0  0  0  0  0  0
   -2.6494    2.7906   -2.3973 C   0  0  0  0  0  0  0  0  0  0  0  0
   -1.8579    2.1766   -2.8281 H   0  0  0  0  0  0  0  0  0  0  0  0
   -3.4547    2.9001   -3.1241 H   0  0  0  0  0  0  0  0  0  0  0  0
   -2.2541    3.7759   -2.1487 H   0  0  0  0  0  0  0  0  0  0  0  0
   -0.1711   -0.0594    1.8296 C   0  0  0  0  0  0  0  0  0  0  0  0
    0.9865   -0.2908    2.1726 O   0  0  0  0  0  0  0  0  0  0  0  0
   -1.0921    0.4156    2.6780 N   0  0  0  0  0  0  0  0  0  0  0  0
   -2.0168    0.5953    2.3206 H   0  0  0  0  0  0  0  0  0  0  0  0
   -0.8319    0.7034    4.0877 C   0  0  0  0  0  0  0  0  0  0  0  0
   -0.0192    1.4288    4.1710 H   0  0  0  0  0  0  0  0  0  0  0  0
   -1.7255    1.1088    4.5641 H   0  0  0  0  0  0  0  0  0  0  0  0
   -0.5319   -0.2118    4.6011 H   0  0  0  0  0  0  0  0  0  0  0  0
  5  6  2  0  0  0  0
  5  7  1  0  0  0  0
  2  3  1  0  0  0  0
  2  4  1  0  0  0  0
  2  5  1  0  0  0  0
  1  2  1  0  0  0  0
 22 23  2  0  0  0  0
 22 24  1  0  0  0  0
 18 19  1  0  0  0  0
 18 20  1  0  0  0  0
 18 21  1  0  0  0  0
 17 18  1  0  0  0  0
 14 15  1  0  0  0  0
 14 16  1  0  0  0  0
 14 17  1  0  0  0  0
 11 12  1  0  0  0  0
 11 13  1  0  0  0  0
 11 14  1  0  0  0  0
  9 10  1  0  0  0  0
  9 11  1  0  0  0  0
  9 22  1  0  0  0  0
  7  8  1  0  0  0  0
  7  9  1  0  0  0  0
 26 27  1  0  0  0  0
 26 28  1  0  0  0  0
 26 29  1  0  0  0  0
 24 25  1  0  0  0  0
 24 26  1  0  0  0  0
M  END
$$$$
default_name
  -OEChem-02102213163D

 29 28  0     1  0  0  0  0  0999 V2000
   -3.5781   -3.7296    1.2702 H   0  0  0  0  0  0  0  0  0  0  0  0
   -3.5311   -2.7616    0.7732 C   0  0  0  0  0  0  0  0  0  0  0  0
   -4.2371   -2.0766    1.2382 H   0  0  0  0  0  0  0  0  0  0  0  0
   -3.7681   -2.8816   -0.2818 H   0  0  0  0  0  0  0  0  0  0  0  0
   -2.1321   -2.2086    0.9112 C   0  0  0  0  0  0  0  0  0  0  0  0
   -1.2751   -2.8426    1.5112 O   0  0  0  0  0  0  0  0  0  0  0  0
   -1.9041   -1.0186    0.3602 N   0  0  0  0  0  0  0  0  0  0  0  0
   -2.6671   -0.5416   -0.0988 H   0  0  0  0  0  0  0  0  0  0  0  0
   -0.6131   -0.3236    0.3832 C   0  0  1  0  0  0  0  0  0  0  0  0
    0.1346   -0.9625   -0.0894 H   0  0  0  0  0  0  0  0  0  0  0  0
   -0.7253    0.9751   -0.4365 C   0  0  0  0  0  0  0  0  0  0  0  0
    0.2420    1.4819   -0.4254 H   0  0  0  0  0  0  0  0  0  0  0  0
   -0.9687    0.7278   -1.4708 H   0  0  0  0  0  0  0  0  0  0  0  0
   -1.7844    1.9465    0.0972 C   0  0  0  0  0  0  0  0  0  0  0  0
   -1.8658    1.8283    1.1773 H   0  0  0  0  0  0  0  0  0  0  0  0
   -1.4658    2.9664   -0.1209 H   0  0  0  0  0  0  0  0  0  0  0  0
   -3.4277    1.6949   -0.6210 S   0  0  0  0  0  0  0  0  0  0  0  0
   -3.1113    2.2435   -2.3182 C   0  0  0  0  0  0  0  0  0  0  0  0
   -2.3365    1.6214   -2.7673 H   0  0  0  0  0  0  0  0  0  0  0  0
   -4.0270    2.1548   -2.9034 H   0  0  0  0  0  0  0  0  0  0  0  0
   -2.7878    3.2848   -2.3139 H   0  0  0  0  0  0  0  0  0  0  0  0
   -0.1711   -0.0594    1.8296 C   0  0  0  0  0  0  0  0  0  0  0  0
    0.9865   -0.2908    2.1726 O   0  0  0  0  0  0  0  0  0  0  0  0
   -1.0921    0.4156    2.6780 N   0  0  0  0  0  0  0  0  0  0  0  0
   -2.0168    0.5953    2.3206 H   0  0  0  0  0  0  0  0  0  0  0  0
   -0.8319    0.7034    4.0877 C   0  0  0  0  0  0  0  0  0  0  0  0
   -0.0192    1.4288    4.1710 H   0  0  0  0  0  0  0  0  0  0  0  0
   -1.7255    1.1088    4.5641 H   0  0  0  0  0  0  0  0  0  0  0  0
   -0.5319   -0.2118    4.6011 H   0  0  0  0  0  0  0  0  0  0  0  0
  5  6  2  0  0  0  0
  5  7  1  0  0  0  0
  2  3  1  0  0  0  0
  2  4  1  0  0  0  0
  2  5  1  0  0  0  0
  1  2  1  0  0  0  0
 22 23  2  0  0  0  0
 22 24  1  0  0  0  0
 18 19  1  0  0  0  0
 18 20  1  0  0  0  0
 18 21  1  0  0  0  0
 17 18  1  0  0  0  0
 14 15  1  0  0  0  0
 14 16  1  0  0  0  0
 14 17  1  0  0  0  0
 11 12  1  0  0  0  0
 11 13  1  0  0  0  0
 11 14  1  0  0  0  0
  9 10  1  0  0  0  0
  9 11  1  0  0  0  0
  9 22  1  0  0  0  0
  7  8  1  0  0  0  0
  7  9  1  0  0  0  0
 26 27  1  0  0  0  0
 26 28  1  0  0  0  0
 26 29  1  0  0  0  0
 24 25  1  0  0  0  0
 24 26  1  0  0  0  0
M  END
$$$$
default_name
  -OEChem-02102213163D

 29 28  0     1  0  0  0  0  0999 V2000
   -3.5781   -3.7296    1.2702 H   0  0  0  0  0  0  0  0  0  0  0  0
   -3.5311   -2.7616    0.7732 C   0  0  0  0  0  0  0  0  0  0  0  0
   -4.2371   -2.0766    1.2382 H   0  0  0  0  0  0  0  0  0  0  0  0
   -3.7681   -2.8816   -0.2818 H   0  0  0  0  0  0  0  0  0  0  0  0
   -2.1321   -2.2086    0.9112 C   0  0  0  0  0  0  0  0  0  0  0  0
   -1.2751   -2.8426    1.5112 O   0  0  0  0  0  0  0  0  0  0  0  0
   -1.9041   -1.0186    0.3602 N   0  0  0  0  0  0  0  0  0  0  0  0
   -2.6671   -0.5416   -0.0988 H   0  0  0  0  0  0  0  0  0  0  0  0
   -0.6131   -0.3236    0.3832 C   0  0  1  0  0  0  0  0  0  0  0  0
    0.1346   -0.9625   -0.0894 H   0  0  0  0  0  0  0  0  0  0  0  0
   -0.7253    0.9751   -0.4365 C   0  0  0  0  0  0  0  0  0  0  0  0
    0.2420    1.4819   -0.4254 H   0  0  0  0  0  0  0  0  0  0  0  0
   -0.9687    0.7278   -1.4708 H   0  0  0  0  0  0  0  0  0  0  0  0
   -1.7844    1.9465    0.0972 C   0  0  0  0  0  0  0  0  0  0  0  0
   -1.6837    2.0259    1.1792 H   0  0  0  0  0  0  0  0  0  0  0  0
   -1.6126    2.9289   -0.3440 H   0  0  0  0  0  0  0  0  0  0  0  0
   -3.4840    1.4426   -0.2734 S   0  0  0  0  0  0  0  0  0  0  0  0
   -3.4952    1.6876   -2.0683 C   0  0  0  0  0  0  0  0  0  0  0  0
   -2.7389    1.0527   -2.5308 H   0  0  0  0  0  0  0  0  0  0  0  0
   -4.4764    1.4228   -2.4631 H   0  0  0  0  0  0  0  0  0  0  0  0
   -3.2862    2.7328   -2.2982 H   0  0  0  0  0  0  0  0  0  0  0  0
   -0.1711   -0.0594    1.8296 C   0  0  0  0  0  0  0  0  0  0  0  0
    0.9865   -0.2908    2.1726 O   0  0  0  0  0  0  0  0  0  0  0  0
   -1.0921    0.4156    2.6780 N   0  0  0  0  0  0  0  0  0  0  0  0
   -2.0168    0.5953    2.3206 H   0  0  0  0  0  0  0  0  0  0  0  0
   -0.8319    0.7034    4.0877 C   0  0  0  0  0  0  0  0  0  0  0  0
   -0.0192    1.4288    4.1710 H   0  0  0  0  0  0  0  0  0  0  0  0
   -1.7255    1.1088    4.5641 H   0  0  0  0  0  0  0  0  0  0  0  0
   -0.5319   -0.2118    4.6011 H   0  0  0  0  0  0  0  0  0  0  0  0
  5  6  2  0  0  0  0
  5  7  1  0  0  0  0
  2  3  1  0  0  0  0
  2  4  1  0  0  0  0
  2  5  1  0  0  0  0
  1  2  1  0  0  0  0
 22 23  2  0  0  0  0
 22 24  1  0  0  0  0
 18 19  1  0  0  0  0
 18 20  1  0  0  0  0
 18 21  1  0  0  0  0
 17 18  1  0  0  0  0
 14 15  1  0  0  0  0
 14 16  1  0  0  0  0
 14 17  1  0  0  0  0
 11 12  1  0  0  0  0
 11 13  1  0  0  0  0
 11 14  1  0  0  0  0
  9 10  1  0  0  0  0
  9 11  1  0  0  0  0
  9 22  1  0  0  0  0
  7  8  1  0  0  0  0
  7  9  1  0  0  0  0
 26 27  1  0  0  0  0
 26 28  1  0  0  0  0
 26 29  1  0  0  0  0
 24 25  1  0  0  0  0
 24 26  1  0  0  0  0
M  END
$$$$
default_name
  -OEChem-02102213163D

 29 28  0     1  0  0  0  0  0999 V2000
   -3.5781   -3.7296    1.2702 H   0  0  0  0  0  0  0  0  0  0  0  0
   -3.5311   -2.7616    0.7732 C   0  0  0  0  0  0  0  0  0  0  0  0
   -4.2371   -2.0766    1.2382 H   0  0  0  0  0  0  0  0  0  0  0  0
   -3.7681   -2.8816   -0.2818 H   0  0  0  0  0  0  0  0  0  0  0  0
   -2.1321   -2.2086    0.9112 C   0  0  0  0  0  0  0  0  0  0  0  0
   -1.2751   -2.8426    1.5112 O   0  0  0  0  0  0  0  0  0  0  0  0
   -1.9041   -1.0186    0.3602 N   0  0  0  0  0  0  0  0  0  0  0  0
   -2.6671   -0.5416   -0.0988 H   0  0  0  0  0  0  0  0  0  0  0  0
   -0.6131   -0.3236    0.3832 C   0  0  1  0  0  0  0  0  0  0  0  0
    0.1346   -0.9625   -0.0894 H   0  0  0  0  0  0  0  0  0  0  0  0
   -0.7253    0.9751   -0.4365 C   0  0  0  0  0  0  0  0  0  0  0  0
    0.2420    1.4819   -0.4254 H   0  0  0  0  0  0  0  0  0  0  0  0
   -0.9687    0.7278   -1.4708 H   0  0  0  0  0  0  0  0  0  0  0  0
   -1.7844    1.9465    0.0972 C   0  0  0  0  0  0  0  0  0  0  0  0
   -1.5252    2.2334    1.1159 H   0  0  0  0  0  0  0  0  0  0  0  0
   -1.7876    2.8396   -0.5286 H   0  0  0  0  0  0  0  0  0  0  0  0
   -3.4585    1.2561    0.1167 S   0  0  0  0  0  0  0  0  0  0  0  0
   -3.7749    1.1608   -1.6645 C   0  0  0  0  0  0  0  0  0  0  0  0
   -3.0375    0.5095   -2.1346 H   0  0  0  0  0  0  0  0  0  0  0  0
   -4.7724    0.7541   -1.8332 H   0  0  0  0  0  0  0  0  0  0  0  0
   -3.7152    2.1575   -2.1026 H   0  0  0  0  0  0  0  0  0  0  0  0
   -0.1711   -0.0594    1.8296 C   0  0  0  0  0  0  0  0  0  0  0  0
    0.9865   -0.2908    2.1726 O   0  0  0  0  0  0  0  0  0  0  0  0
   -1.0921    0.4156    2.6780 N   0  0  0  0  0  0  0  0  0  0  0  0
   -2.0168    0.5953    2.3206 H   0  0  0  0  0  0  0  0  0  0  0  0
   -0.8319    0.7034    4.0877 C   0  0  0  0  0  0  0  0  0  0  0  0
   -0.0192    1.4288    4.1710 H   0  0  0  0  0  0  0  0  0  0  0  0
   -1.7255    1.1088    4.5641 H   0  0  0  0  0  0  0  0  0  0  0  0
   -0.5319   -0.2118    4.6011 H   0  0  0  0  0  0  0  0  0  0  0  0
  5  6  2  0  0  0  0
  5  7  1  0  0  0  0
  2  3  1  0  0  0  0
  2  4  1  0  0  0  0
  2  5  1  0  0  0  0
  1  2  1  0  0  0  0
 22 23  2  0  0  0  0
 22 24  1  0  0  0  0
 18 19  1  0  0  0  0
 18 20  1  0  0  0  0
 18 21  1  0  0  0  0
 17 18  1  0  0  0  0
 14 15  1  0  0  0  0
 14 16  1  0  0  0  0
 14 17  1  0  0  0  0
 11 12  1  0  0  0  0
 11 13  1  0  0  0  0
 11 14  1  0  0  0  0
  9 10  1  0  0  0  0
  9 11  1  0  0  0  0
  9 22  1  0  0  0  0
  7  8  1  0  0  0  0
  7  9  1  0  0  0  0
 26 27  1  0  0  0  0
 26 28  1  0  0  0  0
 26 29  1  0  0  0  0
 24 25  1  0  0  0  0
 24 26  1  0  0  0  0
M  END
$$$$
default_name
  -OEChem-02102213163D

 29 28  0     1  0  0  0  0  0999 V2000
   -3.5781   -3.7296    1.2702 H   0  0  0  0  0  0  0  0  0  0  0  0
   -3.5311   -2.7616    0.7732 C   0  0  0  0  0  0  0  0  0  0  0  0
   -4.2371   -2.0766    1.2382 H   0  0  0  0  0  0  0  0  0  0  0  0
   -3.7681   -2.8816   -0.2818 H   0  0  0  0  0  0  0  0  0  0  0  0
   -2.1321   -2.2086    0.9112 C   0  0  0  0  0  0  0  0  0  0  0  0
   -1.2751   -2.8426    1.5112 O   0  0  0  0  0  0  0  0  0  0  0  0
   -1.9041   -1.0186    0.3602 N   0  0  0  0  0  0  0  0  0  0  0  0
   -2.6671   -0.5416   -0.0988 H   0  0  0  0  0  0  0  0  0  0  0  0
   -0.6131   -0.3236    0.3832 C   0  0  1  0  0  0  0  0  0  0  0  0
    0.1346   -0.9625   -0.0894 H   0  0  0  0  0  0  0  0  0  0  0  0
   -0.7253    0.9751   -0.4365 C   0  0  0  0  0  0  0  0  0  0  0  0
    0.2420    1.4819   -0.4254 H   0  0  0  0  0  0  0  0  0  0  0  0
   -0.9687    0.7278   -1.4708 H   0  0  0  0  0  0  0  0  0  0  0  0
   -1.7844    1.9465    0.0972 C   0  0  0  0  0  0  0  0  0  0  0  0
   -1.4013    2.4369    0.9916 H   0  0  0  0  0  0  0  0  0  0  0  0
   -1.9789    2.7045   -0.6623 H   0  0  0  0  0  0  0  0  0  0  0  0
   -3.3532    1.1479    0.5226 S   0  0  0  0  0  0  0  0  0  0  0  0
   -3.9314    0.6989   -1.1344 C   0  0  0  0  0  0  0  0  0  0  0  0
   -3.2120    0.0288   -1.6059 H   0  0  0  0  0  0  0  0  0  0  0  0
   -4.8947    0.1940   -1.0566 H   0  0  0  0  0  0  0  0  0  0  0  0
   -4.0457    1.5982   -1.7404 H   0  0  0  0  0  0  0  0  0  0  0  0
   -0.1711   -0.0594    1.8296 C   0  0  0  0  0  0  0  0  0  0  0  0
    0.9865   -0.2908    2.1726 O   0  0  0  0  0  0  0  0  0  0  0  0
   -1.0921    0.4156    2.6780 N   0  0  0  0  0  0  0  0  0  0  0  0
   -2.0168    0.5953    2.3206 H   0  0  0  0  0  0  0  0  0  0  0  0
   -0.8319    0.7034    4.0877 C   0  0  0  0  0  0  0  0  0  0  0  0
   -0.0192    1.4288    4.1710 H   0  0  0  0  0  0  0  0  0  0  0  0
   -1.7255    1.1088    4.5641 H   0  0  0  0  0  0  0  0  0  0  0  0
   -0.5319   -0.2118    4.6011 H   0  0  0  0  0  0  0  0  0  0  0  0
  5  6  2  0  0  0  0
  5  7  1  0  0  0  0
  2  3  1  0  0  0  0
  2  4  1  0  0  0  0
  2  5  1  0  0  0  0
  1  2  1  0  0  0  0
 22 23  2  0  0  0  0
 22 24  1  0  0  0  0
 18 19  1  0  0  0  0
 18 20  1  0  0  0  0
 18 21  1  0  0  0  0
 17 18  1  0  0  0  0
 14 15  1  0  0  0  0
 14 16  1  0  0  0  0
 14 17  1  0  0  0  0
 11 12  1  0  0  0  0
 11 13  1  0  0  0  0
 11 14  1  0  0  0  0
  9 10  1  0  0  0  0
  9 11  1  0  0  0  0
  9 22  1  0  0  0  0
  7  8  1  0  0  0  0
  7  9  1  0  0  0  0
 26 27  1  0  0  0  0
 26 28  1  0  0  0  0
 26 29  1  0  0  0  0
 24 25  1  0  0  0  0
 24 26  1  0  0  0  0
M  END
$$$$
default_name
  -OEChem-02102213163D

 29 28  0     1  0  0  0  0  0999 V2000
   -3.5781   -3.7296    1.2702 H   0  0  0  0  0  0  0  0  0  0  0  0
   -3.5311   -2.7616    0.7732 C   0  0  0  0  0  0  0  0  0  0  0  0
   -4.2371   -2.0766    1.2382 H   0  0  0  0  0  0  0  0  0  0  0  0
   -3.7681   -2.8816   -0.2818 H   0  0  0  0  0  0  0  0  0  0  0  0
   -2.1321   -2.2086    0.9112 C   0  0  0  0  0  0  0  0  0  0  0  0
   -1.2751   -2.8426    1.5112 O   0  0  0  0  0  0  0  0  0  0  0  0
   -1.9041   -1.0186    0.3602 N   0  0  0  0  0  0  0  0  0  0  0  0
   -2.6671   -0.5416   -0.0988 H   0  0  0  0  0  0  0  0  0  0  0  0
   -0.6131   -0.3236    0.3832 C   0  0  1  0  0  0  0  0  0  0  0  0
    0.1346   -0.9625   -0.0894 H   0  0  0  0  0  0  0  0  0  0  0  0
   -0.7253    0.9751   -0.4365 C   0  0  0  0  0  0  0  0  0  0  0  0
    0.2420    1.4819   -0.4254 H   0  0  0  0  0  0  0  0  0  0  0  0
   -0.9687    0.7278   -1.4708 H   0  0  0  0  0  0  0  0  0  0  0  0
   -1.7844    1.9465    0.0972 C   0  0  0  0  0  0  0  0  0  0  0  0
   -1.3202    2.6223    0.8148 H   0  0  0  0  0  0  0  0  0  0  0  0
   -2.1734    2.5329   -0.7359 H   0  0  0  0  0  0  0  0  0  0  0  0
   -3.1751    1.1255    0.9168 S   0  0  0  0  0  0  0  0  0  0  0  0
   -3.9541    0.3334   -0.5141 C   0  0  0  0  0  0  0  0  0  0  0  0
   -3.2505   -0.3568   -0.9806 H   0  0  0  0  0  0  0  0  0  0  0  0
   -4.8351   -0.2191   -0.1863 H   0  0  0  0  0  0  0  0  0  0  0  0
   -4.2552    1.0928   -1.2363 H   0  0  0  0  0  0  0  0  0  0  0  0
   -0.1711   -0.0594    1.8296 C   0  0  0  0  0  0  0  0  0  0  0  0
    0.9865   -0.2908    2.1726 O   0  0  0  0  0  0  0  0  0  0  0  0
   -1.0921    0.4156    2.6780 N   0  0  0  0  0  0  0  0  0  0  0  0
   -2.0168    0.5953    2.3206 H   0  0  0  0  0  0  0  0  0  0  0  0
   -0.8319    0.7034    4.0877 C   0  0  0  0  0  0  0  0  0  0  0  0
   -0.0192    1.4288    4.1710 H   0  0  0  0  0  0  0  0  0  0  0  0
   -1.7255    1.1088    4.5641 H   0  0  0  0  0  0  0  0  0  0  0  0
   -0.5319   -0.2118    4.6011 H   0  0  0  0  0  0  0  0  0  0  0  0
  5  6  2  0  0  0  0
  5  7  1  0  0  0  0
  2  3  1  0  0  0  0
  2  4  1  0  0  0  0
  2  5  1  0  0  0  0
  1  2  1  0  0  0  0
 22 23  2  0  0  0  0
 22 24  1  0  0  0  0
 18 19  1  0  0  0  0
 18 20  1  0  0  0  0
 18 21  1  0  0  0  0
 17 18  1  0  0  0  0
 14 15  1  0  0  0  0
 14 16  1  0  0  0  0
 14 17  1  0  0  0  0
 11 12  1  0  0  0  0
 11 13  1  0  0  0  0
 11 14  1  0  0  0  0
  9 10  1  0  0  0  0
  9 11  1  0  0  0  0
  9 22  1  0  0  0  0
  7  8  1  0  0  0  0
  7  9  1  0  0  0  0
 26 27  1  0  0  0  0
 26 28  1  0  0  0  0
 26 29  1  0  0  0  0
 24 25  1  0  0  0  0
 24 26  1  0  0  0  0
M  END
$$$$
default_name
  -OEChem-02102213163D

 29 28  0     1  0  0  0  0  0999 V2000
   -3.5781   -3.7296    1.2702 H   0  0  0  0  0  0  0  0  0  0  0  0
   -3.5311   -2.7616    0.7732 C   0  0  0  0  0  0  0  0  0  0  0  0
   -4.2371   -2.0766    1.2382 H   0  0  0  0  0  0  0  0  0  0  0  0
   -3.7681   -2.8816   -0.2818 H   0  0  0  0  0  0  0  0  0  0  0  0
   -2.1321   -2.2086    0.9112 C   0  0  0  0  0  0  0  0  0  0  0  0
   -1.2751   -2.8426    1.5112 O   0  0  0  0  0  0  0  0  0  0  0  0
   -1.9041   -1.0186    0.3602 N   0  0  0  0  0  0  0  0  0  0  0  0
   -2.6671   -0.5416   -0.0988 H   0  0  0  0  0  0  0  0  0  0  0  0
   -0.6131   -0.3236    0.3832 C   0  0  1  0  0  0  0  0  0  0  0  0
    0.1346   -0.9625   -0.0894 H   0  0  0  0  0  0  0  0  0  0  0  0
   -0.7253    0.9751   -0.4365 C   0  0  0  0  0  0  0  0  0  0  0  0
    0.2420    1.4819   -0.4254 H   0  0  0  0  0  0  0  0  0  0  0  0
   -0.9687    0.7278   -1.4708 H   0  0  0  0  0  0  0  0  0  0  0  0
   -1.7844    1.9465    0.0972 C   0  0  0  0  0  0  0  0  0  0  0  0
   -1.2877    2.7771    0.5977 H   0  0  0  0  0  0  0  0  0  0  0  0
   -2.3578    2.3365   -0.7445 H   0  0  0  0  0  0  0  0  0  0  0  0
   -2.9364    1.1904    1.2724 S   0  0  0  0  0  0  0  0  0  0  0  0
   -3.8413    0.0893    0.1541 C   0  0  0  0  0  0  0  0  0  0  0  0
   -3.1504   -0.6209   -0.3013 H   0  0  0  0  0  0  0  0  0  0  0  0
   -4.5975   -0.4571    0.7185 H   0  0  0  0  0  0  0  0  0  0  0  0
   -4.3293    0.6760   -0.6247 H   0  0  0  0  0  0  0  0  0  0  0  0
   -0.1711   -0.0594    1.8296 C   0  0  0  0  0  0  0  0  0  0  0  0
    0.9865   -0.2908    2.1726 O   0  0  0  0  0  0  0  0  0  0  0  0
   -1.0921    0.4156    2.6780 N   0  0  0  0  0  0  0  0  0  0  0  0
   -2.0168    0.5953    2.3206 H   0  0  0  0  0  0  0  0  0  0  0  0
   -0.8319    0.7034    4.0877 C   0  0  0  0  0  0  0  0  0  0  0  0
   -0.0192    1.4288    4.1710 H   0  0  0  0  0  0  0  0  0  0  0  0
   -1.7255    1.1088    4.5641 H   0  0  0  0  0  0  0  0  0  0  0  0
   -0.5319   -0.2118    4.6011 H   0  0  0  0  0  0  0  0  0  0  0  0
  5  6  2  0  0  0  0
  5  7  1  0  0  0  0
  2  3  1  0  0  0  0
  2  4  1  0  0  0  0
  2  5  1  0  0  0  0
  1  2  1  0  0  0  0
 22 23  2  0  0  0  0
 22 24  1  0  0  0  0
 18 19  1  0  0  0  0
 18 20  1  0  0  0  0
 18 21  1  0  0  0  0
 17 18  1  0  0  0  0
 14 15  1  0  0  0  0
 14 16  1  0  0  0  0
 14 17  1  0  0  0  0
 11 12  1  0  0  0  0
 11 13  1  0  0  0  0
 11 14  1  0  0  0  0
  9 10  1  0  0  0  0
  9 11  1  0  0  0  0
  9 22  1  0  0  0  0
  7  8  1  0  0  0  0
  7  9  1  0  0  0  0
 26 27  1  0  0  0  0
 26 28  1  0  0  0  0
 26 29  1  0  0  0  0
 24 25  1  0  0  0  0
 24 26  1  0  0  0  0
M  END
$$$$
default_name
  -OEChem-02102213163D

 29 28  0     1  0  0  0  0  0999 V2000
   -3.5781   -3.7296    1.2702 H   0  0  0  0  0  0  0  0  0  0  0  0
   -3.5311   -2.7616    0.7732 C   0  0  0  0  0  0  0  0  0  0  0  0
   -4.2371   -2.0766    1.2382 H   0  0  0  0  0  0  0  0  0  0  0  0
   -3.7681   -2.8816   -0.2818 H   0  0  0  0  0  0  0  0  0  0  0  0
   -2.1321   -2.2086    0.9112 C   0  0  0  0  0  0  0  0  0  0  0  0
   -1.2751   -2.8426    1.5112 O   0  0  0  0  0  0  0  0  0  0  0  0
   -1.9041   -1.0186    0.3602 N   0  0  0  0  0  0  0  0  0  0  0  0
   -2.6671   -0.5416   -0.0988 H   0  0  0  0  0  0  0  0  0  0  0  0
   -0.6131   -0.3236    0.3832 C   0  0  1  0  0  0  0  0  0  0  0  0
    0.1346   -0.9625   -0.0894 H   0  0  0  0  0  0  0  0  0  0  0  0
   -0.7253    0.9751   -0.4365 C   0  0  0  0  0  0  0  0  0  0  0  0
    0.2420    1.4819   -0.4254 H   0  0  0  0  0  0  0  0  0  0  0  0
   -0.9687    0.7278   -1.4708 H   0  0  0  0  0  0  0  0  0  0  0  0
   -1.7844    1.9465    0.0972 C   0  0  0  0  0  0  0  0  0  0  0  0
   -1.3058    2.8908    0.3549 H   0  0  0  0  0  0  0  0  0  0  0  0
   -2.5197    2.1286   -0.6873 H   0  0  0  0  0  0  0  0  0  0  0  0
   -2.6534    1.3381    1.5650 S   0  0  0  0  0  0  0  0  0  0  0  0
   -3.6007   -0.0169    0.8247 C   0  0  0  0  0  0  0  0  0  0  0  0
   -2.9186   -0.7455    0.3856 H   0  0  0  0  0  0  0  0  0  0  0  0
   -4.1981   -0.5039    1.5960 H   0  0  0  0  0  0  0  0  0  0  0  0
   -4.2630    0.3761    0.0528 H   0  0  0  0  0  0  0  0  0  0  0  0
   -0.1711   -0.0594    1.8296 C   0  0  0  0  0  0  0  0  0  0  0  0
    0.9865   -0.2908    2.1726 O   0  0  0  0  0  0  0  0  0  0  0  0
   -1.0921    0.4156    2.6780 N   0  0  0  0  0  0  0  0  0  0  0  0
   -2.0168    0.5953    2.3206 H   0  0  0  0  0  0  0  0  0  0  0  0
   -0.8319    0.7034    4.0877 C   0  0  0  0  0  0  0  0  0  0  0  0
   -0.0192    1.4288    4.1710 H   0  0  0  0  0  0  0  0  0  0  0  0
   -1.7255    1.1088    4.5641 H   0  0  0  0  0  0  0  0  0  0  0  0
   -0.5319   -0.2118    4.6011 H   0  0  0  0  0  0  0  0  0  0  0  0
  5  6  2  0  0  0  0
  5  7  1  0  0  0  0
  2  3  1  0  0  0  0
  2  4  1  0  0  0  0
  2  5  1  0  0  0  0
  1  2  1  0  0  0  0
 22 23  2  0  0  0  0
 22 24  1  0  0  0  0
 18 19  1  0  0  0  0
 18 20  1  0  0  0  0
 18 21  1  0  0  0  0
 17 18  1  0  0  0  0
 14 15  1  0  0  0  0
 14 16  1  0  0  0  0
 14 17  1  0  0  0  0
 11 12  1  0  0  0  0
 11 13  1  0  0  0  0
 11 14  1  0  0  0  0
  9 10  1  0  0  0  0
  9 11  1  0  0  0  0
  9 22  1  0  0  0  0
  7  8  1  0  0  0  0
  7  9  1  0  0  0  0
 26 27  1  0  0  0  0
 26 28  1  0  0  0  0
 26 29  1  0  0  0  0
 24 25  1  0  0  0  0
 24 26  1  0  0  0  0
M  END
$$$$
default_name
  -OEChem-02102213163D

 29 28  0     1  0  0  0  0  0999 V2000
   -3.5781   -3.7296    1.2702 H   0  0  0  0  0  0  0  0  0  0  0  0
   -3.5311   -2.7616    0.7732 C   0  0  0  0  0  0  0  0  0  0  0  0
   -4.2371   -2.0766    1.2382 H   0  0  0  0  0  0  0  0  0  0  0  0
   -3.7681   -2.8816   -0.2818 H   0  0  0  0  0  0  0  0  0  0  0  0
   -2.1321   -2.2086    0.9112 C   0  0  0  0  0  0  0  0  0  0  0  0
   -1.2751   -2.8426    1.5112 O   0  0  0  0  0  0  0  0  0  0  0  0
   -1.9041   -1.0186    0.3602 N   0  0  0  0  0  0  0  0  0  0  0  0
   -2.6671   -0.5416   -0.0988 H   0  0  0  0  0  0  0  0  0  0  0  0
   -0.6131   -0.3236    0.3832 C   0  0  1  0  0  0  0  0  0  0  0  0
    0.1346   -0.9625   -0.0894 H   0  0  0  0  0  0  0  0  0  0  0  0
   -0.7253    0.9751   -0.4365 C   0  0  0  0  0  0  0  0  0  0  0  0
    0.2420    1.4819   -0.4254 H   0  0  0  0  0  0  0  0  0  0  0  0
   -0.9687    0.7278   -1.4708 H   0  0  0  0  0  0  0  0  0  0  0  0
   -1.7844    1.9465    0.0972 C   0  0  0  0  0  0  0  0  0  0  0  0
   -1.3734    2.9555    0.1030 H   0  0  0  0  0  0  0  0  0  0  0  0
   -2.6480    1.9234   -0.5684 H   0  0  0  0  0  0  0  0  0  0  0  0
   -2.3453    1.5587    1.7749 S   0  0  0  0  0  0  0  0  0  0  0  0
   -3.2488    0.0221    1.4520 C   0  0  0  0  0  0  0  0  0  0  0  0
   -2.5707   -0.7221    1.0333 H   0  0  0  0  0  0  0  0  0  0  0  0
   -3.6643   -0.3561    2.3864 H   0  0  0  0  0  0  0  0  0  0  0  0
   -4.0609    0.2134    0.7499 H   0  0  0  0  0  0  0  0  0  0  0  0
   -0.1711   -0.0594    1.8296 C   0  0  0  0  0  0  0  0  0  0  0  0
    0.9865   -0.2908    2.1726 O   0  0  0  0  0  0  0  0  0  0  0  0
   -1.0921    0.4156    2.6780 N   0  0  0  0  0  0  0  0  0  0  0  0
   -2.0168    0.5953    2.3206 H   0  0  0  0  0  0  0  0  0  0  0  0
   -0.8319    0.7034    4.0877 C   0  0  0  0  0  0  0  0  0  0  0  0
   -0.0192    1.4288    4.1710 H   0  0  0  0  0  0  0  0  0  0  0  0
   -1.7255    1.1088    4.5641 H   0  0  0  0  0  0  0  0  0  0  0  0
   -0.5319   -0.2118    4.6011 H   0  0  0  0  0  0  0  0  0  0  0  0
  5  6  2  0  0  0  0
  5  7  1  0  0  0  0
  2  3  1  0  0  0  0
  2  4  1  0  0  0  0
  2  5  1  0  0  0  0
  1  2  1  0  0  0  0
 22 23  2  0  0  0  0
 22 24  1  0  0  0  0
 18 19  1  0  0  0  0
 18 20  1  0  0  0  0
 18 21  1  0  0  0  0
 17 18  1  0  0  0  0
 14 15  1  0  0  0  0
 14 16  1  0  0  0  0
 14 17  1  0  0  0  0
 11 12  1  0  0  0  0
 11 13  1  0  0  0  0
 11 14  1  0  0  0  0
  9 10  1  0  0  0  0
  9 11  1  0  0  0  0
  9 22  1  0  0  0  0
  7  8  1  0  0  0  0
  7  9  1  0  0  0  0
 26 27  1  0  0  0  0
 26 28  1  0  0  0  0
 26 29  1  0  0  0  0
 24 25  1  0  0  0  0
 24 26  1  0  0  0  0
M  END
$$$$
default_name
  -OEChem-02102213163D

 29 28  0     1  0  0  0  0  0999 V2000
   -3.5781   -3.7296    1.2702 H   0  0  0  0  0  0  0  0  0  0  0  0
   -3.5311   -2.7616    0.7732 C   0  0  0  0  0  0  0  0  0  0  0  0
   -4.2371   -2.0766    1.2382 H   0  0  0  0  0  0  0  0  0  0  0  0
   -3.7681   -2.8816   -0.2818 H   0  0  0  0  0  0  0  0  0  0  0  0
   -2.1321   -2.2086    0.9112 C   0  0  0  0  0  0  0  0  0  0  0  0
   -1.2751   -2.8426    1.5112 O   0  0  0  0  0  0  0  0  0  0  0  0
   -1.9041   -1.0186    0.3602 N   0  0  0  0  0  0  0  0  0  0  0  0
   -2.6671   -0.5416   -0.0988 H   0  0  0  0  0  0  0  0  0  0  0  0
   -0.6131   -0.3236    0.3832 C   0  0  1  0  0  0  0  0  0  0  0  0
    0.1346   -0.9625   -0.0894 H   0  0  0  0  0  0  0  0  0  0  0  0
   -0.7253    0.9751   -0.4365 C   0  0  0  0  0  0  0  0  0  0  0  0
    0.2420    1.4819   -0.4254 H   0  0  0  0  0  0  0  0  0  0  0  0
   -0.9687    0.7278   -1.4708 H   0  0  0  0  0  0  0  0  0  0  0  0
   -1.7844    1.9465    0.0972 C   0  0  0  0  0  0  0  0  0  0  0  0
   -1.4858    2.9669   -0.1408 H   0  0  0  0  0  0  0  0  0  0  0  0
   -2.7339    1.7349   -0.3958 H   0  0  0  0  0  0  0  0  0  0  0  0
   -2.0332    1.8370    1.8877 S   0  0  0  0  0  0  0  0  0  0  0  0
   -2.8096    0.2036    1.9932 C   0  0  0  0  0  0  0  0  0  0  0  0
   -2.1306   -0.5524    1.5978 H   0  0  0  0  0  0  0  0  0  0  0  0
   -3.0323   -0.0240    3.0360 H   0  0  0  0  0  0  0  0  0  0  0  0
   -3.7366    0.1992    1.4192 H   0  0  0  0  0  0  0  0  0  0  0  0
   -0.1711   -0.0594    1.8296 C   0  0  0  0  0  0  0  0  0  0  0  0
    0.9865   -0.2908    2.1726 O   0  0  0  0  0  0  0  0  0  0  0  0
   -1.0921    0.4156    2.6780 N   0  0  0  0  0  0  0  0  0  0  0  0
   -2.0168    0.5953    2.3206 H   0  0  0  0  0  0  0  0  0  0  0  0
   -0.8319    0.7034    4.0877 C   0  0  0  0  0  0  0  0  0  0  0  0
   -0.0192    1.4288    4.1710 H   0  0  0  0  0  0  0  0  0  0  0  0
   -1.7255    1.1088    4.5641 H   0  0  0  0  0  0  0  0  0  0  0  0
   -0.5319   -0.2118    4.6011 H   0  0  0  0  0  0  0  0  0  0  0  0
  5  6  2  0  0  0  0
  5  7  1  0  0  0  0
  2  3  1  0  0  0  0
  2  4  1  0  0  0  0
  2  5  1  0  0  0  0
  1  2  1  0  0  0  0
 22 23  2  0  0  0  0
 22 24  1  0  0  0  0
 18 19  1  0  0  0  0
 18 20  1  0  0  0  0
 18 21  1  0  0  0  0
 17 18  1  0  0  0  0
 14 15  1  0  0  0  0
 14 16  1  0  0  0  0
 14 17  1  0  0  0  0
 11 12  1  0  0  0  0
 11 13  1  0  0  0  0
 11 14  1  0  0  0  0
  9 10  1  0  0  0  0
  9 11  1  0  0  0  0
  9 22  1  0  0  0  0
  7  8  1  0  0  0  0
  7  9  1  0  0  0  0
 26 27  1  0  0  0  0
 26 28  1  0  0  0  0
 26 29  1  0  0  0  0
 24 25  1  0  0  0  0
 24 26  1  0  0  0  0
M  END
$$$$
default_name
  -OEChem-02102213163D

 29 28  0     1  0  0  0  0  0999 V2000
   -3.5781   -3.7296    1.2702 H   0  0  0  0  0  0  0  0  0  0  0  0
   -3.5311   -2.7616    0.7732 C   0  0  0  0  0  0  0  0  0  0  0  0
   -4.2371   -2.0766    1.2382 H   0  0  0  0  0  0  0  0  0  0  0  0
   -3.7681   -2.8816   -0.2818 H   0  0  0  0  0  0  0  0  0  0  0  0
   -2.1321   -2.2086    0.9112 C   0  0  0  0  0  0  0  0  0  0  0  0
   -1.2751   -2.8426    1.5112 O   0  0  0  0  0  0  0  0  0  0  0  0
   -1.9041   -1.0186    0.3602 N   0  0  0  0  0  0  0  0  0  0  0  0
   -2.6671   -0.5416   -0.0988 H   0  0  0  0  0  0  0  0  0  0  0  0
   -0.6131   -0.3236    0.3832 C   0  0  1  0  0  0  0  0  0  0  0  0
    0.1346   -0.9625   -0.0894 H   0  0  0  0  0  0  0  0  0  0  0  0
   -0.7253    0.9751   -0.4365 C   0  0  0  0  0  0  0  0  0  0  0  0
    0.2420    1.4819   -0.4254 H   0  0  0  0  0  0  0  0  0  0  0  0
   -0.9687    0.7278   -1.4708 H   0  0  0  0  0  0  0  0  0  0  0  0
   -1.7844    1.9465    0.0972 C   0  0  0  0  0  0  0  0  0  0  0  0
   -1.6353    2.9242   -0.3599 H   0  0  0  0  0  0  0  0  0  0  0  0
   -2.7716    1.5760   -0.1813 H   0  0  0  0  0  0  0  0  0  0  0  0
   -1.7383    2.1541    1.8957 S   0  0  0  0  0  0  0  0  0  0  0  0
   -2.3129    0.5153    2.4115 C   0  0  0  0  0  0  0  0  0  0  0  0
   -1.6282   -0.2479    2.0405 H   0  0  0  0  0  0  0  0  0  0  0  0
   -2.3453    0.4699    3.5004 H   0  0  0  0  0  0  0  0  0  0  0  0
   -3.3124    0.3344    2.0151 H   0  0  0  0  0  0  0  0  0  0  0  0
   -0.1711   -0.0594    1.8296 C   0  0  0  0  0  0  0  0  0  0  0  0
    0.9865   -0.2908    2.1726 O   0  0  0  0  0  0  0  0  0  0  0  0
   -1.0921    0.4156    2.6780 N   0  0  0  0  0  0  0  0  0  0  0  0
   -2.0168    0.5953    2.3206 H   0  0  0  0  0  0  0  0  0  0  0  0
   -0.8319    0.7034    4.0877 C   0  0  0  0  0  0  0  0  0  0  0  0
   -0.0192    1.4288    4.1710 H   0  0  0  0  0  0  0  0  0  0  0  0
   -1.7255    1.1088    4.5641 H   0  0  0  0  0  0  0  0  0  0  0  0
   -0.5319   -0.2118    4.6011 H   0  0  0  0  0  0  0  0  0  0  0  0
  5  6  2  0  0  0  0
  5  7  1  0  0  0  0
  2  3  1  0  0  0  0
  2  4  1  0  0  0  0
  2  5  1  0  0  0  0
  1  2  1  0  0  0  0
 22 23  2  0  0  0  0
 22 24  1  0  0  0  0
 18 19  1  0  0  0  0
 18 20  1  0  0  0  0
 18 21  1  0  0  0  0
 17 18  1  0  0  0  0
 14 15  1  0  0  0  0
 14 16  1  0  0  0  0
 14 17  1  0  0  0  0
 11 12  1  0  0  0  0
 11 13  1  0  0  0  0
 11 14  1  0  0  0  0
  9 10  1  0  0  0  0
  9 11  1  0  0  0  0
  9 22  1  0  0  0  0
  7  8  1  0  0  0  0
  7  9  1  0  0  0  0
 26 27  1  0  0  0  0
 26 28  1  0  0  0  0
 26 29  1  0  0  0  0
 24 25  1  0  0  0  0
 24 26  1  0  0  0  0
M  END
$$$$
default_name
  -OEChem-02102213163D

 29 28  0     1  0  0  0  0  0999 V2000
   -3.5781   -3.7296    1.2702 H   0  0  0  0  0  0  0  0  0  0  0  0
   -3.5311   -2.7616    0.7732 C   0  0  0  0  0  0  0  0  0  0  0  0
   -4.2371   -2.0766    1.2382 H   0  0  0  0  0  0  0  0  0  0  0  0
   -3.7681   -2.8816   -0.2818 H   0  0  0  0  0  0  0  0  0  0  0  0
   -2.1321   -2.2086    0.9112 C   0  0  0  0  0  0  0  0  0  0  0  0
   -1.2751   -2.8426    1.5112 O   0  0  0  0  0  0  0  0  0  0  0  0
   -1.9041   -1.0186    0.3602 N   0  0  0  0  0  0  0  0  0  0  0  0
   -2.6671   -0.5416   -0.0988 H   0  0  0  0  0  0  0  0  0  0  0  0
   -0.6131   -0.3236    0.3832 C   0  0  1  0  0  0  0  0  0  0  0  0
    0.1346   -0.9625   -0.0894 H   0  0  0  0  0  0  0  0  0  0  0  0
   -0.7253    0.9751   -0.4365 C   0  0  0  0  0  0  0  0  0  0  0  0
    0.2420    1.4819   -0.4254 H   0  0  0  0  0  0  0  0  0  0  0  0
   -0.9687    0.7278   -1.4708 H   0  0  0  0  0  0  0  0  0  0  0  0
   -1.7844    1.9465    0.0972 C   0  0  0  0  0  0  0  0  0  0  0  0
   -1.8119    2.8303   -0.5394 H   0  0  0  0  0  0  0  0  0  0  0  0
   -2.7585    1.4574    0.0605 H   0  0  0  0  0  0  0  0  0  0  0  0
   -1.4807    2.4885    1.7983 S   0  0  0  0  0  0  0  0  0  0  0  0
   -1.7926    0.9360    2.6783 C   0  0  0  0  0  0  0  0  0  0  0  0
   -1.0977    0.1707    2.3313 H   0  0  0  0  0  0  0  0  0  0  0  0
   -1.6500    1.0919    3.7480 H   0  0  0  0  0  0  0  0  0  0  0  0
   -2.8170    0.6097    2.4969 H   0  0  0  0  0  0  0  0  0  0  0  0
   -0.1711   -0.0594    1.8296 C   0  0  0  0  0  0  0  0  0  0  0  0
    0.9865   -0.2908    2.1726 O   0  0  0  0  0  0  0  0  0  0  0  0
   -1.0921    0.4156    2.6780 N   0  0  0  0  0  0  0  0  0  0  0  0
   -2.0168    0.5953    2.3206 H   0  0  0  0  0  0  0  0  0  0  0  0
   -0.8319    0.7034    4.0877 C   0  0  0  0  0  0  0  0  0  0  0  0
   -0.0192    1.4288    4.1710 H   0  0  0  0  0  0  0  0  0  0  0  0
   -1.7255    1.1088    4.5641 H   0  0  0  0  0  0  0  0  0  0  0  0
   -0.5319   -0.2118    4.6011 H   0  0  0  0  0  0  0  0  0  0  0  0
  5  6  2  0  0  0  0
  5  7  1  0  0  0  0
  2  3  1  0  0  0  0
  2  4  1  0  0  0  0
  2  5  1  0  0  0  0
  1  2  1  0  0  0  0
 22 23  2  0  0  0  0
 22 24  1  0  0  0  0
 18 19  1  0  0  0  0
 18 20  1  0  0  0  0
 18 21  1  0  0  0  0
 17 18  1  0  0  0  0
 14 15  1  0  0  0  0
 14 16  1  0  0  0  0
 14 17  1  0  0  0  0
 11 12  1  0  0  0  0
 11 13  1  0  0  0  0
 11 14  1  0  0  0  0
  9 10  1  0  0  0  0
  9 11  1  0  0  0  0
  9 22  1  0  0  0  0
  7  8  1  0  0  0  0
  7  9  1  0  0  0  0
 26 27  1  0  0  0  0
 26 28  1  0  0  0  0
 26 29  1  0  0  0  0
 24 25  1  0  0  0  0
 24 26  1  0  0  0  0
M  END
$$$$
default_name
  -OEChem-02102213163D

 29 28  0     1  0  0  0  0  0999 V2000
   -3.5781   -3.7296    1.2702 H   0  0  0  0  0  0  0  0  0  0  0  0
   -3.5311   -2.7616    0.7732 C   0  0  0  0  0  0  0  0  0  0  0  0
   -4.2371   -2.0766    1.2382 H   0  0  0  0  0  0  0  0  0  0  0  0
   -3.7681   -2.8816   -0.2818 H   0  0  0  0  0  0  0  0  0  0  0  0
   -2.1321   -2.2086    0.9112 C   0  0  0  0  0  0  0  0  0  0  0  0
   -1.2751   -2.8426    1.5112 O   0  0  0  0  0  0  0  0  0  0  0  0
   -1.9041   -1.0186    0.3602 N   0  0  0  0  0  0  0  0  0  0  0  0
   -2.6671   -0.5416   -0.0988 H   0  0  0  0  0  0  0  0  0  0  0  0
   -0.6131   -0.3236    0.3832 C   0  0  1  0  0  0  0  0  0  0  0  0
    0.1346   -0.9625   -0.0894 H   0  0  0  0  0  0  0  0  0  0  0  0
   -0.7253    0.9751   -0.4365 C   0  0  0  0  0  0  0  0  0  0  0  0
    0.2420    1.4819   -0.4254 H   0  0  0  0  0  0  0  0  0  0  0  0
   -0.9687    0.7278   -1.4708 H   0  0  0  0  0  0  0  0  0  0  0  0
   -1.7844    1.9465    0.0972 C   0  0  0  0  0  0  0  0  0  0  0  0
   -2.0034    2.6916   -0.6669 H   0  0  0  0  0  0  0  0  0  0  0  0
   -2.6955    1.3873    0.3131 H   0  0  0  0  0  0  0  0  0  0  0  0
   -1.2780    2.8172    1.6023 S   0  0  0  0  0  0  0  0  0  0  0  0
   -1.2842    1.4369    2.7755 C   0  0  0  0  0  0  0  0  0  0  0  0
   -0.5754    0.6748    2.4504 H   0  0  0  0  0  0  0  0  0  0  0  0
   -0.9938    1.7997    3.7619 H   0  0  0  0  0  0  0  0  0  0  0  0
   -2.2844    1.0064    2.8318 H   0  0  0  0  0  0  0  0  0  0  0  0
   -0.1711   -0.0594    1.8296 C   0  0  0  0  0  0  0  0  0  0  0  0
    0.9865   -0.2908    2.1726 O   0  0  0  0  0  0  0  0  0  0  0  0
   -1.0921    0.4156    2.6780 N   0  0  0  0  0  0  0  0  0  0  0  0
   -2.0168    0.5953    2.3206 H   0  0  0  0  0  0  0  0  0  0  0  0
   -0.8319    0.7034    4.0877 C   0  0  0  0  0  0  0  0  0  0  0  0
   -0.0192    1.4288    4.1710 H   0  0  0  0  0  0  0  0  0  0  0  0
   -1.7255    1.1088    4.5641 H   0  0  0  0  0  0  0  0  0  0  0  0
   -0.5319   -0.2118    4.6011 H   0  0  0  0  0  0  0  0  0  0  0  0
  5  6  2  0  0  0  0
  5  7  1  0  0  0  0
  2  3  1  0  0  0  0
  2  4  1  0  0  0  0
  2  5  1  0  0  0  0
  1  2  1  0  0  0  0
 22 23  2  0  0  0  0
 22 24  1  0  0  0  0
 18 19  1  0  0  0  0
 18 20  1  0  0  0  0
 18 21  1  0  0  0  0
 17 18  1  0  0  0  0
 14 15  1  0  0  0  0
 14 16  1  0  0  0  0
 14 17  1  0  0  0  0
 11 12  1  0  0  0  0
 11 13  1  0  0  0  0
 11 14  1  0  0  0  0
  9 10  1  0  0  0  0
  9 11  1  0  0  0  0
  9 22  1  0  0  0  0
  7  8  1  0  0  0  0
  7  9  1  0  0  0  0
 26 27  1  0  0  0  0
 26 28  1  0  0  0  0
 26 29  1  0  0  0  0
 24 25  1  0  0  0  0
 24 26  1  0  0  0  0
M  END
$$$$
default_name
  -OEChem-02102213163D

 29 28  0     1  0  0  0  0  0999 V2000
   -3.5781   -3.7296    1.2702 H   0  0  0  0  0  0  0  0  0  0  0  0
   -3.5311   -2.7616    0.7732 C   0  0  0  0  0  0  0  0  0  0  0  0
   -4.2371   -2.0766    1.2382 H   0  0  0  0  0  0  0  0  0  0  0  0
   -3.7681   -2.8816   -0.2818 H   0  0  0  0  0  0  0  0  0  0  0  0
   -2.1321   -2.2086    0.9112 C   0  0  0  0  0  0  0  0  0  0  0  0
   -1.2751   -2.8426    1.5112 O   0  0  0  0  0  0  0  0  0  0  0  0
   -1.9041   -1.0186    0.3602 N   0  0  0  0  0  0  0  0  0  0  0  0
   -2.6671   -0.5416   -0.0988 H   0  0  0  0  0  0  0  0  0  0  0  0
   -0.6131   -0.3236    0.3832 C   0  0  1  0  0  0  0  0  0  0  0  0
    0.1346   -0.9625   -0.0894 H   0  0  0  0  0  0  0  0  0  0  0  0
   -0.7253    0.9751   -0.4365 C   0  0  0  0  0  0  0  0  0  0  0  0
    0.2420    1.4819   -0.4254 H   0  0  0  0  0  0  0  0  0  0  0  0
   -0.9687    0.7278   -1.4708 H   0  0  0  0  0  0  0  0  0  0  0  0
   -1.7844    1.9465    0.0972 C   0  0  0  0  0  0  0  0  0  0  0  0
   -2.1968    2.5175   -0.7340 H   0  0  0  0  0  0  0  0  0  0  0  0
   -2.5869    1.3704    0.5593 H   0  0  0  0  0  0  0  0  0  0  0  0
   -1.1440    3.1179    1.3208 S   0  0  0  0  0  0  0  0  0  0  0  0
   -0.8223    1.9839    2.6965 C   0  0  0  0  0  0  0  0  0  0  0  0
   -0.0967    1.2301    2.3895 H   0  0  0  0  0  0  0  0  0  0  0  0
   -0.4215    2.5449    3.5412 H   0  0  0  0  0  0  0  0  0  0  0  0
   -1.7507    1.4975    2.9970 H   0  0  0  0  0  0  0  0  0  0  0  0
   -0.1711   -0.0594    1.8296 C   0  0  0  0  0  0  0  0  0  0  0  0
    0.9865   -0.2908    2.1726 O   0  0  0  0  0  0  0  0  0  0  0  0
   -1.0921    0.4156    2.6780 N   0  0  0  0  0  0  0  0  0  0  0  0
   -2.0168    0.5953    2.3206 H   0  0  0  0  0  0  0  0  0  0  0  0
   -0.8319    0.7034    4.0877 C   0  0  0  0  0  0  0  0  0  0  0  0
   -0.0192    1.4288    4.1710 H   0  0  0  0  0  0  0  0  0  0  0  0
   -1.7255    1.1088    4.5641 H   0  0  0  0  0  0  0  0  0  0  0  0
   -0.5319   -0.2118    4.6011 H   0  0  0  0  0  0  0  0  0  0  0  0
  5  6  2  0  0  0  0
  5  7  1  0  0  0  0
  2  3  1  0  0  0  0
  2  4  1  0  0  0  0
  2  5  1  0  0  0  0
  1  2  1  0  0  0  0
 22 23  2  0  0  0  0
 22 24  1  0  0  0  0
 18 19  1  0  0  0  0
 18 20  1  0  0  0  0
 18 21  1  0  0  0  0
 17 18  1  0  0  0  0
 14 15  1  0  0  0  0
 14 16  1  0  0  0  0
 14 17  1  0  0  0  0
 11 12  1  0  0  0  0
 11 13  1  0  0  0  0
 11 14  1  0  0  0  0
  9 10  1  0  0  0  0
  9 11  1  0  0  0  0
  9 22  1  0  0  0  0
  7  8  1  0  0  0  0
  7  9  1  0  0  0  0
 26 27  1  0  0  0  0
 26 28  1  0  0  0  0
 26 29  1  0  0  0  0
 24 25  1  0  0  0  0
 24 26  1  0  0  0  0
M  END
$$$$
default_name
  -OEChem-02102213163D

 29 28  0     1  0  0  0  0  0999 V2000
   -3.5781   -3.7296    1.2702 H   0  0  0  0  0  0  0  0  0  0  0  0
   -3.5311   -2.7616    0.7732 C   0  0  0  0  0  0  0  0  0  0  0  0
   -4.2371   -2.0766    1.2382 H   0  0  0  0  0  0  0  0  0  0  0  0
   -3.7681   -2.8816   -0.2818 H   0  0  0  0  0  0  0  0  0  0  0  0
   -2.1321   -2.2086    0.9112 C   0  0  0  0  0  0  0  0  0  0  0  0
   -1.2751   -2.8426    1.5112 O   0  0  0  0  0  0  0  0  0  0  0  0
   -1.9041   -1.0186    0.3602 N   0  0  0  0  0  0  0  0  0  0  0  0
   -2.6671   -0.5416   -0.0988 H   0  0  0  0  0  0  0  0  0  0  0  0
   -0.6131   -0.3236    0.3832 C   0  0  1  0  0  0  0  0  0  0  0  0
    0.1346   -0.9625   -0.0894 H   0  0  0  0  0  0  0  0  0  0  0  0
   -0.7253    0.9751   -0.4365 C   0  0  0  0  0  0  0  0  0  0  0  0
    0.2420    1.4819   -0.4254 H   0  0  0  0  0  0  0  0  0  0  0  0
   -0.9687    0.7278   -1.4708 H   0  0  0  0  0  0  0  0  0  0  0  0
   -1.7844    1.9465    0.0972 C   0  0  0  0  0  0  0  0  0  0  0  0
   -2.3790    2.3200   -0.7359 H   0  0  0  0  0  0  0  0  0  0  0  0
   -2.4401    1.4079    0.7823 H   0  0  0  0  0  0  0  0  0  0  0  0
   -1.0878    3.3702    0.9733 S   0  0  0  0  0  0  0  0  0  0  0  0
   -0.4384    2.5398    2.4466 C   0  0  0  0  0  0  0  0  0  0  0  0
    0.3056    1.7987    2.1530 H   0  0  0  0  0  0  0  0  0  0  0  0
    0.0280    3.2769    3.1008 H   0  0  0  0  0  0  0  0  0  0  0  0
   -1.2523    2.0495    2.9813 H   0  0  0  0  0  0  0  0  0  0  0  0
   -0.1711   -0.0594    1.8296 C   0  0  0  0  0  0  0  0  0  0  0  0
    0.9865   -0.2908    2.1726 O   0  0  0  0  0  0  0  0  0  0  0  0
   -1.0921    0.4156    2.6780 N   0  0  0  0  0  0  0  0  0  0  0  0
   -2.0168    0.5953    2.3206 H   0  0  0  0  0  0  0  0  0  0  0  0
   -0.8319    0.7034    4.0877 C   0  0  0  0  0  0  0  0  0  0  0  0
   -0.0192    1.4288    4.1710 H   0  0  0  0  0  0  0  0  0  0  0  0
   -1.7255    1.1088    4.5641 H   0  0  0  0  0  0  0  0  0  0  0  0
   -0.5319   -0.2118    4.6011 H   0  0  0  0  0  0  0  0  0  0  0  0
  5  6  2  0  0  0  0
  5  7  1  0  0  0  0
  2  3  1  0  0  0  0
  2  4  1  0  0  0  0
  2  5  1  0  0  0  0
  1  2  1  0  0  0  0
 22 23  2  0  0  0  0
 22 24  1  0  0  0  0
 18 19  1  0  0  0  0
 18 20  1  0  0  0  0
 18 21  1  0  0  0  0
 17 18  1  0  0  0  0
 14 15  1  0  0  0  0
 14 16  1  0  0  0  0
 14 17  1  0  0  0  0
 11 12  1  0  0  0  0
 11 13  1  0  0  0  0
 11 14  1  0  0  0  0
  9 10  1  0  0  0  0
  9 11  1  0  0  0  0
  9 22  1  0  0  0  0
  7  8  1  0  0  0  0
  7  9  1  0  0  0  0
 26 27  1  0  0  0  0
 26 28  1  0  0  0  0
 26 29  1  0  0  0  0
 24 25  1  0  0  0  0
 24 26  1  0  0  0  0
M  END
$$$$
default_name
  -OEChem-02102213163D

 29 28  0     1  0  0  0  0  0999 V2000
   -3.5781   -3.7296    1.2702 H   0  0  0  0  0  0  0  0  0  0  0  0
   -3.5311   -2.7616    0.7732 C   0  0  0  0  0  0  0  0  0  0  0  0
   -4.2371   -2.0766    1.2382 H   0  0  0  0  0  0  0  0  0  0  0  0
   -3.7681   -2.8816   -0.2818 H   0  0  0  0  0  0  0  0  0  0  0  0
   -2.1321   -2.2086    0.9112 C   0  0  0  0  0  0  0  0  0  0  0  0
   -1.2751   -2.8426    1.5112 O   0  0  0  0  0  0  0  0  0  0  0  0
   -1.9041   -1.0186    0.3602 N   0  0  0  0  0  0  0  0  0  0  0  0
   -2.6671   -0.5416   -0.0988 H   0  0  0  0  0  0  0  0  0  0  0  0
   -0.6131   -0.3236    0.3832 C   0  0  1  0  0  0  0  0  0  0  0  0
    0.1346   -0.9625   -0.0894 H   0  0  0  0  0  0  0  0  0  0  0  0
   -0.7253    0.9751   -0.4365 C   0  0  0  0  0  0  0  0  0  0  0  0
    0.2420    1.4819   -0.4254 H   0  0  0  0  0  0  0  0  0  0  0  0
   -0.9687    0.7278   -1.4708 H   0  0  0  0  0  0  0  0  0  0  0  0
   -1.7844    1.9465    0.0972 C   0  0  0  0  0  0  0  0  0  0  0  0
   -2.5374    2.1125   -0.6725 H   0  0  0  0  0  0  0  0  0  0  0  0
   -2.2652    1.4972    0.9670 H   0  0  0  0  0  0  0  0  0  0  0  0
   -1.1132    3.5567    0.5832 S   0  0  0  0  0  0  0  0  0  0  0  0
   -0.1586    3.0667    2.0428 C   0  0  0  0  0  0  0  0  0  0  0  0
    0.6042    2.3419    1.7569 H   0  0  0  0  0  0  0  0  0  0  0  0
    0.3239    3.9457    2.4709 H   0  0  0  0  0  0  0  0  0  0  0  0
   -0.8233    2.6248    2.7857 H   0  0  0  0  0  0  0  0  0  0  0  0
   -0.1711   -0.0594    1.8296 C   0  0  0  0  0  0  0  0  0  0  0  0
    0.9865   -0.2908    2.1726 O   0  0  0  0  0  0  0  0  0  0  0  0
   -1.0921    0.4156    2.6780 N   0  0  0  0  0  0  0  0  0  0  0  0
   -2.0168    0.5953    2.3206 H   0  0  0  0  0  0  0  0  0  0  0  0
   -0.8319    0.7034    4.0877 C   0  0  0  0  0  0  0  0  0  0  0  0
   -0.0192    1.4288    4.1710 H   0  0  0  0  0  0  0  0  0  0  0  0
   -1.7255    1.1088    4.5641 H   0  0  0  0  0  0  0  0  0  0  0  0
   -0.5319   -0.2118    4.6011 H   0  0  0  0  0  0  0  0  0  0  0  0
  5  6  2  0  0  0  0
  5  7  1  0  0  0  0
  2  3  1  0  0  0  0
  2  4  1  0  0  0  0
  2  5  1  0  0  0  0
  1  2  1  0  0  0  0
 22 23  2  0  0  0  0
 22 24  1  0  0  0  0
 18 19  1  0  0  0  0
 18 20  1  0  0  0  0
 18 21  1  0  0  0  0
 17 18  1  0  0  0  0
 14 15  1  0  0  0  0
 14 16  1  0  0  0  0
 14 17  1  0  0  0  0
 11 12  1  0  0  0  0
 11 13  1  0  0  0  0
 11 14  1  0  0  0  0
  9 10  1  0  0  0  0
  9 11  1  0  0  0  0
  9 22  1  0  0  0  0
  7  8  1  0  0  0  0
  7  9  1  0  0  0  0
 26 27  1  0  0  0  0
 26 28  1  0  0  0  0
 26 29  1  0  0  0  0
 24 25  1  0  0  0  0
 24 26  1  0  0  0  0
M  END
$$$$
default_name
  -OEChem-02102213163D

 29 28  0     1  0  0  0  0  0999 V2000
   -3.5781   -3.7296    1.2702 H   0  0  0  0  0  0  0  0  0  0  0  0
   -3.5311   -2.7616    0.7732 C   0  0  0  0  0  0  0  0  0  0  0  0
   -4.2371   -2.0766    1.2382 H   0  0  0  0  0  0  0  0  0  0  0  0
   -3.7681   -2.8816   -0.2818 H   0  0  0  0  0  0  0  0  0  0  0  0
   -2.1321   -2.2086    0.9112 C   0  0  0  0  0  0  0  0  0  0  0  0
   -1.2751   -2.8426    1.5112 O   0  0  0  0  0  0  0  0  0  0  0  0
   -1.9041   -1.0186    0.3602 N   0  0  0  0  0  0  0  0  0  0  0  0
   -2.6671   -0.5416   -0.0988 H   0  0  0  0  0  0  0  0  0  0  0  0
   -0.6131   -0.3236    0.3832 C   0  0  1  0  0  0  0  0  0  0  0  0
    0.1346   -0.9625   -0.0894 H   0  0  0  0  0  0  0  0  0  0  0  0
   -0.7253    0.9751   -0.4365 C   0  0  0  0  0  0  0  0  0  0  0  0
    0.2420    1.4819   -0.4254 H   0  0  0  0  0  0  0  0  0  0  0  0
   -0.9687    0.7278   -1.4708 H   0  0  0  0  0  0  0  0  0  0  0  0
   -1.7844    1.9465    0.0972 C   0  0  0  0  0  0  0  0  0  0  0  0
   -2.6614    1.9090   -0.5483 H   0  0  0  0  0  0  0  0  0  0  0  0
   -2.0739    1.6323    1.1007 H   0  0  0  0  0  0  0  0  0  0  0  0
   -1.2186    3.6649    0.1773 S   0  0  0  0  0  0  0  0  0  0  0  0
   -0.0021    3.5286    1.5127 C   0  0  0  0  0  0  0  0  0  0  0  0
    0.7787    2.8226    1.2281 H   0  0  0  0  0  0  0  0  0  0  0  0
    0.4463    4.5057    1.6943 H   0  0  0  0  0  0  0  0  0  0  0  0
   -0.4927    3.1842    2.4235 H   0  0  0  0  0  0  0  0  0  0  0  0
   -0.1711   -0.0594    1.8296 C   0  0  0  0  0  0  0  0  0  0  0  0
    0.9865   -0.2908    2.1726 O   0  0  0  0  0  0  0  0  0  0  0  0
   -1.0921    0.4156    2.6780 N   0  0  0  0  0  0  0  0  0  0  0  0
   -2.0168    0.5953    2.3206 H   0  0  0  0  0  0  0  0  0  0  0  0
   -0.8319    0.7034    4.0877 C   0  0  0  0  0  0  0  0  0  0  0  0
   -0.0192    1.4288    4.1710 H   0  0  0  0  0  0  0  0  0  0  0  0
   -1.7255    1.1088    4.5641 H   0  0  0  0  0  0  0  0  0  0  0  0
   -0.5319   -0.2118    4.6011 H   0  0  0  0  0  0  0  0  0  0  0  0
  5  6  2  0  0  0  0
  5  7  1  0  0  0  0
  2  3  1  0  0  0  0
  2  4  1  0  0  0  0
  2  5  1  0  0  0  0
  1  2  1  0  0  0  0
 22 23  2  0  0  0  0
 22 24  1  0  0  0  0
 18 19  1  0  0  0  0
 18 20  1  0  0  0  0
 18 21  1  0  0  0  0
 17 18  1  0  0  0  0
 14 15  1  0  0  0  0
 14 16  1  0  0  0  0
 14 17  1  0  0  0  0
 11 12  1  0  0  0  0
 11 13  1  0  0  0  0
 11 14  1  0  0  0  0
  9 10  1  0  0  0  0
  9 11  1  0  0  0  0
  9 22  1  0  0  0  0
  7  8  1  0  0  0  0
  7  9  1  0  0  0  0
 26 27  1  0  0  0  0
 26 28  1  0  0  0  0
 26 29  1  0  0  0  0
 24 25  1  0  0  0  0
 24 26  1  0  0  0  0
M  END
$$$$
default_name
  -OEChem-02102213163D

 29 28  0     1  0  0  0  0  0999 V2000
   -3.5781   -3.7296    1.2702 H   0  0  0  0  0  0  0  0  0  0  0  0
   -3.5311   -2.7616    0.7732 C   0  0  0  0  0  0  0  0  0  0  0  0
   -4.2371   -2.0766    1.2382 H   0  0  0  0  0  0  0  0  0  0  0  0
   -3.7681   -2.8816   -0.2818 H   0  0  0  0  0  0  0  0  0  0  0  0
   -2.1321   -2.2086    0.9112 C   0  0  0  0  0  0  0  0  0  0  0  0
   -1.2751   -2.8426    1.5112 O   0  0  0  0  0  0  0  0  0  0  0  0
   -1.9041   -1.0186    0.3602 N   0  0  0  0  0  0  0  0  0  0  0  0
   -2.6671   -0.5416   -0.0988 H   0  0  0  0  0  0  0  0  0  0  0  0
   -0.6131   -0.3236    0.3832 C   0  0  1  0  0  0  0  0  0  0  0  0
    0.1346   -0.9625   -0.0894 H   0  0  0  0  0  0  0  0  0  0  0  0
   -0.7253    0.9751   -0.4365 C   0  0  0  0  0  0  0  0  0  0  0  0
    0.2420    1.4819   -0.4254 H   0  0  0  0  0  0  0  0  0  0  0  0
   -0.9687    0.7278   -1.4708 H   0  0  0  0  0  0  0  0  0  0  0  0
   -1.7844    1.9465    0.0972 C   0  0  0  0  0  0  0  0  0  0  0  0
   -2.7424    1.7236   -0.3715 H   0  0  0  0  0  0  0  0  0  0  0  0
   -1.8794    1.8039    1.1743 H   0  0  0  0  0  0  0  0  0  0  0  0
   -1.3967    3.6873   -0.2169 S   0  0  0  0  0  0  0  0  0  0  0  0
    0.0205    3.8940    0.8924 C   0  0  0  0  0  0  0  0  0  0  0  0
    0.8172    3.2082    0.6028 H   0  0  0  0  0  0  0  0  0  0  0  0
    0.3866    4.9188    0.8240 H   0  0  0  0  0  0  0  0  0  0  0  0
   -0.2833    3.6895    1.9194 H   0  0  0  0  0  0  0  0  0  0  0  0
   -0.1711   -0.0594    1.8296 C   0  0  0  0  0  0  0  0  0  0  0  0
    0.9865   -0.2908    2.1726 O   0  0  0  0  0  0  0  0  0  0  0  0
   -1.0921    0.4156    2.6780 N   0  0  0  0  0  0  0  0  0  0  0  0
   -2.0168    0.5953    2.3206 H   0  0  0  0  0  0  0  0  0  0  0  0
   -0.8319    0.7034    4.0877 C   0  0  0  0  0  0  0  0  0  0  0  0
   -0.0192    1.4288    4.1710 H   0  0  0  0  0  0  0  0  0  0  0  0
   -1.7255    1.1088    4.5641 H   0  0  0  0  0  0  0  0  0  0  0  0
   -0.5319   -0.2118    4.6011 H   0  0  0  0  0  0  0  0  0  0  0  0
  5  6  2  0  0  0  0
  5  7  1  0  0  0  0
  2  3  1  0  0  0  0
  2  4  1  0  0  0  0
  2  5  1  0  0  0  0
  1  2  1  0  0  0  0
 22 23  2  0  0  0  0
 22 24  1  0  0  0  0
 18 19  1  0  0  0  0
 18 20  1  0  0  0  0
 18 21  1  0  0  0  0
 17 18  1  0  0  0  0
 14 15  1  0  0  0  0
 14 16  1  0  0  0  0
 14 17  1  0  0  0  0
 11 12  1  0  0  0  0
 11 13  1  0  0  0  0
 11 14  1  0  0  0  0
  9 10  1  0  0  0  0
  9 11  1  0  0  0  0
  9 22  1  0  0  0  0
  7  8  1  0  0  0  0
  7  9  1  0  0  0  0
 26 27  1  0  0  0  0
 26 28  1  0  0  0  0
 26 29  1  0  0  0  0
 24 25  1  0  0  0  0
 24 26  1  0  0  0  0
M  END
$$$$
default_name
  -OEChem-02102213163D

 29 28  0     1  0  0  0  0  0999 V2000
   -3.5781   -3.7296    1.2702 H   0  0  0  0  0  0  0  0  0  0  0  0
   -3.5311   -2.7616    0.7732 C   0  0  0  0  0  0  0  0  0  0  0  0
   -4.2371   -2.0766    1.2382 H   0  0  0  0  0  0  0  0  0  0  0  0
   -3.7681   -2.8816   -0.2818 H   0  0  0  0  0  0  0  0  0  0  0  0
   -2.1321   -2.2086    0.9112 C   0  0  0  0  0  0  0  0  0  0  0  0
   -1.2751   -2.8426    1.5112 O   0  0  0  0  0  0  0  0  0  0  0  0
   -1.9041   -1.0186    0.3602 N   0  0  0  0  0  0  0  0  0  0  0  0
   -2.6671   -0.5416   -0.0988 H   0  0  0  0  0  0  0  0  0  0  0  0
   -0.6131   -0.3236    0.3832 C   0  0  1  0  0  0  0  0  0  0  0  0
    0.1346   -0.9625   -0.0894 H   0  0  0  0  0  0  0  0  0  0  0  0
   -0.7253    0.9751   -0.4365 C   0  0  0  0  0  0  0  0  0  0  0  0
    0.2420    1.4819   -0.4254 H   0  0  0  0  0  0  0  0  0  0  0  0
   -0.9687    0.7278   -1.4708 H   0  0  0  0  0  0  0  0  0  0  0  0
   -1.7844    1.9465    0.0972 C   0  0  0  0  0  0  0  0  0  0  0  0
   -2.7750    1.5688   -0.1543 H   0  0  0  0  0  0  0  0  0  0  0  0
   -1.6949    2.0003    1.1828 H   0  0  0  0  0  0  0  0  0  0  0  0
   -1.6353    3.6225   -0.5725 S   0  0  0  0  0  0  0  0  0  0  0  0
   -0.0922    4.1382    0.2242 C   0  0  0  0  0  0  0  0  0  0  0  0
    0.7172    3.4723   -0.0764 H   0  0  0  0  0  0  0  0  0  0  0  0
    0.1490    5.1569   -0.0807 H   0  0  0  0  0  0  0  0  0  0  0  0
   -0.2092    4.1063    1.3078 H   0  0  0  0  0  0  0  0  0  0  0  0
   -0.1711   -0.0594    1.8296 C   0  0  0  0  0  0  0  0  0  0  0  0
    0.9865   -0.2908    2.1726 O   0  0  0  0  0  0  0  0  0  0  0  0
   -1.0921    0.4156    2.6780 N   0  0  0  0  0  0  0  0  0  0  0  0
   -2.0168    0.5953    2.3206 H   0  0  0  0  0  0  0  0  0  0  0  0
   -0.8319    0.7034    4.0877 C   0  0  0  0  0  0  0  0  0  0  0  0
   -0.0192    1.4288    4.1710 H   0  0  0  0  0  0  0  0  0  0  0  0
   -1.7255    1.1088    4.5641 H   0  0  0  0  0  0  0  0  0  0  0  0
   -0.5319   -0.2118    4.6011 H   0  0  0  0  0  0  0  0  0  0  0  0
  5  6  2  0  0  0  0
  5  7  1  0  0  0  0
  2  3  1  0  0  0  0
  2  4  1  0  0  0  0
  2  5  1  0  0  0  0
  1  2  1  0  0  0  0
 22 23  2  0  0  0  0
 22 24  1  0  0  0  0
 18 19  1  0  0  0  0
 18 20  1  0  0  0  0
 18 21  1  0  0  0  0
 17 18  1  0  0  0  0
 14 15  1  0  0  0  0
 14 16  1  0  0  0  0
 14 17  1  0  0  0  0
 11 12  1  0  0  0  0
 11 13  1  0  0  0  0
 11 14  1  0  0  0  0
  9 10  1  0  0  0  0
  9 11  1  0  0  0  0
  9 22  1  0  0  0  0
  7  8  1  0  0  0  0
  7  9  1  0  0  0  0
 26 27  1  0  0  0  0
 26 28  1  0  0  0  0
 26 29  1  0  0  0  0
 24 25  1  0  0  0  0
 24 26  1  0  0  0  0
M  END
$$$$
default_name
  -OEChem-02102213163D

 29 28  0     1  0  0  0  0  0999 V2000
   -3.5781   -3.7296    1.2702 H   0  0  0  0  0  0  0  0  0  0  0  0
   -3.5311   -2.7616    0.7732 C   0  0  0  0  0  0  0  0  0  0  0  0
   -4.2371   -2.0766    1.2382 H   0  0  0  0  0  0  0  0  0  0  0  0
   -3.7681   -2.8816   -0.2818 H   0  0  0  0  0  0  0  0  0  0  0  0
   -2.1321   -2.2086    0.9112 C   0  0  0  0  0  0  0  0  0  0  0  0
   -1.2751   -2.8426    1.5112 O   0  0  0  0  0  0  0  0  0  0  0  0
   -1.9041   -1.0186    0.3602 N   0  0  0  0  0  0  0  0  0  0  0  0
   -2.6671   -0.5416   -0.0988 H   0  0  0  0  0  0  0  0  0  0  0  0
   -0.6131   -0.3236    0.3832 C   0  0  1  0  0  0  0  0  0  0  0  0
    0.1346   -0.9625   -0.0894 H   0  0  0  0  0  0  0  0  0  0  0  0
   -0.7253    0.9751   -0.4365 C   0  0  0  0  0  0  0  0  0  0  0  0
    0.2804    1.3417   -0.6528 H   0  0  0  0  0  0  0  0  0  0  0  0
   -1.2212    0.7606   -1.3843 H   0  0  0  0  0  0  0  0  0  0  0  0
   -1.4995    2.0869    0.2808 C   0  0  0  0  0  0  0  0  0  0  0  0
   -2.5076    1.7364    0.5000 H   0  0  0  0  0  0  0  0  0  0  0  0
   -0.9953    2.3147    1.2207 H   0  0  0  0  0  0  0  0  0  0  0  0
   -1.6329    3.6155   -0.6813 S   0  0  0  0  0  0  0  0  0  0  0  0
    0.0953    4.1573   -0.6430 C   0  0  0  0  0  0  0  0  0  0  0  0
    0.7282    3.4006   -1.1076 H   0  0  0  0  0  0  0  0  0  0  0  0
    0.1927    5.0937   -1.1930 H   0  0  0  0  0  0  0  0  0  0  0  0
    0.4091    4.3134    0.3895 H   0  0  0  0  0  0  0  0  0  0  0  0
   -0.1711   -0.0594    1.8296 C   0  0  0  0  0  0  0  0  0  0  0  0
    0.9865   -0.2908    2.1726 O   0  0  0  0  0  0  0  0  0  0  0  0
   -1.0921    0.4156    2.6780 N   0  0  0  0  0  0  0  0  0  0  0  0
   -2.0168    0.5953    2.3206 H   0  0  0  0  0  0  0  0  0  0  0  0
   -0.8319    0.7034    4.0877 C   0  0  0  0  0  0  0  0  0  0  0  0
   -0.0192    1.4288    4.1710 H   0  0  0  0  0  0  0  0  0  0  0  0
   -1.7255    1.1088    4.5641 H   0  0  0  0  0  0  0  0  0  0  0  0
   -0.5319   -0.2118    4.6011 H   0  0  0  0  0  0  0  0  0  0  0  0
  5  6  2  0  0  0  0
  5  7  1  0  0  0  0
  2  3  1  0  0  0  0
  2  4  1  0  0  0  0
  2  5  1  0  0  0  0
  1  2  1  0  0  0  0
 22 23  2  0  0  0  0
 22 24  1  0  0  0  0
 18 19  1  0  0  0  0
 18 20  1  0  0  0  0
 18 21  1  0  0  0  0
 17 18  1  0  0  0  0
 14 15  1  0  0  0  0
 14 16  1  0  0  0  0
 14 17  1  0  0  0  0
 11 12  1  0  0  0  0
 11 13  1  0  0  0  0
 11 14  1  0  0  0  0
  9 10  1  0  0  0  0
  9 11  1  0  0  0  0
  9 22  1  0  0  0  0
  7  8  1  0  0  0  0
  7  9  1  0  0  0  0
 26 27  1  0  0  0  0
 26 28  1  0  0  0  0
 26 29  1  0  0  0  0
 24 25  1  0  0  0  0
 24 26  1  0  0  0  0
M  END
$$$$
default_name
  -OEChem-02102213163D

 29 28  0     1  0  0  0  0  0999 V2000
   -3.5781   -3.7296    1.2702 H   0  0  0  0  0  0  0  0  0  0  0  0
   -3.5311   -2.7616    0.7732 C   0  0  0  0  0  0  0  0  0  0  0  0
   -4.2371   -2.0766    1.2382 H   0  0  0  0  0  0  0  0  0  0  0  0
   -3.7681   -2.8816   -0.2818 H   0  0  0  0  0  0  0  0  0  0  0  0
   -2.1321   -2.2086    0.9112 C   0  0  0  0  0  0  0  0  0  0  0  0
   -1.2751   -2.8426    1.5112 O   0  0  0  0  0  0  0  0  0  0  0  0
   -1.9041   -1.0186    0.3602 N   0  0  0  0  0  0  0  0  0  0  0  0
   -2.6671   -0.5416   -0.0988 H   0  0  0  0  0  0  0  0  0  0  0  0
   -0.6131   -0.3236    0.3832 C   0  0  1  0  0  0  0  0  0  0  0  0
    0.1346   -0.9625   -0.0894 H   0  0  0  0  0  0  0  0  0  0  0  0
   -0.7253    0.9751   -0.4365 C   0  0  0  0  0  0  0  0  0  0  0  0
    0.2804    1.3417   -0.6528 H   0  0  0  0  0  0  0  0  0  0  0  0
   -1.2212    0.7606   -1.3843 H   0  0  0  0  0  0  0  0  0  0  0  0
   -1.4995    2.0869    0.2808 C   0  0  0  0  0  0  0  0  0  0  0  0
   -2.3958    1.6638    0.7333 H   0  0  0  0  0  0  0  0  0  0  0  0
   -0.8696    2.4995    1.0698 H   0  0  0  0  0  0  0  0  0  0  0  0
   -2.0065    3.4394   -0.8116 S   0  0  0  0  0  0  0  0  0  0  0  0
   -0.3877    4.1657   -1.1773 C   0  0  0  0  0  0  0  0  0  0  0  0
    0.2468    3.4238   -1.6633 H   0  0  0  0  0  0  0  0  0  0  0  0
   -0.5166    5.0193   -1.8433 H   0  0  0  0  0  0  0  0  0  0  0  0
    0.0828    4.5002   -0.2523 H   0  0  0  0  0  0  0  0  0  0  0  0
   -0.1711   -0.0594    1.8296 C   0  0  0  0  0  0  0  0  0  0  0  0
    0.9865   -0.2908    2.1726 O   0  0  0  0  0  0  0  0  0  0  0  0
   -1.0921    0.4156    2.6780 N   0  0  0  0  0  0  0  0  0  0  0  0
   -2.0168    0.5953    2.3206 H   0  0  0  0  0  0  0  0  0  0  0  0
   -0.8319    0.7034    4.0877 C   0  0  0  0  0  0  0  0  0  0  0  0
   -0.0192    1.4288    4.1710 H   0  0  0  0  0  0  0  0  0  0  0  0
   -1.7255    1.1088    4.5641 H   0  0  0  0  0  0  0  0  0  0  0  0
   -0.5319   -0.2118    4.6011 H   0  0  0  0  0  0  0  0  0  0  0  0
  5  6  2  0  0  0  0
  5  7  1  0  0  0  0
  2  3  1  0  0  0  0
  2  4  1  0  0  0  0
  2  5  1  0  0  0  0
  1  2  1  0  0  0  0
 22 23  2  0  0  0  0
 22 24  1  0  0  0  0
 18 19  1  0  0  0  0
 18 20  1  0  0  0  0
 18 21  1  0  0  0  0
 17 18  1  0  0  0  0
 14 15  1  0  0  0  0
 14 16  1  0  0  0  0
 14 17  1  0  0  0  0
 11 12  1  0  0  0  0
 11 13  1  0  0  0  0
 11 14  1  0  0  0  0
  9 10  1  0  0  0  0
  9 11  1  0  0  0  0
  9 22  1  0  0  0  0
  7  8  1  0  0  0  0
  7  9  1  0  0  0  0
 26 27  1  0  0  0  0
 26 28  1  0  0  0  0
 26 29  1  0  0  0  0
 24 25  1  0  0  0  0
 24 26  1  0  0  0  0
M  END
$$$$
default_name
  -OEChem-02102213163D

 29 28  0     1  0  0  0  0  0999 V2000
   -3.5781   -3.7296    1.2702 H   0  0  0  0  0  0  0  0  0  0  0  0
   -3.5311   -2.7616    0.7732 C   0  0  0  0  0  0  0  0  0  0  0  0
   -4.2371   -2.0766    1.2382 H   0  0  0  0  0  0  0  0  0  0  0  0
   -3.7681   -2.8816   -0.2818 H   0  0  0  0  0  0  0  0  0  0  0  0
   -2.1321   -2.2086    0.9112 C   0  0  0  0  0  0  0  0  0  0  0  0
   -1.2751   -2.8426    1.5112 O   0  0  0  0  0  0  0  0  0  0  0  0
   -1.9041   -1.0186    0.3602 N   0  0  0  0  0  0  0  0  0  0  0  0
   -2.6671   -0.5416   -0.0988 H   0  0  0  0  0  0  0  0  0  0  0  0
   -0.6131   -0.3236    0.3832 C   0  0  1  0  0  0  0  0  0  0  0  0
    0.1346   -0.9625   -0.0894 H   0  0  0  0  0  0  0  0  0  0  0  0
   -0.7253    0.9751   -0.4365 C   0  0  0  0  0  0  0  0  0  0  0  0
    0.2804    1.3417   -0.6528 H   0  0  0  0  0  0  0  0  0  0  0  0
   -1.2212    0.7606   -1.3843 H   0  0  0  0  0  0  0  0  0  0  0  0
   -1.4995    2.0869    0.2808 C   0  0  0  0  0  0  0  0  0  0  0  0
   -2.2352    1.6376    0.9471 H   0  0  0  0  0  0  0  0  0  0  0  0
   -0.7990    2.6735    0.8763 H   0  0  0  0  0  0  0  0  0  0  0  0
   -2.3706    3.2071   -0.8444 S   0  0  0  0  0  0  0  0  0  0  0  0
   -0.9556    4.0454   -1.6038 C   0  0  0  0  0  0  0  0  0  0  0  0
   -0.3254    3.3153   -2.1127 H   0  0  0  0  0  0  0  0  0  0  0  0
   -1.3149    4.7765   -2.3285 H   0  0  0  0  0  0  0  0  0  0  0  0
   -0.3755    4.5572   -0.8354 H   0  0  0  0  0  0  0  0  0  0  0  0
   -0.1711   -0.0594    1.8296 C   0  0  0  0  0  0  0  0  0  0  0  0
    0.9865   -0.2908    2.1726 O   0  0  0  0  0  0  0  0  0  0  0  0
   -1.0921    0.4156    2.6780 N   0  0  0  0  0  0  0  0  0  0  0  0
   -2.0168    0.5953    2.3206 H   0  0  0  0  0  0  0  0  0  0  0  0
   -0.8319    0.7034    4.0877 C   0  0  0  0  0  0  0  0  0  0  0  0
   -0.0192    1.4288    4.1710 H   0  0  0  0  0  0  0  0  0  0  0  0
   -1.7255    1.1088    4.5641 H   0  0  0  0  0  0  0  0  0  0  0  0
   -0.5319   -0.2118    4.6011 H   0  0  0  0  0  0  0  0  0  0  0  0
  5  6  2  0  0  0  0
  5  7  1  0  0  0  0
  2  3  1  0  0  0  0
  2  4  1  0  0  0  0
  2  5  1  0  0  0  0
  1  2  1  0  0  0  0
 22 23  2  0  0  0  0
 22 24  1  0  0  0  0
 18 19  1  0  0  0  0
 18 20  1  0  0  0  0
 18 21  1  0  0  0  0
 17 18  1  0  0  0  0
 14 15  1  0  0  0  0
 14 16  1  0  0  0  0
 14 17  1  0  0  0  0
 11 12  1  0  0  0  0
 11 13  1  0  0  0  0
 11 14  1  0  0  0  0
  9 10  1  0  0  0  0
  9 11  1  0  0  0  0
  9 22  1  0  0  0  0
  7  8  1  0  0  0  0
  7  9  1  0  0  0  0
 26 27  1  0  0  0  0
 26 28  1  0  0  0  0
 26 29  1  0  0  0  0
 24 25  1  0  0  0  0
 24 26  1  0  0  0  0
M  END
$$$$
default_name
  -OEChem-02102213163D

 29 28  0     1  0  0  0  0  0999 V2000
   -3.5781   -3.7296    1.2702 H   0  0  0  0  0  0  0  0  0  0  0  0
   -3.5311   -2.7616    0.7732 C   0  0  0  0  0  0  0  0  0  0  0  0
   -4.2371   -2.0766    1.2382 H   0  0  0  0  0  0  0  0  0  0  0  0
   -3.7681   -2.8816   -0.2818 H   0  0  0  0  0  0  0  0  0  0  0  0
   -2.1321   -2.2086    0.9112 C   0  0  0  0  0  0  0  0  0  0  0  0
   -1.2751   -2.8426    1.5112 O   0  0  0  0  0  0  0  0  0  0  0  0
   -1.9041   -1.0186    0.3602 N   0  0  0  0  0  0  0  0  0  0  0  0
   -2.6671   -0.5416   -0.0988 H   0  0  0  0  0  0  0  0  0  0  0  0
   -0.6131   -0.3236    0.3832 C   0  0  1  0  0  0  0  0  0  0  0  0
    0.1346   -0.9625   -0.0894 H   0  0  0  0  0  0  0  0  0  0  0  0
   -0.7253    0.9751   -0.4365 C   0  0  0  0  0  0  0  0  0  0  0  0
    0.2804    1.3417   -0.6528 H   0  0  0  0  0  0  0  0  0  0  0  0
   -1.2212    0.7606   -1.3843 H   0  0  0  0  0  0  0  0  0  0  0  0
   -1.4995    2.0869    0.2808 C   0  0  0  0  0  0  0  0  0  0  0  0
   -2.0368    1.6598    1.1270 H   0  0  0  0  0  0  0  0  0  0  0  0
   -0.7881    2.8248    0.6535 H   0  0  0  0  0  0  0  0  0  0  0  0
   -2.7003    2.9343   -0.7774 S   0  0  0  0  0  0  0  0  0  0  0  0
   -1.5696    3.8047   -1.8935 C   0  0  0  0  0  0  0  0  0  0  0  0
   -0.9494    3.0825   -2.4252 H   0  0  0  0  0  0  0  0  0  0  0  0
   -2.1477    4.3819   -2.6157 H   0  0  0  0  0  0  0  0  0  0  0  0
   -0.9346    4.4806   -1.3201 H   0  0  0  0  0  0  0  0  0  0  0  0
   -0.1711   -0.0594    1.8296 C   0  0  0  0  0  0  0  0  0  0  0  0
    0.9865   -0.2908    2.1726 O   0  0  0  0  0  0  0  0  0  0  0  0
   -1.0921    0.4156    2.6780 N   0  0  0  0  0  0  0  0  0  0  0  0
   -2.0168    0.5953    2.3206 H   0  0  0  0  0  0  0  0  0  0  0  0
   -0.8319    0.7034    4.0877 C   0  0  0  0  0  0  0  0  0  0  0  0
   -0.0192    1.4288    4.1710 H   0  0  0  0  0  0  0  0  0  0  0  0
   -1.7255    1.1088    4.5641 H   0  0  0  0  0  0  0  0  0  0  0  0
   -0.5319   -0.2118    4.6011 H   0  0  0  0  0  0  0  0  0  0  0  0
  5  6  2  0  0  0  0
  5  7  1  0  0  0  0
  2  3  1  0  0  0  0
  2  4  1  0  0  0  0
  2  5  1  0  0  0  0
  1  2  1  0  0  0  0
 22 23  2  0  0  0  0
 22 24  1  0  0  0  0
 18 19  1  0  0  0  0
 18 20  1  0  0  0  0
 18 21  1  0  0  0  0
 17 18  1  0  0  0  0
 14 15  1  0  0  0  0
 14 16  1  0  0  0  0
 14 17  1  0  0  0  0
 11 12  1  0  0  0  0
 11 13  1  0  0  0  0
 11 14  1  0  0  0  0
  9 10  1  0  0  0  0
  9 11  1  0  0  0  0
  9 22  1  0  0  0  0
  7  8  1  0  0  0  0
  7  9  1  0  0  0  0
 26 27  1  0  0  0  0
 26 28  1  0  0  0  0
 26 29  1  0  0  0  0
 24 25  1  0  0  0  0
 24 26  1  0  0  0  0
M  END
$$$$
default_name
  -OEChem-02102213163D

 29 28  0     1  0  0  0  0  0999 V2000
   -3.5781   -3.7296    1.2702 H   0  0  0  0  0  0  0  0  0  0  0  0
   -3.5311   -2.7616    0.7732 C   0  0  0  0  0  0  0  0  0  0  0  0
   -4.2371   -2.0766    1.2382 H   0  0  0  0  0  0  0  0  0  0  0  0
   -3.7681   -2.8816   -0.2818 H   0  0  0  0  0  0  0  0  0  0  0  0
   -2.1321   -2.2086    0.9112 C   0  0  0  0  0  0  0  0  0  0  0  0
   -1.2751   -2.8426    1.5112 O   0  0  0  0  0  0  0  0  0  0  0  0
   -1.9041   -1.0186    0.3602 N   0  0  0  0  0  0  0  0  0  0  0  0
   -2.6671   -0.5416   -0.0988 H   0  0  0  0  0  0  0  0  0  0  0  0
   -0.6131   -0.3236    0.3832 C   0  0  1  0  0  0  0  0  0  0  0  0
    0.1346   -0.9625   -0.0894 H   0  0  0  0  0  0  0  0  0  0  0  0
   -0.7253    0.9751   -0.4365 C   0  0  0  0  0  0  0  0  0  0  0  0
    0.2804    1.3417   -0.6528 H   0  0  0  0  0  0  0  0  0  0  0  0
   -1.2212    0.7606   -1.3843 H   0  0  0  0  0  0  0  0  0  0  0  0
   -1.4995    2.0869    0.2808 C   0  0  0  0  0  0  0  0  0  0  0  0
   -1.8140    1.7287    1.2605 H   0  0  0  0  0  0  0  0  0  0  0  0
   -0.8378    2.9432    0.4164 H   0  0  0  0  0  0  0  0  0  0  0  0
   -2.9731    2.6396   -0.6151 S   0  0  0  0  0  0  0  0  0  0  0  0
   -2.1879    3.4600   -2.0266 C   0  0  0  0  0  0  0  0  0  0  0  0
   -1.5825    2.7412   -2.5795 H   0  0  0  0  0  0  0  0  0  0  0  0
   -2.9582    3.8624   -2.6851 H   0  0  0  0  0  0  0  0  0  0  0  0
   -1.5563    4.2756   -1.6733 H   0  0  0  0  0  0  0  0  0  0  0  0
   -0.1711   -0.0594    1.8296 C   0  0  0  0  0  0  0  0  0  0  0  0
    0.9865   -0.2908    2.1726 O   0  0  0  0  0  0  0  0  0  0  0  0
   -1.0921    0.4156    2.6780 N   0  0  0  0  0  0  0  0  0  0  0  0
   -2.0168    0.5953    2.3206 H   0  0  0  0  0  0  0  0  0  0  0  0
   -0.8319    0.7034    4.0877 C   0  0  0  0  0  0  0  0  0  0  0  0
   -0.0192    1.4288    4.1710 H   0  0  0  0  0  0  0  0  0  0  0  0
   -1.7255    1.1088    4.5641 H   0  0  0  0  0  0  0  0  0  0  0  0
   -0.5319   -0.2118    4.6011 H   0  0  0  0  0  0  0  0  0  0  0  0
  5  6  2  0  0  0  0
  5  7  1  0  0  0  0
  2  3  1  0  0  0  0
  2  4  1  0  0  0  0
  2  5  1  0  0  0  0
  1  2  1  0  0  0  0
 22 23  2  0  0  0  0
 22 24  1  0  0  0  0
 18 19  1  0  0  0  0
 18 20  1  0  0  0  0
 18 21  1  0  0  0  0
 17 18  1  0  0  0  0
 14 15  1  0  0  0  0
 14 16  1  0  0  0  0
 14 17  1  0  0  0  0
 11 12  1  0  0  0  0
 11 13  1  0  0  0  0
 11 14  1  0  0  0  0
  9 10  1  0  0  0  0
  9 11  1  0  0  0  0
  9 22  1  0  0  0  0
  7  8  1  0  0  0  0
  7  9  1  0  0  0  0
 26 27  1  0  0  0  0
 26 28  1  0  0  0  0
 26 29  1  0  0  0  0
 24 25  1  0  0  0  0
 24 26  1  0  0  0  0
M  END
$$$$
default_name
  -OEChem-02102213163D

 29 28  0     1  0  0  0  0  0999 V2000
   -3.5781   -3.7296    1.2702 H   0  0  0  0  0  0  0  0  0  0  0  0
   -3.5311   -2.7616    0.7732 C   0  0  0  0  0  0  0  0  0  0  0  0
   -4.2371   -2.0766    1.2382 H   0  0  0  0  0  0  0  0  0  0  0  0
   -3.7681   -2.8816   -0.2818 H   0  0  0  0  0  0  0  0  0  0  0  0
   -2.1321   -2.2086    0.9112 C   0  0  0  0  0  0  0  0  0  0  0  0
   -1.2751   -2.8426    1.5112 O   0  0  0  0  0  0  0  0  0  0  0  0
   -1.9041   -1.0186    0.3602 N   0  0  0  0  0  0  0  0  0  0  0  0
   -2.6671   -0.5416   -0.0988 H   0  0  0  0  0  0  0  0  0  0  0  0
   -0.6131   -0.3236    0.3832 C   0  0  1  0  0  0  0  0  0  0  0  0
    0.1346   -0.9625   -0.0894 H   0  0  0  0  0  0  0  0  0  0  0  0
   -0.7253    0.9751   -0.4365 C   0  0  0  0  0  0  0  0  0  0  0  0
    0.2804    1.3417   -0.6528 H   0  0  0  0  0  0  0  0  0  0  0  0
   -1.2212    0.7606   -1.3843 H   0  0  0  0  0  0  0  0  0  0  0  0
   -1.4995    2.0869    0.2808 C   0  0  0  0  0  0  0  0  0  0  0  0
   -1.5822    1.8397    1.3387 H   0  0  0  0  0  0  0  0  0  0  0  0
   -0.9446    3.0205    0.1812 H   0  0  0  0  0  0  0  0  0  0  0  0
   -3.1705    2.3432   -0.3686 S   0  0  0  0  0  0  0  0  0  0  0  0
   -2.7684    3.0348   -1.9940 C   0  0  0  0  0  0  0  0  0  0  0  0
   -2.1817    2.3147   -2.5650 H   0  0  0  0  0  0  0  0  0  0  0  0
   -3.6912    3.2533   -2.5321 H   0  0  0  0  0  0  0  0  0  0  0  0
   -2.1983    3.9560   -1.8709 H   0  0  0  0  0  0  0  0  0  0  0  0
   -0.1711   -0.0594    1.8296 C   0  0  0  0  0  0  0  0  0  0  0  0
    0.9865   -0.2908    2.1726 O   0  0  0  0  0  0  0  0  0  0  0  0
   -1.0921    0.4156    2.6780 N   0  0  0  0  0  0  0  0  0  0  0  0
   -2.0168    0.5953    2.3206 H   0  0  0  0  0  0  0  0  0  0  0  0
   -0.8319    0.7034    4.0877 C   0  0  0  0  0  0  0  0  0  0  0  0
   -0.0192    1.4288    4.1710 H   0  0  0  0  0  0  0  0  0  0  0  0
   -1.7255    1.1088    4.5641 H   0  0  0  0  0  0  0  0  0  0  0  0
   -0.5319   -0.2118    4.6011 H   0  0  0  0  0  0  0  0  0  0  0  0
  5  6  2  0  0  0  0
  5  7  1  0  0  0  0
  2  3  1  0  0  0  0
  2  4  1  0  0  0  0
  2  5  1  0  0  0  0
  1  2  1  0  0  0  0
 22 23  2  0  0  0  0
 22 24  1  0  0  0  0
 18 19  1  0  0  0  0
 18 20  1  0  0  0  0
 18 21  1  0  0  0  0
 17 18  1  0  0  0  0
 14 15  1  0  0  0  0
 14 16  1  0  0  0  0
 14 17  1  0  0  0  0
 11 12  1  0  0  0  0
 11 13  1  0  0  0  0
 11 14  1  0  0  0  0
  9 10  1  0  0  0  0
  9 11  1  0  0  0  0
  9 22  1  0  0  0  0
  7  8  1  0  0  0  0
  7  9  1  0  0  0  0
 26 27  1  0  0  0  0
 26 28  1  0  0  0  0
 26 29  1  0  0  0  0
 24 25  1  0  0  0  0
 24 26  1  0  0  0  0
M  END
$$$$
default_name
  -OEChem-02102213163D

 29 28  0     1  0  0  0  0  0999 V2000
   -3.5781   -3.7296    1.2702 H   0  0  0  0  0  0  0  0  0  0  0  0
   -3.5311   -2.7616    0.7732 C   0  0  0  0  0  0  0  0  0  0  0  0
   -4.2371   -2.0766    1.2382 H   0  0  0  0  0  0  0  0  0  0  0  0
   -3.7681   -2.8816   -0.2818 H   0  0  0  0  0  0  0  0  0  0  0  0
   -2.1321   -2.2086    0.9112 C   0  0  0  0  0  0  0  0  0  0  0  0
   -1.2751   -2.8426    1.5112 O   0  0  0  0  0  0  0  0  0  0  0  0
   -1.9041   -1.0186    0.3602 N   0  0  0  0  0  0  0  0  0  0  0  0
   -2.6671   -0.5416   -0.0988 H   0  0  0  0  0  0  0  0  0  0  0  0
   -0.6131   -0.3236    0.3832 C   0  0  1  0  0  0  0  0  0  0  0  0
    0.1346   -0.9625   -0.0894 H   0  0  0  0  0  0  0  0  0  0  0  0
   -0.7253    0.9751   -0.4365 C   0  0  0  0  0  0  0  0  0  0  0  0
    0.2804    1.3417   -0.6528 H   0  0  0  0  0  0  0  0  0  0  0  0
   -1.2212    0.7606   -1.3843 H   0  0  0  0  0  0  0  0  0  0  0  0
   -1.4995    2.0869    0.2808 C   0  0  0  0  0  0  0  0  0  0  0  0
   -1.3570    1.9852    1.3562 H   0  0  0  0  0  0  0  0  0  0  0  0
   -1.1012    3.0515   -0.0360 H   0  0  0  0  0  0  0  0  0  0  0  0
   -3.2790    2.0652   -0.0547 S   0  0  0  0  0  0  0  0  0  0  0  0
   -3.2715    2.5581   -1.7979 C   0  0  0  0  0  0  0  0  0  0  0  0
   -2.7061    1.8321   -2.3829 H   0  0  0  0  0  0  0  0  0  0  0  0
   -4.2968    2.5962   -2.1671 H   0  0  0  0  0  0  0  0  0  0  0  0
   -2.8168    3.5438   -1.8995 H   0  0  0  0  0  0  0  0  0  0  0  0
   -0.1711   -0.0594    1.8296 C   0  0  0  0  0  0  0  0  0  0  0  0
    0.9865   -0.2908    2.1726 O   0  0  0  0  0  0  0  0  0  0  0  0
   -1.0921    0.4156    2.6780 N   0  0  0  0  0  0  0  0  0  0  0  0
   -2.0168    0.5953    2.3206 H   0  0  0  0  0  0  0  0  0  0  0  0
   -0.8319    0.7034    4.0877 C   0  0  0  0  0  0  0  0  0  0  0  0
   -0.0192    1.4288    4.1710 H   0  0  0  0  0  0  0  0  0  0  0  0
   -1.7255    1.1088    4.5641 H   0  0  0  0  0  0  0  0  0  0  0  0
   -0.5319   -0.2118    4.6011 H   0  0  0  0  0  0  0  0  0  0  0  0
  5  6  2  0  0  0  0
  5  7  1  0  0  0  0
  2  3  1  0  0  0  0
  2  4  1  0  0  0  0
  2  5  1  0  0  0  0
  1  2  1  0  0  0  0
 22 23  2  0  0  0  0
 22 24  1  0  0  0  0
 18 19  1  0  0  0  0
 18 20  1  0  0  0  0
 18 21  1  0  0  0  0
 17 18  1  0  0  0  0
 14 15  1  0  0  0  0
 14 16  1  0  0  0  0
 14 17  1  0  0  0  0
 11 12  1  0  0  0  0
 11 13  1  0  0  0  0
 11 14  1  0  0  0  0
  9 10  1  0  0  0  0
  9 11  1  0  0  0  0
  9 22  1  0  0  0  0
  7  8  1  0  0  0  0
  7  9  1  0  0  0  0
 26 27  1  0  0  0  0
 26 28  1  0  0  0  0
 26 29  1  0  0  0  0
 24 25  1  0  0  0  0
 24 26  1  0  0  0  0
M  END
$$$$
default_name
  -OEChem-02102213163D

 29 28  0     1  0  0  0  0  0999 V2000
   -3.5781   -3.7296    1.2702 H   0  0  0  0  0  0  0  0  0  0  0  0
   -3.5311   -2.7616    0.7732 C   0  0  0  0  0  0  0  0  0  0  0  0
   -4.2371   -2.0766    1.2382 H   0  0  0  0  0  0  0  0  0  0  0  0
   -3.7681   -2.8816   -0.2818 H   0  0  0  0  0  0  0  0  0  0  0  0
   -2.1321   -2.2086    0.9112 C   0  0  0  0  0  0  0  0  0  0  0  0
   -1.2751   -2.8426    1.5112 O   0  0  0  0  0  0  0  0  0  0  0  0
   -1.9041   -1.0186    0.3602 N   0  0  0  0  0  0  0  0  0  0  0  0
   -2.6671   -0.5416   -0.0988 H   0  0  0  0  0  0  0  0  0  0  0  0
   -0.6131   -0.3236    0.3832 C   0  0  1  0  0  0  0  0  0  0  0  0
    0.1346   -0.9625   -0.0894 H   0  0  0  0  0  0  0  0  0  0  0  0
   -0.7253    0.9751   -0.4365 C   0  0  0  0  0  0  0  0  0  0  0  0
    0.2804    1.3417   -0.6528 H   0  0  0  0  0  0  0  0  0  0  0  0
   -1.2212    0.7606   -1.3843 H   0  0  0  0  0  0  0  0  0  0  0  0
   -1.4995    2.0869    0.2808 C   0  0  0  0  0  0  0  0  0  0  0  0
   -1.1538    2.1553    1.3118 H   0  0  0  0  0  0  0  0  0  0  0  0
   -1.2971    3.0342   -0.2205 H   0  0  0  0  0  0  0  0  0  0  0  0
   -3.2912    1.8245    0.3052 S   0  0  0  0  0  0  0  0  0  0  0  0
   -3.6630    2.0622   -1.4518 C   0  0  0  0  0  0  0  0  0  0  0  0
   -3.1200    1.3262   -2.0454 H   0  0  0  0  0  0  0  0  0  0  0  0
   -4.7336    1.9359   -1.6150 H   0  0  0  0  0  0  0  0  0  0  0  0
   -3.3697    3.0670   -1.7572 H   0  0  0  0  0  0  0  0  0  0  0  0
   -0.1711   -0.0594    1.8296 C   0  0  0  0  0  0  0  0  0  0  0  0
    0.9865   -0.2908    2.1726 O   0  0  0  0  0  0  0  0  0  0  0  0
   -1.0921    0.4156    2.6780 N   0  0  0  0  0  0  0  0  0  0  0  0
   -2.0168    0.5953    2.3206 H   0  0  0  0  0  0  0  0  0  0  0  0
   -0.8319    0.7034    4.0877 C   0  0  0  0  0  0  0  0  0  0  0  0
   -0.0192    1.4288    4.1710 H   0  0  0  0  0  0  0  0  0  0  0  0
   -1.7255    1.1088    4.5641 H   0  0  0  0  0  0  0  0  0  0  0  0
   -0.5319   -0.2118    4.6011 H   0  0  0  0  0  0  0  0  0  0  0  0
  5  6  2  0  0  0  0
  5  7  1  0  0  0  0
  2  3  1  0  0  0  0
  2  4  1  0  0  0  0
  2  5  1  0  0  0  0
  1  2  1  0  0  0  0
 22 23  2  0  0  0  0
 22 24  1  0  0  0  0
 18 19  1  0  0  0  0
 18 20  1  0  0  0  0
 18 21  1  0  0  0  0
 17 18  1  0  0  0  0
 14 15  1  0  0  0  0
 14 16  1  0  0  0  0
 14 17  1  0  0  0  0
 11 12  1  0  0  0  0
 11 13  1  0  0  0  0
 11 14  1  0  0  0  0
  9 10  1  0  0  0  0
  9 11  1  0  0  0  0
  9 22  1  0  0  0  0
  7  8  1  0  0  0  0
  7  9  1  0  0  0  0
 26 27  1  0  0  0  0
 26 28  1  0  0  0  0
 26 29  1  0  0  0  0
 24 25  1  0  0  0  0
 24 26  1  0  0  0  0
M  END
$$$$
default_name
  -OEChem-02102213163D

 29 28  0     1  0  0  0  0  0999 V2000
   -3.5781   -3.7296    1.2702 H   0  0  0  0  0  0  0  0  0  0  0  0
   -3.5311   -2.7616    0.7732 C   0  0  0  0  0  0  0  0  0  0  0  0
   -4.2371   -2.0766    1.2382 H   0  0  0  0  0  0  0  0  0  0  0  0
   -3.7681   -2.8816   -0.2818 H   0  0  0  0  0  0  0  0  0  0  0  0
   -2.1321   -2.2086    0.9112 C   0  0  0  0  0  0  0  0  0  0  0  0
   -1.2751   -2.8426    1.5112 O   0  0  0  0  0  0  0  0  0  0  0  0
   -1.9041   -1.0186    0.3602 N   0  0  0  0  0  0  0  0  0  0  0  0
   -2.6671   -0.5416   -0.0988 H   0  0  0  0  0  0  0  0  0  0  0  0
   -0.6131   -0.3236    0.3832 C   0  0  1  0  0  0  0  0  0  0  0  0
    0.1346   -0.9625   -0.0894 H   0  0  0  0  0  0  0  0  0  0  0  0
   -0.7253    0.9751   -0.4365 C   0  0  0  0  0  0  0  0  0  0  0  0
    0.2804    1.3417   -0.6528 H   0  0  0  0  0  0  0  0  0  0  0  0
   -1.2212    0.7606   -1.3843 H   0  0  0  0  0  0  0  0  0  0  0  0
   -1.4995    2.0869    0.2808 C   0  0  0  0  0  0  0  0  0  0  0  0
   -0.9865    2.3385    1.2085 H   0  0  0  0  0  0  0  0  0  0  0  0
   -1.5188    2.9695   -0.3596 H   0  0  0  0  0  0  0  0  0  0  0  0
   -3.2063    1.6376    0.6866 S   0  0  0  0  0  0  0  0  0  0  0  0
   -3.9160    1.5811   -0.9792 C   0  0  0  0  0  0  0  0  0  0  0  0
   -3.3952    0.8315   -1.5756 H   0  0  0  0  0  0  0  0  0  0  0  0
   -4.9719    1.3173   -0.9134 H   0  0  0  0  0  0  0  0  0  0  0  0
   -3.8193    2.5581   -1.4536 H   0  0  0  0  0  0  0  0  0  0  0  0
   -0.1711   -0.0594    1.8296 C   0  0  0  0  0  0  0  0  0  0  0  0
    0.9865   -0.2908    2.1726 O   0  0  0  0  0  0  0  0  0  0  0  0
   -1.0921    0.4156    2.6780 N   0  0  0  0  0  0  0  0  0  0  0  0
   -2.0168    0.5953    2.3206 H   0  0  0  0  0  0  0  0  0  0  0  0
   -0.8319    0.7034    4.0877 C   0  0  0  0  0  0  0  0  0  0  0  0
   -0.0192    1.4288    4.1710 H   0  0  0  0  0  0  0  0  0  0  0  0
   -1.7255    1.1088    4.5641 H   0  0  0  0  0  0  0  0  0  0  0  0
   -0.5319   -0.2118    4.6011 H   0  0  0  0  0  0  0  0  0  0  0  0
  5  6  2  0  0  0  0
  5  7  1  0  0  0  0
  2  3  1  0  0  0  0
  2  4  1  0  0  0  0
  2  5  1  0  0  0  0
  1  2  1  0  0  0  0
 22 23  2  0  0  0  0
 22 24  1  0  0  0  0
 18 19  1  0  0  0  0
 18 20  1  0  0  0  0
 18 21  1  0  0  0  0
 17 18  1  0  0  0  0
 14 15  1  0  0  0  0
 14 16  1  0  0  0  0
 14 17  1  0  0  0  0
 11 12  1  0  0  0  0
 11 13  1  0  0  0  0
 11 14  1  0  0  0  0
  9 10  1  0  0  0  0
  9 11  1  0  0  0  0
  9 22  1  0  0  0  0
  7  8  1  0  0  0  0
  7  9  1  0  0  0  0
 26 27  1  0  0  0  0
 26 28  1  0  0  0  0
 26 29  1  0  0  0  0
 24 25  1  0  0  0  0
 24 26  1  0  0  0  0
M  END
$$$$
default_name
  -OEChem-02102213163D

 29 28  0     1  0  0  0  0  0999 V2000
   -3.5781   -3.7296    1.2702 H   0  0  0  0  0  0  0  0  0  0  0  0
   -3.5311   -2.7616    0.7732 C   0  0  0  0  0  0  0  0  0  0  0  0
   -4.2371   -2.0766    1.2382 H   0  0  0  0  0  0  0  0  0  0  0  0
   -3.7681   -2.8816   -0.2818 H   0  0  0  0  0  0  0  0  0  0  0  0
   -2.1321   -2.2086    0.9112 C   0  0  0  0  0  0  0  0  0  0  0  0
   -1.2751   -2.8426    1.5112 O   0  0  0  0  0  0  0  0  0  0  0  0
   -1.9041   -1.0186    0.3602 N   0  0  0  0  0  0  0  0  0  0  0  0
   -2.6671   -0.5416   -0.0988 H   0  0  0  0  0  0  0  0  0  0  0  0
   -0.6131   -0.3236    0.3832 C   0  0  1  0  0  0  0  0  0  0  0  0
    0.1346   -0.9625   -0.0894 H   0  0  0  0  0  0  0  0  0  0  0  0
   -0.7253    0.9751   -0.4365 C   0  0  0  0  0  0  0  0  0  0  0  0
    0.2804    1.3417   -0.6528 H   0  0  0  0  0  0  0  0  0  0  0  0
   -1.2212    0.7606   -1.3843 H   0  0  0  0  0  0  0  0  0  0  0  0
   -1.4995    2.0869    0.2808 C   0  0  0  0  0  0  0  0  0  0  0  0
   -0.8664    2.5221    1.0534 H   0  0  0  0  0  0  0  0  0  0  0  0
   -1.7513    2.8621   -0.4439 H   0  0  0  0  0  0  0  0  0  0  0  0
   -3.0300    1.5172    1.0634 S   0  0  0  0  0  0  0  0  0  0  0  0
   -4.0135    1.1476   -0.4123 C   0  0  0  0  0  0  0  0  0  0  0  0
   -3.5129    0.3817   -1.0055 H   0  0  0  0  0  0  0  0  0  0  0  0
   -4.9956    0.7827   -0.1102 H   0  0  0  0  0  0  0  0  0  0  0  0
   -4.1350    2.0518   -1.0094 H   0  0  0  0  0  0  0  0  0  0  0  0
   -0.1711   -0.0594    1.8296 C   0  0  0  0  0  0  0  0  0  0  0  0
    0.9865   -0.2908    2.1726 O   0  0  0  0  0  0  0  0  0  0  0  0
   -1.0921    0.4156    2.6780 N   0  0  0  0  0  0  0  0  0  0  0  0
   -2.0168    0.5953    2.3206 H   0  0  0  0  0  0  0  0  0  0  0  0
   -0.8319    0.7034    4.0877 C   0  0  0  0  0  0  0  0  0  0  0  0
   -0.0192    1.4288    4.1710 H   0  0  0  0  0  0  0  0  0  0  0  0
   -1.7255    1.1088    4.5641 H   0  0  0  0  0  0  0  0  0  0  0  0
   -0.5319   -0.2118    4.6011 H   0  0  0  0  0  0  0  0  0  0  0  0
  5  6  2  0  0  0  0
  5  7  1  0  0  0  0
  2  3  1  0  0  0  0
  2  4  1  0  0  0  0
  2  5  1  0  0  0  0
  1  2  1  0  0  0  0
 22 23  2  0  0  0  0
 22 24  1  0  0  0  0
 18 19  1  0  0  0  0
 18 20  1  0  0  0  0
 18 21  1  0  0  0  0
 17 18  1  0  0  0  0
 14 15  1  0  0  0  0
 14 16  1  0  0  0  0
 14 17  1  0  0  0  0
 11 12  1  0  0  0  0
 11 13  1  0  0  0  0
 11 14  1  0  0  0  0
  9 10  1  0  0  0  0
  9 11  1  0  0  0  0
  9 22  1  0  0  0  0
  7  8  1  0  0  0  0
  7  9  1  0  0  0  0
 26 27  1  0  0  0  0
 26 28  1  0  0  0  0
 26 29  1  0  0  0  0
 24 25  1  0  0  0  0
 24 26  1  0  0  0  0
M  END
$$$$
default_name
  -OEChem-02102213163D

 29 28  0     1  0  0  0  0  0999 V2000
   -3.5781   -3.7296    1.2702 H   0  0  0  0  0  0  0  0  0  0  0  0
   -3.5311   -2.7616    0.7732 C   0  0  0  0  0  0  0  0  0  0  0  0
   -4.2371   -2.0766    1.2382 H   0  0  0  0  0  0  0  0  0  0  0  0
   -3.7681   -2.8816   -0.2818 H   0  0  0  0  0  0  0  0  0  0  0  0
   -2.1321   -2.2086    0.9112 C   0  0  0  0  0  0  0  0  0  0  0  0
   -1.2751   -2.8426    1.5112 O   0  0  0  0  0  0  0  0  0  0  0  0
   -1.9041   -1.0186    0.3602 N   0  0  0  0  0  0  0  0  0  0  0  0
   -2.6671   -0.5416   -0.0988 H   0  0  0  0  0  0  0  0  0  0  0  0
   -0.6131   -0.3236    0.3832 C   0  0  1  0  0  0  0  0  0  0  0  0
    0.1346   -0.9625   -0.0894 H   0  0  0  0  0  0  0  0  0  0  0  0
   -0.7253    0.9751   -0.4365 C   0  0  0  0  0  0  0  0  0  0  0  0
    0.2804    1.3417   -0.6528 H   0  0  0  0  0  0  0  0  0  0  0  0
   -1.2212    0.7606   -1.3843 H   0  0  0  0  0  0  0  0  0  0  0  0
   -1.4995    2.0869    0.2808 C   0  0  0  0  0  0  0  0  0  0  0  0
   -0.8018    2.6938    0.8571 H   0  0  0  0  0  0  0  0  0  0  0  0
   -1.9787    2.7191   -0.4677 H   0  0  0  0  0  0  0  0  0  0  0  0
   -2.7744    1.4715    1.4101 S   0  0  0  0  0  0  0  0  0  0  0  0
   -3.9488    0.7911    0.2102 C   0  0  0  0  0  0  0  0  0  0  0  0
   -3.4651    0.0076   -0.3739 H   0  0  0  0  0  0  0  0  0  0  0  0
   -4.8028    0.3684    0.7401 H   0  0  0  0  0  0  0  0  0  0  0  0
   -4.2952    1.5826   -0.4549 H   0  0  0  0  0  0  0  0  0  0  0  0
   -0.1711   -0.0594    1.8296 C   0  0  0  0  0  0  0  0  0  0  0  0
    0.9865   -0.2908    2.1726 O   0  0  0  0  0  0  0  0  0  0  0  0
   -1.0921    0.4156    2.6780 N   0  0  0  0  0  0  0  0  0  0  0  0
   -2.0168    0.5953    2.3206 H   0  0  0  0  0  0  0  0  0  0  0  0
   -0.8319    0.7034    4.0877 C   0  0  0  0  0  0  0  0  0  0  0  0
   -0.0192    1.4288    4.1710 H   0  0  0  0  0  0  0  0  0  0  0  0
   -1.7255    1.1088    4.5641 H   0  0  0  0  0  0  0  0  0  0  0  0
   -0.5319   -0.2118    4.6011 H   0  0  0  0  0  0  0  0  0  0  0  0
  5  6  2  0  0  0  0
  5  7  1  0  0  0  0
  2  3  1  0  0  0  0
  2  4  1  0  0  0  0
  2  5  1  0  0  0  0
  1  2  1  0  0  0  0
 22 23  2  0  0  0  0
 22 24  1  0  0  0  0
 18 19  1  0  0  0  0
 18 20  1  0  0  0  0
 18 21  1  0  0  0  0
 17 18  1  0  0  0  0
 14 15  1  0  0  0  0
 14 16  1  0  0  0  0
 14 17  1  0  0  0  0
 11 12  1  0  0  0  0
 11 13  1  0  0  0  0
 11 14  1  0  0  0  0
  9 10  1  0  0  0  0
  9 11  1  0  0  0  0
  9 22  1  0  0  0  0
  7  8  1  0  0  0  0
  7  9  1  0  0  0  0
 26 27  1  0  0  0  0
 26 28  1  0  0  0  0
 26 29  1  0  0  0  0
 24 25  1  0  0  0  0
 24 26  1  0  0  0  0
M  END
$$$$
default_name
  -OEChem-02102213163D

 29 28  0     1  0  0  0  0  0999 V2000
   -3.5781   -3.7296    1.2702 H   0  0  0  0  0  0  0  0  0  0  0  0
   -3.5311   -2.7616    0.7732 C   0  0  0  0  0  0  0  0  0  0  0  0
   -4.2371   -2.0766    1.2382 H   0  0  0  0  0  0  0  0  0  0  0  0
   -3.7681   -2.8816   -0.2818 H   0  0  0  0  0  0  0  0  0  0  0  0
   -2.1321   -2.2086    0.9112 C   0  0  0  0  0  0  0  0  0  0  0  0
   -1.2751   -2.8426    1.5112 O   0  0  0  0  0  0  0  0  0  0  0  0
   -1.9041   -1.0186    0.3602 N   0  0  0  0  0  0  0  0  0  0  0  0
   -2.6671   -0.5416   -0.0988 H   0  0  0  0  0  0  0  0  0  0  0  0
   -0.6131   -0.3236    0.3832 C   0  0  1  0  0  0  0  0  0  0  0  0
    0.1346   -0.9625   -0.0894 H   0  0  0  0  0  0  0  0  0  0  0  0
   -0.7253    0.9751   -0.4365 C   0  0  0  0  0  0  0  0  0  0  0  0
    0.2804    1.3417   -0.6528 H   0  0  0  0  0  0  0  0  0  0  0  0
   -1.2212    0.7606   -1.3843 H   0  0  0  0  0  0  0  0  0  0  0  0
   -1.4995    2.0869    0.2808 C   0  0  0  0  0  0  0  0  0  0  0  0
   -0.7970    2.8418    0.6329 H   0  0  0  0  0  0  0  0  0  0  0  0
   -2.1854    2.5503   -0.4293 H   0  0  0  0  0  0  0  0  0  0  0  0
   -2.4570    1.5036    1.7030 S   0  0  0  0  0  0  0  0  0  0  0  0
   -3.7262    0.5359    0.8460 C   0  0  0  0  0  0  0  0  0  0  0  0
   -3.2551   -0.2655    0.2760 H   0  0  0  0  0  0  0  0  0  0  0  0
   -4.4069    0.1027    1.5793 H   0  0  0  0  0  0  0  0  0  0  0  0
   -4.2890    1.1824    0.1721 H   0  0  0  0  0  0  0  0  0  0  0  0
   -0.1711   -0.0594    1.8296 C   0  0  0  0  0  0  0  0  0  0  0  0
    0.9865   -0.2908    2.1726 O   0  0  0  0  0  0  0  0  0  0  0  0
   -1.0921    0.4156    2.6780 N   0  0  0  0  0  0  0  0  0  0  0  0
   -2.0168    0.5953    2.3206 H   0  0  0  0  0  0  0  0  0  0  0  0
   -0.8319    0.7034    4.0877 C   0  0  0  0  0  0  0  0  0  0  0  0
   -0.0192    1.4288    4.1710 H   0  0  0  0  0  0  0  0  0  0  0  0
   -1.7255    1.1088    4.5641 H   0  0  0  0  0  0  0  0  0  0  0  0
   -0.5319   -0.2118    4.6011 H   0  0  0  0  0  0  0  0  0  0  0  0
  5  6  2  0  0  0  0
  5  7  1  0  0  0  0
  2  3  1  0  0  0  0
  2  4  1  0  0  0  0
  2  5  1  0  0  0  0
  1  2  1  0  0  0  0
 22 23  2  0  0  0  0
 22 24  1  0  0  0  0
 18 19  1  0  0  0  0
 18 20  1  0  0  0  0
 18 21  1  0  0  0  0
 17 18  1  0  0  0  0
 14 15  1  0  0  0  0
 14 16  1  0  0  0  0
 14 17  1  0  0  0  0
 11 12  1  0  0  0  0
 11 13  1  0  0  0  0
 11 14  1  0  0  0  0
  9 10  1  0  0  0  0
  9 11  1  0  0  0  0
  9 22  1  0  0  0  0
  7  8  1  0  0  0  0
  7  9  1  0  0  0  0
 26 27  1  0  0  0  0
 26 28  1  0  0  0  0
 26 29  1  0  0  0  0
 24 25  1  0  0  0  0
 24 26  1  0  0  0  0
M  END
$$$$
default_name
  -OEChem-02102213163D

 29 28  0     1  0  0  0  0  0999 V2000
   -3.5781   -3.7296    1.2702 H   0  0  0  0  0  0  0  0  0  0  0  0
   -3.5311   -2.7616    0.7732 C   0  0  0  0  0  0  0  0  0  0  0  0
   -4.2371   -2.0766    1.2382 H   0  0  0  0  0  0  0  0  0  0  0  0
   -3.7681   -2.8816   -0.2818 H   0  0  0  0  0  0  0  0  0  0  0  0
   -2.1321   -2.2086    0.9112 C   0  0  0  0  0  0  0  0  0  0  0  0
   -1.2751   -2.8426    1.5112 O   0  0  0  0  0  0  0  0  0  0  0  0
   -1.9041   -1.0186    0.3602 N   0  0  0  0  0  0  0  0  0  0  0  0
   -2.6671   -0.5416   -0.0988 H   0  0  0  0  0  0  0  0  0  0  0  0
   -0.6131   -0.3236    0.3832 C   0  0  1  0  0  0  0  0  0  0  0  0
    0.1346   -0.9625   -0.0894 H   0  0  0  0  0  0  0  0  0  0  0  0
   -0.7253    0.9751   -0.4365 C   0  0  0  0  0  0  0  0  0  0  0  0
    0.2804    1.3417   -0.6528 H   0  0  0  0  0  0  0  0  0  0  0  0
   -1.2212    0.7606   -1.3843 H   0  0  0  0  0  0  0  0  0  0  0  0
   -1.4995    2.0869    0.2808 C   0  0  0  0  0  0  0  0  0  0  0  0
   -0.8524    2.9559    0.3960 H   0  0  0  0  0  0  0  0  0  0  0  0
   -2.3575    2.3673   -0.3313 H   0  0  0  0  0  0  0  0  0  0  0  0
   -2.0992    1.6114    1.9221 S   0  0  0  0  0  0  0  0  0  0  0  0
   -3.3609    0.3995    1.4516 C   0  0  0  0  0  0  0  0  0  0  0  0
   -2.8972   -0.4189    0.9001 H   0  0  0  0  0  0  0  0  0  0  0  0
   -3.8348    0.0037    2.3503 H   0  0  0  0  0  0  0  0  0  0  0  0
   -4.1169    0.8785    0.8289 H   0  0  0  0  0  0  0  0  0  0  0  0
   -0.1711   -0.0594    1.8296 C   0  0  0  0  0  0  0  0  0  0  0  0
    0.9865   -0.2908    2.1726 O   0  0  0  0  0  0  0  0  0  0  0  0
   -1.0921    0.4156    2.6780 N   0  0  0  0  0  0  0  0  0  0  0  0
   -2.0168    0.5953    2.3206 H   0  0  0  0  0  0  0  0  0  0  0  0
   -0.8319    0.7034    4.0877 C   0  0  0  0  0  0  0  0  0  0  0  0
   -0.0192    1.4288    4.1710 H   0  0  0  0  0  0  0  0  0  0  0  0
   -1.7255    1.1088    4.5641 H   0  0  0  0  0  0  0  0  0  0  0  0
   -0.5319   -0.2118    4.6011 H   0  0  0  0  0  0  0  0  0  0  0  0
  5  6  2  0  0  0  0
  5  7  1  0  0  0  0
  2  3  1  0  0  0  0
  2  4  1  0  0  0  0
  2  5  1  0  0  0  0
  1  2  1  0  0  0  0
 22 23  2  0  0  0  0
 22 24  1  0  0  0  0
 18 19  1  0  0  0  0
 18 20  1  0  0  0  0
 18 21  1  0  0  0  0
 17 18  1  0  0  0  0
 14 15  1  0  0  0  0
 14 16  1  0  0  0  0
 14 17  1  0  0  0  0
 11 12  1  0  0  0  0
 11 13  1  0  0  0  0
 11 14  1  0  0  0  0
  9 10  1  0  0  0  0
  9 11  1  0  0  0  0
  9 22  1  0  0  0  0
  7  8  1  0  0  0  0
  7  9  1  0  0  0  0
 26 27  1  0  0  0  0
 26 28  1  0  0  0  0
 26 29  1  0  0  0  0
 24 25  1  0  0  0  0
 24 26  1  0  0  0  0
M  END
$$$$
default_name
  -OEChem-02102213163D

 29 28  0     1  0  0  0  0  0999 V2000
   -3.5781   -3.7296    1.2702 H   0  0  0  0  0  0  0  0  0  0  0  0
   -3.5311   -2.7616    0.7732 C   0  0  0  0  0  0  0  0  0  0  0  0
   -4.2371   -2.0766    1.2382 H   0  0  0  0  0  0  0  0  0  0  0  0
   -3.7681   -2.8816   -0.2818 H   0  0  0  0  0  0  0  0  0  0  0  0
   -2.1321   -2.2086    0.9112 C   0  0  0  0  0  0  0  0  0  0  0  0
   -1.2751   -2.8426    1.5112 O   0  0  0  0  0  0  0  0  0  0  0  0
   -1.9041   -1.0186    0.3602 N   0  0  0  0  0  0  0  0  0  0  0  0
   -2.6671   -0.5416   -0.0988 H   0  0  0  0  0  0  0  0  0  0  0  0
   -0.6131   -0.3236    0.3832 C   0  0  1  0  0  0  0  0  0  0  0  0
    0.1346   -0.9625   -0.0894 H   0  0  0  0  0  0  0  0  0  0  0  0
   -0.7253    0.9751   -0.4365 C   0  0  0  0  0  0  0  0  0  0  0  0
    0.2804    1.3417   -0.6528 H   0  0  0  0  0  0  0  0  0  0  0  0
   -1.2212    0.7606   -1.3843 H   0  0  0  0  0  0  0  0  0  0  0  0
   -1.4995    2.0869    0.2808 C   0  0  0  0  0  0  0  0  0  0  0  0
   -0.9642    3.0286    0.1627 H   0  0  0  0  0  0  0  0  0  0  0  0
   -2.4831    2.1825   -0.1804 H   0  0  0  0  0  0  0  0  0  0  0  0
   -1.7256    1.7874    2.0525 S   0  0  0  0  0  0  0  0  0  0  0  0
   -2.8779    0.3912    1.9859 C   0  0  0  0  0  0  0  0  0  0  0  0
   -2.4157   -0.4421    1.4558 H   0  0  0  0  0  0  0  0  0  0  0  0
   -3.1254    0.0781    3.0006 H   0  0  0  0  0  0  0  0  0  0  0  0
   -3.7906    0.6917    1.4707 H   0  0  0  0  0  0  0  0  0  0  0  0
   -0.1711   -0.0594    1.8296 C   0  0  0  0  0  0  0  0  0  0  0  0
    0.9865   -0.2908    2.1726 O   0  0  0  0  0  0  0  0  0  0  0  0
   -1.0921    0.4156    2.6780 N   0  0  0  0  0  0  0  0  0  0  0  0
   -2.0168    0.5953    2.3206 H   0  0  0  0  0  0  0  0  0  0  0  0
   -0.8319    0.7034    4.0877 C   0  0  0  0  0  0  0  0  0  0  0  0
   -0.0192    1.4288    4.1710 H   0  0  0  0  0  0  0  0  0  0  0  0
   -1.7255    1.1088    4.5641 H   0  0  0  0  0  0  0  0  0  0  0  0
   -0.5319   -0.2118    4.6011 H   0  0  0  0  0  0  0  0  0  0  0  0
  5  6  2  0  0  0  0
  5  7  1  0  0  0  0
  2  3  1  0  0  0  0
  2  4  1  0  0  0  0
  2  5  1  0  0  0  0
  1  2  1  0  0  0  0
 22 23  2  0  0  0  0
 22 24  1  0  0  0  0
 18 19  1  0  0  0  0
 18 20  1  0  0  0  0
 18 21  1  0  0  0  0
 17 18  1  0  0  0  0
 14 15  1  0  0  0  0
 14 16  1  0  0  0  0
 14 17  1  0  0  0  0
 11 12  1  0  0  0  0
 11 13  1  0  0  0  0
 11 14  1  0  0  0  0
  9 10  1  0  0  0  0
  9 11  1  0  0  0  0
  9 22  1  0  0  0  0
  7  8  1  0  0  0  0
  7  9  1  0  0  0  0
 26 27  1  0  0  0  0
 26 28  1  0  0  0  0
 26 29  1  0  0  0  0
 24 25  1  0  0  0  0
 24 26  1  0  0  0  0
M  END
$$$$
default_name
  -OEChem-02102213163D

 29 28  0     1  0  0  0  0  0999 V2000
   -3.5781   -3.7296    1.2702 H   0  0  0  0  0  0  0  0  0  0  0  0
   -3.5311   -2.7616    0.7732 C   0  0  0  0  0  0  0  0  0  0  0  0
   -4.2371   -2.0766    1.2382 H   0  0  0  0  0  0  0  0  0  0  0  0
   -3.7681   -2.8816   -0.2818 H   0  0  0  0  0  0  0  0  0  0  0  0
   -2.1321   -2.2086    0.9112 C   0  0  0  0  0  0  0  0  0  0  0  0
   -1.2751   -2.8426    1.5112 O   0  0  0  0  0  0  0  0  0  0  0  0
   -1.9041   -1.0186    0.3602 N   0  0  0  0  0  0  0  0  0  0  0  0
   -2.6671   -0.5416   -0.0988 H   0  0  0  0  0  0  0  0  0  0  0  0
   -0.6131   -0.3236    0.3832 C   0  0  1  0  0  0  0  0  0  0  0  0
    0.1346   -0.9625   -0.0894 H   0  0  0  0  0  0  0  0  0  0  0  0
   -0.7253    0.9751   -0.4365 C   0  0  0  0  0  0  0  0  0  0  0  0
    0.2804    1.3417   -0.6528 H   0  0  0  0  0  0  0  0  0  0  0  0
   -1.2212    0.7606   -1.3843 H   0  0  0  0  0  0  0  0  0  0  0  0
   -1.4995    2.0869    0.2808 C   0  0  0  0  0  0  0  0  0  0  0  0
   -1.1248    3.0547   -0.0511 H   0  0  0  0  0  0  0  0  0  0  0  0
   -2.5538    2.0085    0.0130 H   0  0  0  0  0  0  0  0  0  0  0  0
   -1.3615    2.0197    2.0853 S   0  0  0  0  0  0  0  0  0  0  0  0
   -2.3100    0.5114    2.4124 C   0  0  0  0  0  0  0  0  0  0  0  0
   -1.8435   -0.3336    1.9052 H   0  0  0  0  0  0  0  0  0  0  0  0
   -2.3271    0.3209    3.4859 H   0  0  0  0  0  0  0  0  0  0  0  0
   -3.3323    0.6347    2.0538 H   0  0  0  0  0  0  0  0  0  0  0  0
   -0.1711   -0.0594    1.8296 C   0  0  0  0  0  0  0  0  0  0  0  0
    0.9865   -0.2908    2.1726 O   0  0  0  0  0  0  0  0  0  0  0  0
   -1.0921    0.4156    2.6780 N   0  0  0  0  0  0  0  0  0  0  0  0
   -2.0168    0.5953    2.3206 H   0  0  0  0  0  0  0  0  0  0  0  0
   -0.8319    0.7034    4.0877 C   0  0  0  0  0  0  0  0  0  0  0  0
   -0.0192    1.4288    4.1710 H   0  0  0  0  0  0  0  0  0  0  0  0
   -1.7255    1.1088    4.5641 H   0  0  0  0  0  0  0  0  0  0  0  0
   -0.5319   -0.2118    4.6011 H   0  0  0  0  0  0  0  0  0  0  0  0
  5  6  2  0  0  0  0
  5  7  1  0  0  0  0
  2  3  1  0  0  0  0
  2  4  1  0  0  0  0
  2  5  1  0  0  0  0
  1  2  1  0  0  0  0
 22 23  2  0  0  0  0
 22 24  1  0  0  0  0
 18 19  1  0  0  0  0
 18 20  1  0  0  0  0
 18 21  1  0  0  0  0
 17 18  1  0  0  0  0
 14 15  1  0  0  0  0
 14 16  1  0  0  0  0
 14 17  1  0  0  0  0
 11 12  1  0  0  0  0
 11 13  1  0  0  0  0
 11 14  1  0  0  0  0
  9 10  1  0  0  0  0
  9 11  1  0  0  0  0
  9 22  1  0  0  0  0
  7  8  1  0  0  0  0
  7  9  1  0  0  0  0
 26 27  1  0  0  0  0
 26 28  1  0  0  0  0
 26 29  1  0  0  0  0
 24 25  1  0  0  0  0
 24 26  1  0  0  0  0
M  END
$$$$
default_name
  -OEChem-02102213163D

 29 28  0     1  0  0  0  0  0999 V2000
   -3.5781   -3.7296    1.2702 H   0  0  0  0  0  0  0  0  0  0  0  0
   -3.5311   -2.7616    0.7732 C   0  0  0  0  0  0  0  0  0  0  0  0
   -4.2371   -2.0766    1.2382 H   0  0  0  0  0  0  0  0  0  0  0  0
   -3.7681   -2.8816   -0.2818 H   0  0  0  0  0  0  0  0  0  0  0  0
   -2.1321   -2.2086    0.9112 C   0  0  0  0  0  0  0  0  0  0  0  0
   -1.2751   -2.8426    1.5112 O   0  0  0  0  0  0  0  0  0  0  0  0
   -1.9041   -1.0186    0.3602 N   0  0  0  0  0  0  0  0  0  0  0  0
   -2.6671   -0.5416   -0.0988 H   0  0  0  0  0  0  0  0  0  0  0  0
   -0.6131   -0.3236    0.3832 C   0  0  1  0  0  0  0  0  0  0  0  0
    0.1346   -0.9625   -0.0894 H   0  0  0  0  0  0  0  0  0  0  0  0
   -0.7253    0.9751   -0.4365 C   0  0  0  0  0  0  0  0  0  0  0  0
    0.2804    1.3417   -0.6528 H   0  0  0  0  0  0  0  0  0  0  0  0
   -1.2212    0.7606   -1.3843 H   0  0  0  0  0  0  0  0  0  0  0  0
   -1.4995    2.0869    0.2808 C   0  0  0  0  0  0  0  0  0  0  0  0
   -1.3232    3.0326   -0.2309 H   0  0  0  0  0  0  0  0  0  0  0  0
   -2.5647    1.8572    0.2359 H   0  0  0  0  0  0  0  0  0  0  0  0
   -1.0318    2.2925    2.0182 S   0  0  0  0  0  0  0  0  0  0  0  0
   -1.6960    0.7521    2.7021 C   0  0  0  0  0  0  0  0  0  0  0  0
   -1.2196   -0.1008    2.2177 H   0  0  0  0  0  0  0  0  0  0  0  0
   -1.4943    0.7155    3.7730 H   0  0  0  0  0  0  0  0  0  0  0  0
   -2.7732    0.7113    2.5384 H   0  0  0  0  0  0  0  0  0  0  0  0
   -0.1711   -0.0594    1.8296 C   0  0  0  0  0  0  0  0  0  0  0  0
    0.9865   -0.2908    2.1726 O   0  0  0  0  0  0  0  0  0  0  0  0
   -1.0921    0.4156    2.6780 N   0  0  0  0  0  0  0  0  0  0  0  0
   -2.0168    0.5953    2.3206 H   0  0  0  0  0  0  0  0  0  0  0  0
   -0.8319    0.7034    4.0877 C   0  0  0  0  0  0  0  0  0  0  0  0
   -0.0192    1.4288    4.1710 H   0  0  0  0  0  0  0  0  0  0  0  0
   -1.7255    1.1088    4.5641 H   0  0  0  0  0  0  0  0  0  0  0  0
   -0.5319   -0.2118    4.6011 H   0  0  0  0  0  0  0  0  0  0  0  0
  5  6  2  0  0  0  0
  5  7  1  0  0  0  0
  2  3  1  0  0  0  0
  2  4  1  0  0  0  0
  2  5  1  0  0  0  0
  1  2  1  0  0  0  0
 22 23  2  0  0  0  0
 22 24  1  0  0  0  0
 18 19  1  0  0  0  0
 18 20  1  0  0  0  0
 18 21  1  0  0  0  0
 17 18  1  0  0  0  0
 14 15  1  0  0  0  0
 14 16  1  0  0  0  0
 14 17  1  0  0  0  0
 11 12  1  0  0  0  0
 11 13  1  0  0  0  0
 11 14  1  0  0  0  0
  9 10  1  0  0  0  0
  9 11  1  0  0  0  0
  9 22  1  0  0  0  0
  7  8  1  0  0  0  0
  7  9  1  0  0  0  0
 26 27  1  0  0  0  0
 26 28  1  0  0  0  0
 26 29  1  0  0  0  0
 24 25  1  0  0  0  0
 24 26  1  0  0  0  0
M  END
$$$$
default_name
  -OEChem-02102213163D

 29 28  0     1  0  0  0  0  0999 V2000
   -3.5781   -3.7296    1.2702 H   0  0  0  0  0  0  0  0  0  0  0  0
   -3.5311   -2.7616    0.7732 C   0  0  0  0  0  0  0  0  0  0  0  0
   -4.2371   -2.0766    1.2382 H   0  0  0  0  0  0  0  0  0  0  0  0
   -3.7681   -2.8816   -0.2818 H   0  0  0  0  0  0  0  0  0  0  0  0
   -2.1321   -2.2086    0.9112 C   0  0  0  0  0  0  0  0  0  0  0  0
   -1.2751   -2.8426    1.5112 O   0  0  0  0  0  0  0  0  0  0  0  0
   -1.9041   -1.0186    0.3602 N   0  0  0  0  0  0  0  0  0  0  0  0
   -2.6671   -0.5416   -0.0988 H   0  0  0  0  0  0  0  0  0  0  0  0
   -0.6131   -0.3236    0.3832 C   0  0  1  0  0  0  0  0  0  0  0  0
    0.1346   -0.9625   -0.0894 H   0  0  0  0  0  0  0  0  0  0  0  0
   -0.7253    0.9751   -0.4365 C   0  0  0  0  0  0  0  0  0  0  0  0
    0.2804    1.3417   -0.6528 H   0  0  0  0  0  0  0  0  0  0  0  0
   -1.2212    0.7606   -1.3843 H   0  0  0  0  0  0  0  0  0  0  0  0
   -1.4995    2.0869    0.2808 C   0  0  0  0  0  0  0  0  0  0  0  0
   -1.5459    2.9637   -0.3645 H   0  0  0  0  0  0  0  0  0  0  0  0
   -2.5150    1.7388    0.4730 H   0  0  0  0  0  0  0  0  0  0  0  0
   -0.7590    2.5872    1.8559 S   0  0  0  0  0  0  0  0  0  0  0  0
   -1.0777    1.0968    2.8352 C   0  0  0  0  0  0  0  0  0  0  0  0
   -0.5864    0.2405    2.3720 H   0  0  0  0  0  0  0  0  0  0  0  0
   -0.6838    1.2351    3.8424 H   0  0  0  0  0  0  0  0  0  0  0  0
   -2.1515    0.9163    2.8916 H   0  0  0  0  0  0  0  0  0  0  0  0
   -0.1711   -0.0594    1.8296 C   0  0  0  0  0  0  0  0  0  0  0  0
    0.9865   -0.2908    2.1726 O   0  0  0  0  0  0  0  0  0  0  0  0
   -1.0921    0.4156    2.6780 N   0  0  0  0  0  0  0  0  0  0  0  0
   -2.0168    0.5953    2.3206 H   0  0  0  0  0  0  0  0  0  0  0  0
   -0.8319    0.7034    4.0877 C   0  0  0  0  0  0  0  0  0  0  0  0
   -0.0192    1.4288    4.1710 H   0  0  0  0  0  0  0  0  0  0  0  0
   -1.7255    1.1088    4.5641 H   0  0  0  0  0  0  0  0  0  0  0  0
   -0.5319   -0.2118    4.6011 H   0  0  0  0  0  0  0  0  0  0  0  0
  5  6  2  0  0  0  0
  5  7  1  0  0  0  0
  2  3  1  0  0  0  0
  2  4  1  0  0  0  0
  2  5  1  0  0  0  0
  1  2  1  0  0  0  0
 22 23  2  0  0  0  0
 22 24  1  0  0  0  0
 18 19  1  0  0  0  0
 18 20  1  0  0  0  0
 18 21  1  0  0  0  0
 17 18  1  0  0  0  0
 14 15  1  0  0  0  0
 14 16  1  0  0  0  0
 14 17  1  0  0  0  0
 11 12  1  0  0  0  0
 11 13  1  0  0  0  0
 11 14  1  0  0  0  0
  9 10  1  0  0  0  0
  9 11  1  0  0  0  0
  9 22  1  0  0  0  0
  7  8  1  0  0  0  0
  7  9  1  0  0  0  0
 26 27  1  0  0  0  0
 26 28  1  0  0  0  0
 26 29  1  0  0  0  0
 24 25  1  0  0  0  0
 24 26  1  0  0  0  0
M  END
$$$$
default_name
  -OEChem-02102213163D

 29 28  0     1  0  0  0  0  0999 V2000
   -3.5781   -3.7296    1.2702 H   0  0  0  0  0  0  0  0  0  0  0  0
   -3.5311   -2.7616    0.7732 C   0  0  0  0  0  0  0  0  0  0  0  0
   -4.2371   -2.0766    1.2382 H   0  0  0  0  0  0  0  0  0  0  0  0
   -3.7681   -2.8816   -0.2818 H   0  0  0  0  0  0  0  0  0  0  0  0
   -2.1321   -2.2086    0.9112 C   0  0  0  0  0  0  0  0  0  0  0  0
   -1.2751   -2.8426    1.5112 O   0  0  0  0  0  0  0  0  0  0  0  0
   -1.9041   -1.0186    0.3602 N   0  0  0  0  0  0  0  0  0  0  0  0
   -2.6671   -0.5416   -0.0988 H   0  0  0  0  0  0  0  0  0  0  0  0
   -0.6131   -0.3236    0.3832 C   0  0  1  0  0  0  0  0  0  0  0  0
    0.1346   -0.9625   -0.0894 H   0  0  0  0  0  0  0  0  0  0  0  0
   -0.7253    0.9751   -0.4365 C   0  0  0  0  0  0  0  0  0  0  0  0
    0.2804    1.3417   -0.6528 H   0  0  0  0  0  0  0  0  0  0  0  0
   -1.2212    0.7606   -1.3843 H   0  0  0  0  0  0  0  0  0  0  0  0
   -1.4995    2.0869    0.2808 C   0  0  0  0  0  0  0  0  0  0  0  0
   -1.7778    2.8527   -0.4427 H   0  0  0  0  0  0  0  0  0  0  0  0
   -2.4082    1.6615    0.7082 H   0  0  0  0  0  0  0  0  0  0  0  0
   -0.5616    2.8836    1.6095 S   0  0  0  0  0  0  0  0  0  0  0  0
   -0.4972    1.5220    2.8026 C   0  0  0  0  0  0  0  0  0  0  0  0
    0.0128    0.6671    2.3576 H   0  0  0  0  0  0  0  0  0  0  0  0
    0.0492    1.8441    3.6895 H   0  0  0  0  0  0  0  0  0  0  0  0
   -1.5095    1.2359    3.0892 H   0  0  0  0  0  0  0  0  0  0  0  0
   -0.1711   -0.0594    1.8296 C   0  0  0  0  0  0  0  0  0  0  0  0
    0.9865   -0.2908    2.1726 O   0  0  0  0  0  0  0  0  0  0  0  0
   -1.0921    0.4156    2.6780 N   0  0  0  0  0  0  0  0  0  0  0  0
   -2.0168    0.5953    2.3206 H   0  0  0  0  0  0  0  0  0  0  0  0
   -0.8319    0.7034    4.0877 C   0  0  0  0  0  0  0  0  0  0  0  0
   -0.0192    1.4288    4.1710 H   0  0  0  0  0  0  0  0  0  0  0  0
   -1.7255    1.1088    4.5641 H   0  0  0  0  0  0  0  0  0  0  0  0
   -0.5319   -0.2118    4.6011 H   0  0  0  0  0  0  0  0  0  0  0  0
  5  6  2  0  0  0  0
  5  7  1  0  0  0  0
  2  3  1  0  0  0  0
  2  4  1  0  0  0  0
  2  5  1  0  0  0  0
  1  2  1  0  0  0  0
 22 23  2  0  0  0  0
 22 24  1  0  0  0  0
 18 19  1  0  0  0  0
 18 20  1  0  0  0  0
 18 21  1  0  0  0  0
 17 18  1  0  0  0  0
 14 15  1  0  0  0  0
 14 16  1  0  0  0  0
 14 17  1  0  0  0  0
 11 12  1  0  0  0  0
 11 13  1  0  0  0  0
 11 14  1  0  0  0  0
  9 10  1  0  0  0  0
  9 11  1  0  0  0  0
  9 22  1  0  0  0  0
  7  8  1  0  0  0  0
  7  9  1  0  0  0  0
 26 27  1  0  0  0  0
 26 28  1  0  0  0  0
 26 29  1  0  0  0  0
 24 25  1  0  0  0  0
 24 26  1  0  0  0  0
M  END
$$$$
default_name
  -OEChem-02102213163D

 29 28  0     1  0  0  0  0  0999 V2000
   -3.5781   -3.7296    1.2702 H   0  0  0  0  0  0  0  0  0  0  0  0
   -3.5311   -2.7616    0.7732 C   0  0  0  0  0  0  0  0  0  0  0  0
   -4.2371   -2.0766    1.2382 H   0  0  0  0  0  0  0  0  0  0  0  0
   -3.7681   -2.8816   -0.2818 H   0  0  0  0  0  0  0  0  0  0  0  0
   -2.1321   -2.2086    0.9112 C   0  0  0  0  0  0  0  0  0  0  0  0
   -1.2751   -2.8426    1.5112 O   0  0  0  0  0  0  0  0  0  0  0  0
   -1.9041   -1.0186    0.3602 N   0  0  0  0  0  0  0  0  0  0  0  0
   -2.6671   -0.5416   -0.0988 H   0  0  0  0  0  0  0  0  0  0  0  0
   -0.6131   -0.3236    0.3832 C   0  0  1  0  0  0  0  0  0  0  0  0
    0.1346   -0.9625   -0.0894 H   0  0  0  0  0  0  0  0  0  0  0  0
   -0.7253    0.9751   -0.4365 C   0  0  0  0  0  0  0  0  0  0  0  0
    0.2804    1.3417   -0.6528 H   0  0  0  0  0  0  0  0  0  0  0  0
   -1.2212    0.7606   -1.3843 H   0  0  0  0  0  0  0  0  0  0  0  0
   -1.4995    2.0869    0.2808 C   0  0  0  0  0  0  0  0  0  0  0  0
   -2.0030    2.7071   -0.4601 H   0  0  0  0  0  0  0  0  0  0  0  0
   -2.2515    1.6305    0.9254 H   0  0  0  0  0  0  0  0  0  0  0  0
   -0.4531    3.1617    1.2956 S   0  0  0  0  0  0  0  0  0  0  0  0
    0.0059    1.9988    2.6066 C   0  0  0  0  0  0  0  0  0  0  0  0
    0.5372    1.1497    2.1754 H   0  0  0  0  0  0  0  0  0  0  0  0
    0.6547    2.5012    3.3245 H   0  0  0  0  0  0  0  0  0  0  0  0
   -0.8910    1.6481    3.1178 H   0  0  0  0  0  0  0  0  0  0  0  0
   -0.1711   -0.0594    1.8296 C   0  0  0  0  0  0  0  0  0  0  0  0
    0.9865   -0.2908    2.1726 O   0  0  0  0  0  0  0  0  0  0  0  0
   -1.0921    0.4156    2.6780 N   0  0  0  0  0  0  0  0  0  0  0  0
   -2.0168    0.5953    2.3206 H   0  0  0  0  0  0  0  0  0  0  0  0
   -0.8319    0.7034    4.0877 C   0  0  0  0  0  0  0  0  0  0  0  0
   -0.0192    1.4288    4.1710 H   0  0  0  0  0  0  0  0  0  0  0  0
   -1.7255    1.1088    4.5641 H   0  0  0  0  0  0  0  0  0  0  0  0
   -0.5319   -0.2118    4.6011 H   0  0  0  0  0  0  0  0  0  0  0  0
  5  6  2  0  0  0  0
  5  7  1  0  0  0  0
  2  3  1  0  0  0  0
  2  4  1  0  0  0  0
  2  5  1  0  0  0  0
  1  2  1  0  0  0  0
 22 23  2  0  0  0  0
 22 24  1  0  0  0  0
 18 19  1  0  0  0  0
 18 20  1  0  0  0  0
 18 21  1  0  0  0  0
 17 18  1  0  0  0  0
 14 15  1  0  0  0  0
 14 16  1  0  0  0  0
 14 17  1  0  0  0  0
 11 12  1  0  0  0  0
 11 13  1  0  0  0  0
 11 14  1  0  0  0  0
  9 10  1  0  0  0  0
  9 11  1  0  0  0  0
  9 22  1  0  0  0  0
  7  8  1  0  0  0  0
  7  9  1  0  0  0  0
 26 27  1  0  0  0  0
 26 28  1  0  0  0  0
 26 29  1  0  0  0  0
 24 25  1  0  0  0  0
 24 26  1  0  0  0  0
M  END
$$$$
default_name
  -OEChem-02102213163D

 29 28  0     1  0  0  0  0  0999 V2000
   -3.5781   -3.7296    1.2702 H   0  0  0  0  0  0  0  0  0  0  0  0
   -3.5311   -2.7616    0.7732 C   0  0  0  0  0  0  0  0  0  0  0  0
   -4.2371   -2.0766    1.2382 H   0  0  0  0  0  0  0  0  0  0  0  0
   -3.7681   -2.8816   -0.2818 H   0  0  0  0  0  0  0  0  0  0  0  0
   -2.1321   -2.2086    0.9112 C   0  0  0  0  0  0  0  0  0  0  0  0
   -1.2751   -2.8426    1.5112 O   0  0  0  0  0  0  0  0  0  0  0  0
   -1.9041   -1.0186    0.3602 N   0  0  0  0  0  0  0  0  0  0  0  0
   -2.6671   -0.5416   -0.0988 H   0  0  0  0  0  0  0  0  0  0  0  0
   -0.6131   -0.3236    0.3832 C   0  0  1  0  0  0  0  0  0  0  0  0
    0.1346   -0.9625   -0.0894 H   0  0  0  0  0  0  0  0  0  0  0  0
   -0.7253    0.9751   -0.4365 C   0  0  0  0  0  0  0  0  0  0  0  0
    0.2804    1.3417   -0.6528 H   0  0  0  0  0  0  0  0  0  0  0  0
   -1.2212    0.7606   -1.3843 H   0  0  0  0  0  0  0  0  0  0  0  0
   -1.4995    2.0869    0.2808 C   0  0  0  0  0  0  0  0  0  0  0  0
   -2.2062    2.5370   -0.4157 H   0  0  0  0  0  0  0  0  0  0  0  0
   -2.0556    1.6478    1.1098 H   0  0  0  0  0  0  0  0  0  0  0  0
   -0.4409    3.4023    0.9357 S   0  0  0  0  0  0  0  0  0  0  0  0
    0.3974    2.4946    2.2604 C   0  0  0  0  0  0  0  0  0  0  0  0
    0.9511    1.6556    1.8380 H   0  0  0  0  0  0  0  0  0  0  0  0
    1.0916    3.1615    2.7724 H   0  0  0  0  0  0  0  0  0  0  0  0
   -0.3381    2.1249    2.9755 H   0  0  0  0  0  0  0  0  0  0  0  0
   -0.1711   -0.0594    1.8296 C   0  0  0  0  0  0  0  0  0  0  0  0
    0.9865   -0.2908    2.1726 O   0  0  0  0  0  0  0  0  0  0  0  0
   -1.0921    0.4156    2.6780 N   0  0  0  0  0  0  0  0  0  0  0  0
   -2.0168    0.5953    2.3206 H   0  0  0  0  0  0  0  0  0  0  0  0
   -0.8319    0.7034    4.0877 C   0  0  0  0  0  0  0  0  0  0  0  0
   -0.0192    1.4288    4.1710 H   0  0  0  0  0  0  0  0  0  0  0  0
   -1.7255    1.1088    4.5641 H   0  0  0  0  0  0  0  0  0  0  0  0
   -0.5319   -0.2118    4.6011 H   0  0  0  0  0  0  0  0  0  0  0  0
  5  6  2  0  0  0  0
  5  7  1  0  0  0  0
  2  3  1  0  0  0  0
  2  4  1  0  0  0  0
  2  5  1  0  0  0  0
  1  2  1  0  0  0  0
 22 23  2  0  0  0  0
 22 24  1  0  0  0  0
 18 19  1  0  0  0  0
 18 20  1  0  0  0  0
 18 21  1  0  0  0  0
 17 18  1  0  0  0  0
 14 15  1  0  0  0  0
 14 16  1  0  0  0  0
 14 17  1  0  0  0  0
 11 12  1  0  0  0  0
 11 13  1  0  0  0  0
 11 14  1  0  0  0  0
  9 10  1  0  0  0  0
  9 11  1  0  0  0  0
  9 22  1  0  0  0  0
  7  8  1  0  0  0  0
  7  9  1  0  0  0  0
 26 27  1  0  0  0  0
 26 28  1  0  0  0  0
 26 29  1  0  0  0  0
 24 25  1  0  0  0  0
 24 26  1  0  0  0  0
M  END
$$$$
default_name
  -OEChem-02102213163D

 29 28  0     1  0  0  0  0  0999 V2000
   -3.5781   -3.7296    1.2702 H   0  0  0  0  0  0  0  0  0  0  0  0
   -3.5311   -2.7616    0.7732 C   0  0  0  0  0  0  0  0  0  0  0  0
   -4.2371   -2.0766    1.2382 H   0  0  0  0  0  0  0  0  0  0  0  0
   -3.7681   -2.8816   -0.2818 H   0  0  0  0  0  0  0  0  0  0  0  0
   -2.1321   -2.2086    0.9112 C   0  0  0  0  0  0  0  0  0  0  0  0
   -1.2751   -2.8426    1.5112 O   0  0  0  0  0  0  0  0  0  0  0  0
   -1.9041   -1.0186    0.3602 N   0  0  0  0  0  0  0  0  0  0  0  0
   -2.6671   -0.5416   -0.0988 H   0  0  0  0  0  0  0  0  0  0  0  0
   -0.6131   -0.3236    0.3832 C   0  0  1  0  0  0  0  0  0  0  0  0
    0.1346   -0.9625   -0.0894 H   0  0  0  0  0  0  0  0  0  0  0  0
   -0.7253    0.9751   -0.4365 C   0  0  0  0  0  0  0  0  0  0  0  0
    0.2804    1.3417   -0.6528 H   0  0  0  0  0  0  0  0  0  0  0  0
   -1.2212    0.7606   -1.3843 H   0  0  0  0  0  0  0  0  0  0  0  0
   -1.4995    2.0869    0.2808 C   0  0  0  0  0  0  0  0  0  0  0  0
   -2.3735    2.3539   -0.3125 H   0  0  0  0  0  0  0  0  0  0  0  0
   -1.8339    1.7125    1.2490 H   0  0  0  0  0  0  0  0  0  0  0  0
   -0.5258    3.5892    0.5543 S   0  0  0  0  0  0  0  0  0  0  0  0
    0.6504    2.9757    1.7878 C   0  0  0  0  0  0  0  0  0  0  0  0
    1.2263    2.1503    1.3682 H   0  0  0  0  0  0  0  0  0  0  0  0
    1.3299    3.7801    2.0708 H   0  0  0  0  0  0  0  0  0  0  0  0
    0.1115    2.6338    2.6719 H   0  0  0  0  0  0  0  0  0  0  0  0
   -0.1711   -0.0594    1.8296 C   0  0  0  0  0  0  0  0  0  0  0  0
    0.9865   -0.2908    2.1726 O   0  0  0  0  0  0  0  0  0  0  0  0
   -1.0921    0.4156    2.6780 N   0  0  0  0  0  0  0  0  0  0  0  0
   -2.0168    0.5953    2.3206 H   0  0  0  0  0  0  0  0  0  0  0  0
   -0.8319    0.7034    4.0877 C   0  0  0  0  0  0  0  0  0  0  0  0
   -0.0192    1.4288    4.1710 H   0  0  0  0  0  0  0  0  0  0  0  0
   -1.7255    1.1088    4.5641 H   0  0  0  0  0  0  0  0  0  0  0  0
   -0.5319   -0.2118    4.6011 H   0  0  0  0  0  0  0  0  0  0  0  0
  5  6  2  0  0  0  0
  5  7  1  0  0  0  0
  2  3  1  0  0  0  0
  2  4  1  0  0  0  0
  2  5  1  0  0  0  0
  1  2  1  0  0  0  0
 22 23  2  0  0  0  0
 22 24  1  0  0  0  0
 18 19  1  0  0  0  0
 18 20  1  0  0  0  0
 18 21  1  0  0  0  0
 17 18  1  0  0  0  0
 14 15  1  0  0  0  0
 14 16  1  0  0  0  0
 14 17  1  0  0  0  0
 11 12  1  0  0  0  0
 11 13  1  0  0  0  0
 11 14  1  0  0  0  0
  9 10  1  0  0  0  0
  9 11  1  0  0  0  0
  9 22  1  0  0  0  0
  7  8  1  0  0  0  0
  7  9  1  0  0  0  0
 26 27  1  0  0  0  0
 26 28  1  0  0  0  0
 26 29  1  0  0  0  0
 24 25  1  0  0  0  0
 24 26  1  0  0  0  0
M  END
$$$$
default_name
  -OEChem-02102213163D

 29 28  0     1  0  0  0  0  0999 V2000
   -3.5781   -3.7296    1.2702 H   0  0  0  0  0  0  0  0  0  0  0  0
   -3.5311   -2.7616    0.7732 C   0  0  0  0  0  0  0  0  0  0  0  0
   -4.2371   -2.0766    1.2382 H   0  0  0  0  0  0  0  0  0  0  0  0
   -3.7681   -2.8816   -0.2818 H   0  0  0  0  0  0  0  0  0  0  0  0
   -2.1321   -2.2086    0.9112 C   0  0  0  0  0  0  0  0  0  0  0  0
   -1.2751   -2.8426    1.5112 O   0  0  0  0  0  0  0  0  0  0  0  0
   -1.9041   -1.0186    0.3602 N   0  0  0  0  0  0  0  0  0  0  0  0
   -2.6671   -0.5416   -0.0988 H   0  0  0  0  0  0  0  0  0  0  0  0
   -0.6131   -0.3236    0.3832 C   0  0  1  0  0  0  0  0  0  0  0  0
    0.1346   -0.9625   -0.0894 H   0  0  0  0  0  0  0  0  0  0  0  0
   -0.7253    0.9751   -0.4365 C   0  0  0  0  0  0  0  0  0  0  0  0
    0.2804    1.3417   -0.6528 H   0  0  0  0  0  0  0  0  0  0  0  0
   -1.2212    0.7606   -1.3843 H   0  0  0  0  0  0  0  0  0  0  0  0
   -1.4995    2.0869    0.2808 C   0  0  0  0  0  0  0  0  0  0  0  0
   -2.4936    2.1702   -0.1574 H   0  0  0  0  0  0  0  0  0  0  0  0
   -1.6015    1.8199    1.3333 H   0  0  0  0  0  0  0  0  0  0  0  0
   -0.7021    3.7096    0.1774 S   0  0  0  0  0  0  0  0  0  0  0  0
    0.7479    3.4092    1.2210 C   0  0  0  0  0  0  0  0  0  0  0  0
    1.3440    2.6000    0.7980 H   0  0  0  0  0  0  0  0  0  0  0  0
    1.3536    4.3147    1.2675 H   0  0  0  0  0  0  0  0  0  0  0  0
    0.4272    3.1401    2.2277 H   0  0  0  0  0  0  0  0  0  0  0  0
   -0.1711   -0.0594    1.8296 C   0  0  0  0  0  0  0  0  0  0  0  0
    0.9865   -0.2908    2.1726 O   0  0  0  0  0  0  0  0  0  0  0  0
   -1.0921    0.4156    2.6780 N   0  0  0  0  0  0  0  0  0  0  0  0
   -2.0168    0.5953    2.3206 H   0  0  0  0  0  0  0  0  0  0  0  0
   -0.8319    0.7034    4.0877 C   0  0  0  0  0  0  0  0  0  0  0  0
   -0.0192    1.4288    4.1710 H   0  0  0  0  0  0  0  0  0  0  0  0
   -1.7255    1.1088    4.5641 H   0  0  0  0  0  0  0  0  0  0  0  0
   -0.5319   -0.2118    4.6011 H   0  0  0  0  0  0  0  0  0  0  0  0
  5  6  2  0  0  0  0
  5  7  1  0  0  0  0
  2  3  1  0  0  0  0
  2  4  1  0  0  0  0
  2  5  1  0  0  0  0
  1  2  1  0  0  0  0
 22 23  2  0  0  0  0
 22 24  1  0  0  0  0
 18 19  1  0  0  0  0
 18 20  1  0  0  0  0
 18 21  1  0  0  0  0
 17 18  1  0  0  0  0
 14 15  1  0  0  0  0
 14 16  1  0  0  0  0
 14 17  1  0  0  0  0
 11 12  1  0  0  0  0
 11 13  1  0  0  0  0
 11 14  1  0  0  0  0
  9 10  1  0  0  0  0
  9 11  1  0  0  0  0
  9 22  1  0  0  0  0
  7  8  1  0  0  0  0
  7  9  1  0  0  0  0
 26 27  1  0  0  0  0
 26 28  1  0  0  0  0
 26 29  1  0  0  0  0
 24 25  1  0  0  0  0
 24 26  1  0  0  0  0
M  END
$$$$
default_name
  -OEChem-02102213163D

 29 28  0     1  0  0  0  0  0999 V2000
   -3.5781   -3.7296    1.2702 H   0  0  0  0  0  0  0  0  0  0  0  0
   -3.5311   -2.7616    0.7732 C   0  0  0  0  0  0  0  0  0  0  0  0
   -4.2371   -2.0766    1.2382 H   0  0  0  0  0  0  0  0  0  0  0  0
   -3.7681   -2.8816   -0.2818 H   0  0  0  0  0  0  0  0  0  0  0  0
   -2.1321   -2.2086    0.9112 C   0  0  0  0  0  0  0  0  0  0  0  0
   -1.2751   -2.8426    1.5112 O   0  0  0  0  0  0  0  0  0  0  0  0
   -1.9041   -1.0186    0.3602 N   0  0  0  0  0  0  0  0  0  0  0  0
   -2.6671   -0.5416   -0.0988 H   0  0  0  0  0  0  0  0  0  0  0  0
   -0.6131   -0.3236    0.3832 C   0  0  1  0  0  0  0  0  0  0  0  0
    0.1346   -0.9625   -0.0894 H   0  0  0  0  0  0  0  0  0  0  0  0
   -0.7253    0.9751   -0.4365 C   0  0  0  0  0  0  0  0  0  0  0  0
    0.2804    1.3417   -0.6528 H   0  0  0  0  0  0  0  0  0  0  0  0
   -1.2212    0.7606   -1.3843 H   0  0  0  0  0  0  0  0  0  0  0  0
   -1.4995    2.0869    0.2808 C   0  0  0  0  0  0  0  0  0  0  0  0
   -2.5582    1.9986    0.0390 H   0  0  0  0  0  0  0  0  0  0  0  0
   -1.3741    1.9629    1.3570 H   0  0  0  0  0  0  0  0  0  0  0  0
   -0.9577    3.7553   -0.1693 S   0  0  0  0  0  0  0  0  0  0  0  0
    0.6832    3.7657    0.5984 C   0  0  0  0  0  0  0  0  0  0  0  0
    1.2962    2.9742    0.1665 H   0  0  0  0  0  0  0  0  0  0  0  0
    1.1608    4.7290    0.4173 H   0  0  0  0  0  0  0  0  0  0  0  0
    0.5874    3.6093    1.6732 H   0  0  0  0  0  0  0  0  0  0  0  0
   -0.1711   -0.0594    1.8296 C   0  0  0  0  0  0  0  0  0  0  0  0
    0.9865   -0.2908    2.1726 O   0  0  0  0  0  0  0  0  0  0  0  0
   -1.0921    0.4156    2.6780 N   0  0  0  0  0  0  0  0  0  0  0  0
   -2.0168    0.5953    2.3206 H   0  0  0  0  0  0  0  0  0  0  0  0
   -0.8319    0.7034    4.0877 C   0  0  0  0  0  0  0  0  0  0  0  0
   -0.0192    1.4288    4.1710 H   0  0  0  0  0  0  0  0  0  0  0  0
   -1.7255    1.1088    4.5641 H   0  0  0  0  0  0  0  0  0  0  0  0
   -0.5319   -0.2118    4.6011 H   0  0  0  0  0  0  0  0  0  0  0  0
  5  6  2  0  0  0  0
  5  7  1  0  0  0  0
  2  3  1  0  0  0  0
  2  4  1  0  0  0  0
  2  5  1  0  0  0  0
  1  2  1  0  0  0  0
 22 23  2  0  0  0  0
 22 24  1  0  0  0  0
 18 19  1  0  0  0  0
 18 20  1  0  0  0  0
 18 21  1  0  0  0  0
 17 18  1  0  0  0  0
 14 15  1  0  0  0  0
 14 16  1  0  0  0  0
 14 17  1  0  0  0  0
 11 12  1  0  0  0  0
 11 13  1  0  0  0  0
 11 14  1  0  0  0  0
  9 10  1  0  0  0  0
  9 11  1  0  0  0  0
  9 22  1  0  0  0  0
  7  8  1  0  0  0  0
  7  9  1  0  0  0  0
 26 27  1  0  0  0  0
 26 28  1  0  0  0  0
 26 29  1  0  0  0  0
 24 25  1  0  0  0  0
 24 26  1  0  0  0  0
M  END
$$$$
default_name
  -OEChem-02102213163D

 29 28  0     1  0  0  0  0  0999 V2000
   -3.5781   -3.7296    1.2702 H   0  0  0  0  0  0  0  0  0  0  0  0
   -3.5311   -2.7616    0.7732 C   0  0  0  0  0  0  0  0  0  0  0  0
   -4.2371   -2.0766    1.2382 H   0  0  0  0  0  0  0  0  0  0  0  0
   -3.7681   -2.8816   -0.2818 H   0  0  0  0  0  0  0  0  0  0  0  0
   -2.1321   -2.2086    0.9112 C   0  0  0  0  0  0  0  0  0  0  0  0
   -1.2751   -2.8426    1.5112 O   0  0  0  0  0  0  0  0  0  0  0  0
   -1.9041   -1.0186    0.3602 N   0  0  0  0  0  0  0  0  0  0  0  0
   -2.6671   -0.5416   -0.0988 H   0  0  0  0  0  0  0  0  0  0  0  0
   -0.6131   -0.3236    0.3832 C   0  0  1  0  0  0  0  0  0  0  0  0
    0.1346   -0.9625   -0.0894 H   0  0  0  0  0  0  0  0  0  0  0  0
   -0.7253    0.9751   -0.4365 C   0  0  0  0  0  0  0  0  0  0  0  0
    0.2804    1.3417   -0.6528 H   0  0  0  0  0  0  0  0  0  0  0  0
   -1.2212    0.7606   -1.3843 H   0  0  0  0  0  0  0  0  0  0  0  0
   -1.4995    2.0869    0.2808 C   0  0  0  0  0  0  0  0  0  0  0  0
   -2.5630    1.8506    0.2632 H   0  0  0  0  0  0  0  0  0  0  0  0
   -1.1673    2.1316    1.3186 H   0  0  0  0  0  0  0  0  0  0  0  0
   -1.2752    3.7232   -0.4622 S   0  0  0  0  0  0  0  0  0  0  0  0
    0.4606    4.0209   -0.0374 C   0  0  0  0  0  0  0  0  0  0  0  0
    1.0862    3.2472   -0.4835 H   0  0  0  0  0  0  0  0  0  0  0  0
    0.7649    4.9947   -0.4219 H   0  0  0  0  0  0  0  0  0  0  0  0
    0.5812    4.0095    1.0462 H   0  0  0  0  0  0  0  0  0  0  0  0
   -0.1711   -0.0594    1.8296 C   0  0  0  0  0  0  0  0  0  0  0  0
    0.9865   -0.2908    2.1726 O   0  0  0  0  0  0  0  0  0  0  0  0
   -1.0921    0.4156    2.6780 N   0  0  0  0  0  0  0  0  0  0  0  0
   -2.0168    0.5953    2.3206 H   0  0  0  0  0  0  0  0  0  0  0  0
   -0.8319    0.7034    4.0877 C   0  0  0  0  0  0  0  0  0  0  0  0
   -0.0192    1.4288    4.1710 H   0  0  0  0  0  0  0  0  0  0  0  0
   -1.7255    1.1088    4.5641 H   0  0  0  0  0  0  0  0  0  0  0  0
   -0.5319   -0.2118    4.6011 H   0  0  0  0  0  0  0  0  0  0  0  0
  5  6  2  0  0  0  0
  5  7  1  0  0  0  0
  2  3  1  0  0  0  0
  2  4  1  0  0  0  0
  2  5  1  0  0  0  0
  1  2  1  0  0  0  0
 22 23  2  0  0  0  0
 22 24  1  0  0  0  0
 18 19  1  0  0  0  0
 18 20  1  0  0  0  0
 18 21  1  0  0  0  0
 17 18  1  0  0  0  0
 14 15  1  0  0  0  0
 14 16  1  0  0  0  0
 14 17  1  0  0  0  0
 11 12  1  0  0  0  0
 11 13  1  0  0  0  0
 11 14  1  0  0  0  0
  9 10  1  0  0  0  0
  9 11  1  0  0  0  0
  9 22  1  0  0  0  0
  7  8  1  0  0  0  0
  7  9  1  0  0  0  0
 26 27  1  0  0  0  0
 26 28  1  0  0  0  0
 26 29  1  0  0  0  0
 24 25  1  0  0  0  0
 24 26  1  0  0  0  0
M  END
$$$$
default_name
  -OEChem-02102213163D

 29 28  0     1  0  0  0  0  0999 V2000
   -3.5781   -3.7296    1.2702 H   0  0  0  0  0  0  0  0  0  0  0  0
   -3.5311   -2.7616    0.7732 C   0  0  0  0  0  0  0  0  0  0  0  0
   -4.2371   -2.0766    1.2382 H   0  0  0  0  0  0  0  0  0  0  0  0
   -3.7681   -2.8816   -0.2818 H   0  0  0  0  0  0  0  0  0  0  0  0
   -2.1321   -2.2086    0.9112 C   0  0  0  0  0  0  0  0  0  0  0  0
   -1.2751   -2.8426    1.5112 O   0  0  0  0  0  0  0  0  0  0  0  0
   -1.9041   -1.0186    0.3602 N   0  0  0  0  0  0  0  0  0  0  0  0
   -2.6671   -0.5416   -0.0988 H   0  0  0  0  0  0  0  0  0  0  0  0
   -0.6131   -0.3236    0.3832 C   0  0  1  0  0  0  0  0  0  0  0  0
    0.1346   -0.9625   -0.0894 H   0  0  0  0  0  0  0  0  0  0  0  0
   -0.7253    0.9751   -0.4365 C   0  0  0  0  0  0  0  0  0  0  0  0
    0.2485    1.1966   -0.8783 H   0  0  0  0  0  0  0  0  0  0  0  0
   -1.4416    0.8287   -1.2462 H   0  0  0  0  0  0  0  0  0  0  0  0
   -1.1649    2.1869    0.3933 C   0  0  0  0  0  0  0  0  0  0  0  0
   -2.1382    1.9816    0.8378 H   0  0  0  0  0  0  0  0  0  0  0  0
   -0.4404    2.3452    1.1930 H   0  0  0  0  0  0  0  0  0  0  0  0
   -1.2976    3.7156   -0.5686 S   0  0  0  0  0  0  0  0  0  0  0  0
    0.4539    4.0105   -0.9247 C   0  0  0  0  0  0  0  0  0  0  0  0
    0.8607    3.1710   -1.4894 H   0  0  0  0  0  0  0  0  0  0  0  0
    0.5543    4.9221   -1.5144 H   0  0  0  0  0  0  0  0  0  0  0  0
    1.0050    4.1248    0.0091 H   0  0  0  0  0  0  0  0  0  0  0  0
   -0.1711   -0.0594    1.8296 C   0  0  0  0  0  0  0  0  0  0  0  0
    0.9865   -0.2908    2.1726 O   0  0  0  0  0  0  0  0  0  0  0  0
   -1.0921    0.4156    2.6780 N   0  0  0  0  0  0  0  0  0  0  0  0
   -2.0168    0.5953    2.3206 H   0  0  0  0  0  0  0  0  0  0  0  0
   -0.8319    0.7034    4.0877 C   0  0  0  0  0  0  0  0  0  0  0  0
   -0.0192    1.4288    4.1710 H   0  0  0  0  0  0  0  0  0  0  0  0
   -1.7255    1.1088    4.5641 H   0  0  0  0  0  0  0  0  0  0  0  0
   -0.5319   -0.2118    4.6011 H   0  0  0  0  0  0  0  0  0  0  0  0
  5  6  2  0  0  0  0
  5  7  1  0  0  0  0
  2  3  1  0  0  0  0
  2  4  1  0  0  0  0
  2  5  1  0  0  0  0
  1  2  1  0  0  0  0
 22 23  2  0  0  0  0
 22 24  1  0  0  0  0
 18 19  1  0  0  0  0
 18 20  1  0  0  0  0
 18 21  1  0  0  0  0
 17 18  1  0  0  0  0
 14 15  1  0  0  0  0
 14 16  1  0  0  0  0
 14 17  1  0  0  0  0
 11 12  1  0  0  0  0
 11 13  1  0  0  0  0
 11 14  1  0  0  0  0
  9 10  1  0  0  0  0
  9 11  1  0  0  0  0
  9 22  1  0  0  0  0
  7  8  1  0  0  0  0
  7  9  1  0  0  0  0
 26 27  1  0  0  0  0
 26 28  1  0  0  0  0
 26 29  1  0  0  0  0
 24 25  1  0  0  0  0
 24 26  1  0  0  0  0
M  END
$$$$
default_name
  -OEChem-02102213163D

 29 28  0     1  0  0  0  0  0999 V2000
   -3.5781   -3.7296    1.2702 H   0  0  0  0  0  0  0  0  0  0  0  0
   -3.5311   -2.7616    0.7732 C   0  0  0  0  0  0  0  0  0  0  0  0
   -4.2371   -2.0766    1.2382 H   0  0  0  0  0  0  0  0  0  0  0  0
   -3.7681   -2.8816   -0.2818 H   0  0  0  0  0  0  0  0  0  0  0  0
   -2.1321   -2.2086    0.9112 C   0  0  0  0  0  0  0  0  0  0  0  0
   -1.2751   -2.8426    1.5112 O   0  0  0  0  0  0  0  0  0  0  0  0
   -1.9041   -1.0186    0.3602 N   0  0  0  0  0  0  0  0  0  0  0  0
   -2.6671   -0.5416   -0.0988 H   0  0  0  0  0  0  0  0  0  0  0  0
   -0.6131   -0.3236    0.3832 C   0  0  1  0  0  0  0  0  0  0  0  0
    0.1346   -0.9625   -0.0894 H   0  0  0  0  0  0  0  0  0  0  0  0
   -0.7253    0.9751   -0.4365 C   0  0  0  0  0  0  0  0  0  0  0  0
    0.2485    1.1966   -0.8783 H   0  0  0  0  0  0  0  0  0  0  0  0
   -1.4416    0.8287   -1.2462 H   0  0  0  0  0  0  0  0  0  0  0  0
   -1.1649    2.1869    0.3933 C   0  0  0  0  0  0  0  0  0  0  0  0
   -1.9888    1.8948    1.0436 H   0  0  0  0  0  0  0  0  0  0  0  0
   -0.3271    2.5100    1.0123 H   0  0  0  0  0  0  0  0  0  0  0  0
   -1.7111    3.5930   -0.6087 S   0  0  0  0  0  0  0  0  0  0  0  0
   -0.1289    4.0844   -1.3415 C   0  0  0  0  0  0  0  0  0  0  0  0
    0.2767    3.2594   -1.9279 H   0  0  0  0  0  0  0  0  0  0  0  0
   -0.2839    4.9453   -1.9924 H   0  0  0  0  0  0  0  0  0  0  0  0
    0.5742    4.3531   -0.5526 H   0  0  0  0  0  0  0  0  0  0  0  0
   -0.1711   -0.0594    1.8296 C   0  0  0  0  0  0  0  0  0  0  0  0
    0.9865   -0.2908    2.1726 O   0  0  0  0  0  0  0  0  0  0  0  0
   -1.0921    0.4156    2.6780 N   0  0  0  0  0  0  0  0  0  0  0  0
   -2.0168    0.5953    2.3206 H   0  0  0  0  0  0  0  0  0  0  0  0
   -0.8319    0.7034    4.0877 C   0  0  0  0  0  0  0  0  0  0  0  0
   -0.0192    1.4288    4.1710 H   0  0  0  0  0  0  0  0  0  0  0  0
   -1.7255    1.1088    4.5641 H   0  0  0  0  0  0  0  0  0  0  0  0
   -0.5319   -0.2118    4.6011 H   0  0  0  0  0  0  0  0  0  0  0  0
  5  6  2  0  0  0  0
  5  7  1  0  0  0  0
  2  3  1  0  0  0  0
  2  4  1  0  0  0  0
  2  5  1  0  0  0  0
  1  2  1  0  0  0  0
 22 23  2  0  0  0  0
 22 24  1  0  0  0  0
 18 19  1  0  0  0  0
 18 20  1  0  0  0  0
 18 21  1  0  0  0  0
 17 18  1  0  0  0  0
 14 15  1  0  0  0  0
 14 16  1  0  0  0  0
 14 17  1  0  0  0  0
 11 12  1  0  0  0  0
 11 13  1  0  0  0  0
 11 14  1  0  0  0  0
  9 10  1  0  0  0  0
  9 11  1  0  0  0  0
  9 22  1  0  0  0  0
  7  8  1  0  0  0  0
  7  9  1  0  0  0  0
 26 27  1  0  0  0  0
 26 28  1  0  0  0  0
 26 29  1  0  0  0  0
 24 25  1  0  0  0  0
 24 26  1  0  0  0  0
M  END
$$$$
default_name
  -OEChem-02102213163D

 29 28  0     1  0  0  0  0  0999 V2000
   -3.5781   -3.7296    1.2702 H   0  0  0  0  0  0  0  0  0  0  0  0
   -3.5311   -2.7616    0.7732 C   0  0  0  0  0  0  0  0  0  0  0  0
   -4.2371   -2.0766    1.2382 H   0  0  0  0  0  0  0  0  0  0  0  0
   -3.7681   -2.8816   -0.2818 H   0  0  0  0  0  0  0  0  0  0  0  0
   -2.1321   -2.2086    0.9112 C   0  0  0  0  0  0  0  0  0  0  0  0
   -1.2751   -2.8426    1.5112 O   0  0  0  0  0  0  0  0  0  0  0  0
   -1.9041   -1.0186    0.3602 N   0  0  0  0  0  0  0  0  0  0  0  0
   -2.6671   -0.5416   -0.0988 H   0  0  0  0  0  0  0  0  0  0  0  0
   -0.6131   -0.3236    0.3832 C   0  0  1  0  0  0  0  0  0  0  0  0
    0.1346   -0.9625   -0.0894 H   0  0  0  0  0  0  0  0  0  0  0  0
   -0.7253    0.9751   -0.4365 C   0  0  0  0  0  0  0  0  0  0  0  0
    0.2485    1.1966   -0.8783 H   0  0  0  0  0  0  0  0  0  0  0  0
   -1.4416    0.8287   -1.2462 H   0  0  0  0  0  0  0  0  0  0  0  0
   -1.1649    2.1869    0.3933 C   0  0  0  0  0  0  0  0  0  0  0  0
   -1.7903    1.8472    1.2183 H   0  0  0  0  0  0  0  0  0  0  0  0
   -0.2777    2.6717    0.8022 H   0  0  0  0  0  0  0  0  0  0  0  0
   -2.1016    3.4138   -0.5538 S   0  0  0  0  0  0  0  0  0  0  0  0
   -0.7875    4.0432   -1.6303 C   0  0  0  0  0  0  0  0  0  0  0  0
   -0.3896    3.2304   -2.2385 H   0  0  0  0  0  0  0  0  0  0  0  0
   -1.1946    4.8148   -2.2843 H   0  0  0  0  0  0  0  0  0  0  0  0
    0.0111    4.4716   -1.0240 H   0  0  0  0  0  0  0  0  0  0  0  0
   -0.1711   -0.0594    1.8296 C   0  0  0  0  0  0  0  0  0  0  0  0
    0.9865   -0.2908    2.1726 O   0  0  0  0  0  0  0  0  0  0  0  0
   -1.0921    0.4156    2.6780 N   0  0  0  0  0  0  0  0  0  0  0  0
   -2.0168    0.5953    2.3206 H   0  0  0  0  0  0  0  0  0  0  0  0
   -0.8319    0.7034    4.0877 C   0  0  0  0  0  0  0  0  0  0  0  0
   -0.0192    1.4288    4.1710 H   0  0  0  0  0  0  0  0  0  0  0  0
   -1.7255    1.1088    4.5641 H   0  0  0  0  0  0  0  0  0  0  0  0
   -0.5319   -0.2118    4.6011 H   0  0  0  0  0  0  0  0  0  0  0  0
  5  6  2  0  0  0  0
  5  7  1  0  0  0  0
  2  3  1  0  0  0  0
  2  4  1  0  0  0  0
  2  5  1  0  0  0  0
  1  2  1  0  0  0  0
 22 23  2  0  0  0  0
 22 24  1  0  0  0  0
 18 19  1  0  0  0  0
 18 20  1  0  0  0  0
 18 21  1  0  0  0  0
 17 18  1  0  0  0  0
 14 15  1  0  0  0  0
 14 16  1  0  0  0  0
 14 17  1  0  0  0  0
 11 12  1  0  0  0  0
 11 13  1  0  0  0  0
 11 14  1  0  0  0  0
  9 10  1  0  0  0  0
  9 11  1  0  0  0  0
  9 22  1  0  0  0  0
  7  8  1  0  0  0  0
  7  9  1  0  0  0  0
 26 27  1  0  0  0  0
 26 28  1  0  0  0  0
 26 29  1  0  0  0  0
 24 25  1  0  0  0  0
 24 26  1  0  0  0  0
M  END
$$$$
default_name
  -OEChem-02102213163D

 29 28  0     1  0  0  0  0  0999 V2000
   -3.5781   -3.7296    1.2702 H   0  0  0  0  0  0  0  0  0  0  0  0
   -3.5311   -2.7616    0.7732 C   0  0  0  0  0  0  0  0  0  0  0  0
   -4.2371   -2.0766    1.2382 H   0  0  0  0  0  0  0  0  0  0  0  0
   -3.7681   -2.8816   -0.2818 H   0  0  0  0  0  0  0  0  0  0  0  0
   -2.1321   -2.2086    0.9112 C   0  0  0  0  0  0  0  0  0  0  0  0
   -1.2751   -2.8426    1.5112 O   0  0  0  0  0  0  0  0  0  0  0  0
   -1.9041   -1.0186    0.3602 N   0  0  0  0  0  0  0  0  0  0  0  0
   -2.6671   -0.5416   -0.0988 H   0  0  0  0  0  0  0  0  0  0  0  0
   -0.6131   -0.3236    0.3832 C   0  0  1  0  0  0  0  0  0  0  0  0
    0.1346   -0.9625   -0.0894 H   0  0  0  0  0  0  0  0  0  0  0  0
   -0.7253    0.9751   -0.4365 C   0  0  0  0  0  0  0  0  0  0  0  0
    0.2485    1.1966   -0.8783 H   0  0  0  0  0  0  0  0  0  0  0  0
   -1.4416    0.8287   -1.2462 H   0  0  0  0  0  0  0  0  0  0  0  0
   -1.1649    2.1869    0.3933 C   0  0  0  0  0  0  0  0  0  0  0  0
   -1.5561    1.8421    1.3499 H   0  0  0  0  0  0  0  0  0  0  0  0
   -0.2956    2.8193    0.5773 H   0  0  0  0  0  0  0  0  0  0  0  0
   -2.4424    3.1901   -0.4075 S   0  0  0  0  0  0  0  0  0  0  0  0
   -1.4770    3.8898   -1.7714 C   0  0  0  0  0  0  0  0  0  0  0  0
   -1.0925    3.0860   -2.4000 H   0  0  0  0  0  0  0  0  0  0  0  0
   -2.1158    4.5396   -2.3702 H   0  0  0  0  0  0  0  0  0  0  0  0
   -0.6459    4.4722   -1.3729 H   0  0  0  0  0  0  0  0  0  0  0  0
   -0.1711   -0.0594    1.8296 C   0  0  0  0  0  0  0  0  0  0  0  0
    0.9865   -0.2908    2.1726 O   0  0  0  0  0  0  0  0  0  0  0  0
   -1.0921    0.4156    2.6780 N   0  0  0  0  0  0  0  0  0  0  0  0
   -2.0168    0.5953    2.3206 H   0  0  0  0  0  0  0  0  0  0  0  0
   -0.8319    0.7034    4.0877 C   0  0  0  0  0  0  0  0  0  0  0  0
   -0.0192    1.4288    4.1710 H   0  0  0  0  0  0  0  0  0  0  0  0
   -1.7255    1.1088    4.5641 H   0  0  0  0  0  0  0  0  0  0  0  0
   -0.5319   -0.2118    4.6011 H   0  0  0  0  0  0  0  0  0  0  0  0
  5  6  2  0  0  0  0
  5  7  1  0  0  0  0
  2  3  1  0  0  0  0
  2  4  1  0  0  0  0
  2  5  1  0  0  0  0
  1  2  1  0  0  0  0
 22 23  2  0  0  0  0
 22 24  1  0  0  0  0
 18 19  1  0  0  0  0
 18 20  1  0  0  0  0
 18 21  1  0  0  0  0
 17 18  1  0  0  0  0
 14 15  1  0  0  0  0
 14 16  1  0  0  0  0
 14 17  1  0  0  0  0
 11 12  1  0  0  0  0
 11 13  1  0  0  0  0
 11 14  1  0  0  0  0
  9 10  1  0  0  0  0
  9 11  1  0  0  0  0
  9 22  1  0  0  0  0
  7  8  1  0  0  0  0
  7  9  1  0  0  0  0
 26 27  1  0  0  0  0
 26 28  1  0  0  0  0
 26 29  1  0  0  0  0
 24 25  1  0  0  0  0
 24 26  1  0  0  0  0
M  END
$$$$
default_name
  -OEChem-02102213163D

 29 28  0     1  0  0  0  0  0999 V2000
   -3.5781   -3.7296    1.2702 H   0  0  0  0  0  0  0  0  0  0  0  0
   -3.5311   -2.7616    0.7732 C   0  0  0  0  0  0  0  0  0  0  0  0
   -4.2371   -2.0766    1.2382 H   0  0  0  0  0  0  0  0  0  0  0  0
   -3.7681   -2.8816   -0.2818 H   0  0  0  0  0  0  0  0  0  0  0  0
   -2.1321   -2.2086    0.9112 C   0  0  0  0  0  0  0  0  0  0  0  0
   -1.2751   -2.8426    1.5112 O   0  0  0  0  0  0  0  0  0  0  0  0
   -1.9041   -1.0186    0.3602 N   0  0  0  0  0  0  0  0  0  0  0  0
   -2.6671   -0.5416   -0.0988 H   0  0  0  0  0  0  0  0  0  0  0  0
   -0.6131   -0.3236    0.3832 C   0  0  1  0  0  0  0  0  0  0  0  0
    0.1346   -0.9625   -0.0894 H   0  0  0  0  0  0  0  0  0  0  0  0
   -0.7253    0.9751   -0.4365 C   0  0  0  0  0  0  0  0  0  0  0  0
    0.2485    1.1966   -0.8783 H   0  0  0  0  0  0  0  0  0  0  0  0
   -1.4416    0.8287   -1.2462 H   0  0  0  0  0  0  0  0  0  0  0  0
   -1.1649    2.1869    0.3933 C   0  0  0  0  0  0  0  0  0  0  0  0
   -1.3022    1.8796    1.4296 H   0  0  0  0  0  0  0  0  0  0  0  0
   -0.3796    2.9426    0.3527 H   0  0  0  0  0  0  0  0  0  0  0  0
   -2.7103    2.9370   -0.1799 S   0  0  0  0  0  0  0  0  0  0  0  0
   -2.1504    3.6345   -1.7553 C   0  0  0  0  0  0  0  0  0  0  0  0
   -1.7844    2.8361   -2.4015 H   0  0  0  0  0  0  0  0  0  0  0  0
   -2.9846    4.1383   -2.2444 H   0  0  0  0  0  0  0  0  0  0  0  0
   -1.3519    4.3549   -1.5755 H   0  0  0  0  0  0  0  0  0  0  0  0
   -0.1711   -0.0594    1.8296 C   0  0  0  0  0  0  0  0  0  0  0  0
    0.9865   -0.2908    2.1726 O   0  0  0  0  0  0  0  0  0  0  0  0
   -1.0921    0.4156    2.6780 N   0  0  0  0  0  0  0  0  0  0  0  0
   -2.0168    0.5953    2.3206 H   0  0  0  0  0  0  0  0  0  0  0  0
   -0.8319    0.7034    4.0877 C   0  0  0  0  0  0  0  0  0  0  0  0
   -0.0192    1.4288    4.1710 H   0  0  0  0  0  0  0  0  0  0  0  0
   -1.7255    1.1088    4.5641 H   0  0  0  0  0  0  0  0  0  0  0  0
   -0.5319   -0.2118    4.6011 H   0  0  0  0  0  0  0  0  0  0  0  0
  5  6  2  0  0  0  0
  5  7  1  0  0  0  0
  2  3  1  0  0  0  0
  2  4  1  0  0  0  0
  2  5  1  0  0  0  0
  1  2  1  0  0  0  0
 22 23  2  0  0  0  0
 22 24  1  0  0  0  0
 18 19  1  0  0  0  0
 18 20  1  0  0  0  0
 18 21  1  0  0  0  0
 17 18  1  0  0  0  0
 14 15  1  0  0  0  0
 14 16  1  0  0  0  0
 14 17  1  0  0  0  0
 11 12  1  0  0  0  0
 11 13  1  0  0  0  0
 11 14  1  0  0  0  0
  9 10  1  0  0  0  0
  9 11  1  0  0  0  0
  9 22  1  0  0  0  0
  7  8  1  0  0  0  0
  7  9  1  0  0  0  0
 26 27  1  0  0  0  0
 26 28  1  0  0  0  0
 26 29  1  0  0  0  0
 24 25  1  0  0  0  0
 24 26  1  0  0  0  0
M  END
$$$$
default_name
  -OEChem-02102213163D

 29 28  0     1  0  0  0  0  0999 V2000
   -3.5781   -3.7296    1.2702 H   0  0  0  0  0  0  0  0  0  0  0  0
   -3.5311   -2.7616    0.7732 C   0  0  0  0  0  0  0  0  0  0  0  0
   -4.2371   -2.0766    1.2382 H   0  0  0  0  0  0  0  0  0  0  0  0
   -3.7681   -2.8816   -0.2818 H   0  0  0  0  0  0  0  0  0  0  0  0
   -2.1321   -2.2086    0.9112 C   0  0  0  0  0  0  0  0  0  0  0  0
   -1.2751   -2.8426    1.5112 O   0  0  0  0  0  0  0  0  0  0  0  0
   -1.9041   -1.0186    0.3602 N   0  0  0  0  0  0  0  0  0  0  0  0
   -2.6671   -0.5416   -0.0988 H   0  0  0  0  0  0  0  0  0  0  0  0
   -0.6131   -0.3236    0.3832 C   0  0  1  0  0  0  0  0  0  0  0  0
    0.1346   -0.9625   -0.0894 H   0  0  0  0  0  0  0  0  0  0  0  0
   -0.7253    0.9751   -0.4365 C   0  0  0  0  0  0  0  0  0  0  0  0
    0.2485    1.1966   -0.8783 H   0  0  0  0  0  0  0  0  0  0  0  0
   -1.4416    0.8287   -1.2462 H   0  0  0  0  0  0  0  0  0  0  0  0
   -1.1649    2.1869    0.3933 C   0  0  0  0  0  0  0  0  0  0  0  0
   -1.0460    1.9574    1.4517 H   0  0  0  0  0  0  0  0  0  0  0  0
   -0.5239    3.0333    0.1438 H   0  0  0  0  0  0  0  0  0  0  0  0
   -2.8871    2.6720    0.1135 S   0  0  0  0  0  0  0  0  0  0  0  0
   -2.7617    3.2948   -1.5830 C   0  0  0  0  0  0  0  0  0  0  0  0
   -2.4180    2.4976   -2.2429 H   0  0  0  0  0  0  0  0  0  0  0  0
   -3.7418    3.6383   -1.9153 H   0  0  0  0  0  0  0  0  0  0  0  0
   -2.0589    4.1276   -1.6181 H   0  0  0  0  0  0  0  0  0  0  0  0
   -0.1711   -0.0594    1.8296 C   0  0  0  0  0  0  0  0  0  0  0  0
    0.9865   -0.2908    2.1726 O   0  0  0  0  0  0  0  0  0  0  0  0
   -1.0921    0.4156    2.6780 N   0  0  0  0  0  0  0  0  0  0  0  0
   -2.0168    0.5953    2.3206 H   0  0  0  0  0  0  0  0  0  0  0  0
   -0.8319    0.7034    4.0877 C   0  0  0  0  0  0  0  0  0  0  0  0
   -0.0192    1.4288    4.1710 H   0  0  0  0  0  0  0  0  0  0  0  0
   -1.7255    1.1088    4.5641 H   0  0  0  0  0  0  0  0  0  0  0  0
   -0.5319   -0.2118    4.6011 H   0  0  0  0  0  0  0  0  0  0  0  0
  5  6  2  0  0  0  0
  5  7  1  0  0  0  0
  2  3  1  0  0  0  0
  2  4  1  0  0  0  0
  2  5  1  0  0  0  0
  1  2  1  0  0  0  0
 22 23  2  0  0  0  0
 22 24  1  0  0  0  0
 18 19  1  0  0  0  0
 18 20  1  0  0  0  0
 18 21  1  0  0  0  0
 17 18  1  0  0  0  0
 14 15  1  0  0  0  0
 14 16  1  0  0  0  0
 14 17  1  0  0  0  0
 11 12  1  0  0  0  0
 11 13  1  0  0  0  0
 11 14  1  0  0  0  0
  9 10  1  0  0  0  0
  9 11  1  0  0  0  0
  9 22  1  0  0  0  0
  7  8  1  0  0  0  0
  7  9  1  0  0  0  0
 26 27  1  0  0  0  0
 26 28  1  0  0  0  0
 26 29  1  0  0  0  0
 24 25  1  0  0  0  0
 24 26  1  0  0  0  0
M  END
$$$$
default_name
  -OEChem-02102213163D

 29 28  0     1  0  0  0  0  0999 V2000
   -3.5781   -3.7296    1.2702 H   0  0  0  0  0  0  0  0  0  0  0  0
   -3.5311   -2.7616    0.7732 C   0  0  0  0  0  0  0  0  0  0  0  0
   -4.2371   -2.0766    1.2382 H   0  0  0  0  0  0  0  0  0  0  0  0
   -3.7681   -2.8816   -0.2818 H   0  0  0  0  0  0  0  0  0  0  0  0
   -2.1321   -2.2086    0.9112 C   0  0  0  0  0  0  0  0  0  0  0  0
   -1.2751   -2.8426    1.5112 O   0  0  0  0  0  0  0  0  0  0  0  0
   -1.9041   -1.0186    0.3602 N   0  0  0  0  0  0  0  0  0  0  0  0
   -2.6671   -0.5416   -0.0988 H   0  0  0  0  0  0  0  0  0  0  0  0
   -0.6131   -0.3236    0.3832 C   0  0  1  0  0  0  0  0  0  0  0  0
    0.1346   -0.9625   -0.0894 H   0  0  0  0  0  0  0  0  0  0  0  0
   -0.7253    0.9751   -0.4365 C   0  0  0  0  0  0  0  0  0  0  0  0
    0.2485    1.1966   -0.8783 H   0  0  0  0  0  0  0  0  0  0  0  0
   -1.4416    0.8287   -1.2462 H   0  0  0  0  0  0  0  0  0  0  0  0
   -1.1649    2.1869    0.3933 C   0  0  0  0  0  0  0  0  0  0  0  0
   -0.8048    2.0700    1.4150 H   0  0  0  0  0  0  0  0  0  0  0  0
   -0.7188    3.0851   -0.0352 H   0  0  0  0  0  0  0  0  0  0  0  0
   -2.9607    2.4130    0.4528 S   0  0  0  0  0  0  0  0  0  0  0  0
   -3.2694    2.8938   -1.2663 C   0  0  0  0  0  0  0  0  0  0  0  0
   -2.9501    2.0937   -1.9349 H   0  0  0  0  0  0  0  0  0  0  0  0
   -4.3358    3.0736   -1.4054 H   0  0  0  0  0  0  0  0  0  0  0  0
   -2.7187    3.8059   -1.4978 H   0  0  0  0  0  0  0  0  0  0  0  0
   -0.1711   -0.0594    1.8296 C   0  0  0  0  0  0  0  0  0  0  0  0
    0.9865   -0.2908    2.1726 O   0  0  0  0  0  0  0  0  0  0  0  0
   -1.0921    0.4156    2.6780 N   0  0  0  0  0  0  0  0  0  0  0  0
   -2.0168    0.5953    2.3206 H   0  0  0  0  0  0  0  0  0  0  0  0
   -0.8319    0.7034    4.0877 C   0  0  0  0  0  0  0  0  0  0  0  0
   -0.0192    1.4288    4.1710 H   0  0  0  0  0  0  0  0  0  0  0  0
   -1.7255    1.1088    4.5641 H   0  0  0  0  0  0  0  0  0  0  0  0
   -0.5319   -0.2118    4.6011 H   0  0  0  0  0  0  0  0  0  0  0  0
  5  6  2  0  0  0  0
  5  7  1  0  0  0  0
  2  3  1  0  0  0  0
  2  4  1  0  0  0  0
  2  5  1  0  0  0  0
  1  2  1  0  0  0  0
 22 23  2  0  0  0  0
 22 24  1  0  0  0  0
 18 19  1  0  0  0  0
 18 20  1  0  0  0  0
 18 21  1  0  0  0  0
 17 18  1  0  0  0  0
 14 15  1  0  0  0  0
 14 16  1  0  0  0  0
 14 17  1  0  0  0  0
 11 12  1  0  0  0  0
 11 13  1  0  0  0  0
 11 14  1  0  0  0  0
  9 10  1  0  0  0  0
  9 11  1  0  0  0  0
  9 22  1  0  0  0  0
  7  8  1  0  0  0  0
  7  9  1  0  0  0  0
 26 27  1  0  0  0  0
 26 28  1  0  0  0  0
 26 29  1  0  0  0  0
 24 25  1  0  0  0  0
 24 26  1  0  0  0  0
M  END
$$$$
default_name
  -OEChem-02102213163D

 29 28  0     1  0  0  0  0  0999 V2000
   -3.5781   -3.7296    1.2702 H   0  0  0  0  0  0  0  0  0  0  0  0
   -3.5311   -2.7616    0.7732 C   0  0  0  0  0  0  0  0  0  0  0  0
   -4.2371   -2.0766    1.2382 H   0  0  0  0  0  0  0  0  0  0  0  0
   -3.7681   -2.8816   -0.2818 H   0  0  0  0  0  0  0  0  0  0  0  0
   -2.1321   -2.2086    0.9112 C   0  0  0  0  0  0  0  0  0  0  0  0
   -1.2751   -2.8426    1.5112 O   0  0  0  0  0  0  0  0  0  0  0  0
   -1.9041   -1.0186    0.3602 N   0  0  0  0  0  0  0  0  0  0  0  0
   -2.6671   -0.5416   -0.0988 H   0  0  0  0  0  0  0  0  0  0  0  0
   -0.6131   -0.3236    0.3832 C   0  0  1  0  0  0  0  0  0  0  0  0
    0.1346   -0.9625   -0.0894 H   0  0  0  0  0  0  0  0  0  0  0  0
   -0.7253    0.9751   -0.4365 C   0  0  0  0  0  0  0  0  0  0  0  0
    0.2485    1.1966   -0.8783 H   0  0  0  0  0  0  0  0  0  0  0  0
   -1.4416    0.8287   -1.2462 H   0  0  0  0  0  0  0  0  0  0  0  0
   -1.1649    2.1869    0.3933 C   0  0  0  0  0  0  0  0  0  0  0  0
   -0.5952    2.2099    1.3218 H   0  0  0  0  0  0  0  0  0  0  0  0
   -0.9509    3.0947   -0.1720 H   0  0  0  0  0  0  0  0  0  0  0  0
   -2.9261    2.1777    0.8147 S   0  0  0  0  0  0  0  0  0  0  0  0
   -3.6389    2.4588   -0.8268 C   0  0  0  0  0  0  0  0  0  0  0  0
   -3.3445    1.6519   -1.4986 H   0  0  0  0  0  0  0  0  0  0  0  0
   -4.7262    2.4829   -0.7494 H   0  0  0  0  0  0  0  0  0  0  0  0
   -3.2863    3.4116   -1.2227 H   0  0  0  0  0  0  0  0  0  0  0  0
   -0.1711   -0.0594    1.8296 C   0  0  0  0  0  0  0  0  0  0  0  0
    0.9865   -0.2908    2.1726 O   0  0  0  0  0  0  0  0  0  0  0  0
   -1.0921    0.4156    2.6780 N   0  0  0  0  0  0  0  0  0  0  0  0
   -2.0168    0.5953    2.3206 H   0  0  0  0  0  0  0  0  0  0  0  0
   -0.8319    0.7034    4.0877 C   0  0  0  0  0  0  0  0  0  0  0  0
   -0.0192    1.4288    4.1710 H   0  0  0  0  0  0  0  0  0  0  0  0
   -1.7255    1.1088    4.5641 H   0  0  0  0  0  0  0  0  0  0  0  0
   -0.5319   -0.2118    4.6011 H   0  0  0  0  0  0  0  0  0  0  0  0
  5  6  2  0  0  0  0
  5  7  1  0  0  0  0
  2  3  1  0  0  0  0
  2  4  1  0  0  0  0
  2  5  1  0  0  0  0
  1  2  1  0  0  0  0
 22 23  2  0  0  0  0
 22 24  1  0  0  0  0
 18 19  1  0  0  0  0
 18 20  1  0  0  0  0
 18 21  1  0  0  0  0
 17 18  1  0  0  0  0
 14 15  1  0  0  0  0
 14 16  1  0  0  0  0
 14 17  1  0  0  0  0
 11 12  1  0  0  0  0
 11 13  1  0  0  0  0
 11 14  1  0  0  0  0
  9 10  1  0  0  0  0
  9 11  1  0  0  0  0
  9 22  1  0  0  0  0
  7  8  1  0  0  0  0
  7  9  1  0  0  0  0
 26 27  1  0  0  0  0
 26 28  1  0  0  0  0
 26 29  1  0  0  0  0
 24 25  1  0  0  0  0
 24 26  1  0  0  0  0
M  END
$$$$
default_name
  -OEChem-02102213163D

 29 28  0     1  0  0  0  0  0999 V2000
   -3.5781   -3.7296    1.2702 H   0  0  0  0  0  0  0  0  0  0  0  0
   -3.5311   -2.7616    0.7732 C   0  0  0  0  0  0  0  0  0  0  0  0
   -4.2371   -2.0766    1.2382 H   0  0  0  0  0  0  0  0  0  0  0  0
   -3.7681   -2.8816   -0.2818 H   0  0  0  0  0  0  0  0  0  0  0  0
   -2.1321   -2.2086    0.9112 C   0  0  0  0  0  0  0  0  0  0  0  0
   -1.2751   -2.8426    1.5112 O   0  0  0  0  0  0  0  0  0  0  0  0
   -1.9041   -1.0186    0.3602 N   0  0  0  0  0  0  0  0  0  0  0  0
   -2.6671   -0.5416   -0.0988 H   0  0  0  0  0  0  0  0  0  0  0  0
   -0.6131   -0.3236    0.3832 C   0  0  1  0  0  0  0  0  0  0  0  0
    0.1346   -0.9625   -0.0894 H   0  0  0  0  0  0  0  0  0  0  0  0
   -0.7253    0.9751   -0.4365 C   0  0  0  0  0  0  0  0  0  0  0  0
    0.2485    1.1966   -0.8783 H   0  0  0  0  0  0  0  0  0  0  0  0
   -1.4416    0.8287   -1.2462 H   0  0  0  0  0  0  0  0  0  0  0  0
   -1.1649    2.1869    0.3933 C   0  0  0  0  0  0  0  0  0  0  0  0
   -0.4314    2.3675    1.1784 H   0  0  0  0  0  0  0  0  0  0  0  0
   -1.2044    3.0612   -0.2574 H   0  0  0  0  0  0  0  0  0  0  0  0
   -2.7857    1.9821    1.1748 S   0  0  0  0  0  0  0  0  0  0  0  0
   -3.8449    2.0196   -0.2944 C   0  0  0  0  0  0  0  0  0  0  0  0
   -3.5743    1.2023   -0.9636 H   0  0  0  0  0  0  0  0  0  0  0  0
   -4.8863    1.9063    0.0079 H   0  0  0  0  0  0  0  0  0  0  0  0
   -3.7230    2.9717   -0.8115 H   0  0  0  0  0  0  0  0  0  0  0  0
   -0.1711   -0.0594    1.8296 C   0  0  0  0  0  0  0  0  0  0  0  0
    0.9865   -0.2908    2.1726 O   0  0  0  0  0  0  0  0  0  0  0  0
   -1.0921    0.4156    2.6780 N   0  0  0  0  0  0  0  0  0  0  0  0
   -2.0168    0.5953    2.3206 H   0  0  0  0  0  0  0  0  0  0  0  0
   -0.8319    0.7034    4.0877 C   0  0  0  0  0  0  0  0  0  0  0  0
   -0.0192    1.4288    4.1710 H   0  0  0  0  0  0  0  0  0  0  0  0
   -1.7255    1.1088    4.5641 H   0  0  0  0  0  0  0  0  0  0  0  0
   -0.5319   -0.2118    4.6011 H   0  0  0  0  0  0  0  0  0  0  0  0
  5  6  2  0  0  0  0
  5  7  1  0  0  0  0
  2  3  1  0  0  0  0
  2  4  1  0  0  0  0
  2  5  1  0  0  0  0
  1  2  1  0  0  0  0
 22 23  2  0  0  0  0
 22 24  1  0  0  0  0
 18 19  1  0  0  0  0
 18 20  1  0  0  0  0
 18 21  1  0  0  0  0
 17 18  1  0  0  0  0
 14 15  1  0  0  0  0
 14 16  1  0  0  0  0
 14 17  1  0  0  0  0
 11 12  1  0  0  0  0
 11 13  1  0  0  0  0
 11 14  1  0  0  0  0
  9 10  1  0  0  0  0
  9 11  1  0  0  0  0
  9 22  1  0  0  0  0
  7  8  1  0  0  0  0
  7  9  1  0  0  0  0
 26 27  1  0  0  0  0
 26 28  1  0  0  0  0
 26 29  1  0  0  0  0
 24 25  1  0  0  0  0
 24 26  1  0  0  0  0
M  END
$$$$
default_name
  -OEChem-02102213163D

 29 28  0     1  0  0  0  0  0999 V2000
   -3.5781   -3.7296    1.2702 H   0  0  0  0  0  0  0  0  0  0  0  0
   -3.5311   -2.7616    0.7732 C   0  0  0  0  0  0  0  0  0  0  0  0
   -4.2371   -2.0766    1.2382 H   0  0  0  0  0  0  0  0  0  0  0  0
   -3.7681   -2.8816   -0.2818 H   0  0  0  0  0  0  0  0  0  0  0  0
   -2.1321   -2.2086    0.9112 C   0  0  0  0  0  0  0  0  0  0  0  0
   -1.2751   -2.8426    1.5112 O   0  0  0  0  0  0  0  0  0  0  0  0
   -1.9041   -1.0186    0.3602 N   0  0  0  0  0  0  0  0  0  0  0  0
   -2.6671   -0.5416   -0.0988 H   0  0  0  0  0  0  0  0  0  0  0  0
   -0.6131   -0.3236    0.3832 C   0  0  1  0  0  0  0  0  0  0  0  0
    0.1346   -0.9625   -0.0894 H   0  0  0  0  0  0  0  0  0  0  0  0
   -0.7253    0.9751   -0.4365 C   0  0  0  0  0  0  0  0  0  0  0  0
    0.2485    1.1966   -0.8783 H   0  0  0  0  0  0  0  0  0  0  0  0
   -1.4416    0.8287   -1.2462 H   0  0  0  0  0  0  0  0  0  0  0  0
   -1.1649    2.1869    0.3933 C   0  0  0  0  0  0  0  0  0  0  0  0
   -0.3245    2.5320    0.9948 H   0  0  0  0  0  0  0  0  0  0  0  0
   -1.4621    2.9870   -0.2856 H   0  0  0  0  0  0  0  0  0  0  0  0
   -2.5490    1.8396    1.5083 S   0  0  0  0  0  0  0  0  0  0  0  0
   -3.8734    1.6059    0.2946 C   0  0  0  0  0  0  0  0  0  0  0  0
   -3.6239    0.7755   -0.3665 H   0  0  0  0  0  0  0  0  0  0  0  0
   -4.8053    1.3831    0.8149 H   0  0  0  0  0  0  0  0  0  0  0  0
   -3.9991    2.5161   -0.2924 H   0  0  0  0  0  0  0  0  0  0  0  0
   -0.1711   -0.0594    1.8296 C   0  0  0  0  0  0  0  0  0  0  0  0
    0.9865   -0.2908    2.1726 O   0  0  0  0  0  0  0  0  0  0  0  0
   -1.0921    0.4156    2.6780 N   0  0  0  0  0  0  0  0  0  0  0  0
   -2.0168    0.5953    2.3206 H   0  0  0  0  0  0  0  0  0  0  0  0
   -0.8319    0.7034    4.0877 C   0  0  0  0  0  0  0  0  0  0  0  0
   -0.0192    1.4288    4.1710 H   0  0  0  0  0  0  0  0  0  0  0  0
   -1.7255    1.1088    4.5641 H   0  0  0  0  0  0  0  0  0  0  0  0
   -0.5319   -0.2118    4.6011 H   0  0  0  0  0  0  0  0  0  0  0  0
  5  6  2  0  0  0  0
  5  7  1  0  0  0  0
  2  3  1  0  0  0  0
  2  4  1  0  0  0  0
  2  5  1  0  0  0  0
  1  2  1  0  0  0  0
 22 23  2  0  0  0  0
 22 24  1  0  0  0  0
 18 19  1  0  0  0  0
 18 20  1  0  0  0  0
 18 21  1  0  0  0  0
 17 18  1  0  0  0  0
 14 15  1  0  0  0  0
 14 16  1  0  0  0  0
 14 17  1  0  0  0  0
 11 12  1  0  0  0  0
 11 13  1  0  0  0  0
 11 14  1  0  0  0  0
  9 10  1  0  0  0  0
  9 11  1  0  0  0  0
  9 22  1  0  0  0  0
  7  8  1  0  0  0  0
  7  9  1  0  0  0  0
 26 27  1  0  0  0  0
 26 28  1  0  0  0  0
 26 29  1  0  0  0  0
 24 25  1  0  0  0  0
 24 26  1  0  0  0  0
M  END
$$$$
default_name
  -OEChem-02102213163D

 29 28  0     1  0  0  0  0  0999 V2000
   -3.5781   -3.7296    1.2702 H   0  0  0  0  0  0  0  0  0  0  0  0
   -3.5311   -2.7616    0.7732 C   0  0  0  0  0  0  0  0  0  0  0  0
   -4.2371   -2.0766    1.2382 H   0  0  0  0  0  0  0  0  0  0  0  0
   -3.7681   -2.8816   -0.2818 H   0  0  0  0  0  0  0  0  0  0  0  0
   -2.1321   -2.2086    0.9112 C   0  0  0  0  0  0  0  0  0  0  0  0
   -1.2751   -2.8426    1.5112 O   0  0  0  0  0  0  0  0  0  0  0  0
   -1.9041   -1.0186    0.3602 N   0  0  0  0  0  0  0  0  0  0  0  0
   -2.6671   -0.5416   -0.0988 H   0  0  0  0  0  0  0  0  0  0  0  0
   -0.6131   -0.3236    0.3832 C   0  0  1  0  0  0  0  0  0  0  0  0
    0.1346   -0.9625   -0.0894 H   0  0  0  0  0  0  0  0  0  0  0  0
   -0.7253    0.9751   -0.4365 C   0  0  0  0  0  0  0  0  0  0  0  0
    0.2485    1.1966   -0.8783 H   0  0  0  0  0  0  0  0  0  0  0  0
   -1.4416    0.8287   -1.2462 H   0  0  0  0  0  0  0  0  0  0  0  0
   -1.1649    2.1869    0.3933 C   0  0  0  0  0  0  0  0  0  0  0  0
   -0.2819    2.6922    0.7834 H   0  0  0  0  0  0  0  0  0  0  0  0
   -1.7064    2.8771   -0.2546 H   0  0  0  0  0  0  0  0  0  0  0  0
   -2.2321    1.7598    1.7927 S   0  0  0  0  0  0  0  0  0  0  0  0
   -3.7225    1.2461    0.9001 C   0  0  0  0  0  0  0  0  0  0  0  0
   -3.4898    0.4006    0.2520 H   0  0  0  0  0  0  0  0  0  0  0  0
   -4.4886    0.9489    1.6167 H   0  0  0  0  0  0  0  0  0  0  0  0
   -4.0958    2.0759    0.2993 H   0  0  0  0  0  0  0  0  0  0  0  0
   -0.1711   -0.0594    1.8296 C   0  0  0  0  0  0  0  0  0  0  0  0
    0.9865   -0.2908    2.1726 O   0  0  0  0  0  0  0  0  0  0  0  0
   -1.0921    0.4156    2.6780 N   0  0  0  0  0  0  0  0  0  0  0  0
   -2.0168    0.5953    2.3206 H   0  0  0  0  0  0  0  0  0  0  0  0
   -0.8319    0.7034    4.0877 C   0  0  0  0  0  0  0  0  0  0  0  0
   -0.0192    1.4288    4.1710 H   0  0  0  0  0  0  0  0  0  0  0  0
   -1.7255    1.1088    4.5641 H   0  0  0  0  0  0  0  0  0  0  0  0
   -0.5319   -0.2118    4.6011 H   0  0  0  0  0  0  0  0  0  0  0  0
  5  6  2  0  0  0  0
  5  7  1  0  0  0  0
  2  3  1  0  0  0  0
  2  4  1  0  0  0  0
  2  5  1  0  0  0  0
  1  2  1  0  0  0  0
 22 23  2  0  0  0  0
 22 24  1  0  0  0  0
 18 19  1  0  0  0  0
 18 20  1  0  0  0  0
 18 21  1  0  0  0  0
 17 18  1  0  0  0  0
 14 15  1  0  0  0  0
 14 16  1  0  0  0  0
 14 17  1  0  0  0  0
 11 12  1  0  0  0  0
 11 13  1  0  0  0  0
 11 14  1  0  0  0  0
  9 10  1  0  0  0  0
  9 11  1  0  0  0  0
  9 22  1  0  0  0  0
  7  8  1  0  0  0  0
  7  9  1  0  0  0  0
 26 27  1  0  0  0  0
 26 28  1  0  0  0  0
 26 29  1  0  0  0  0
 24 25  1  0  0  0  0
 24 26  1  0  0  0  0
M  END
$$$$
default_name
  -OEChem-02102213163D

 29 28  0     1  0  0  0  0  0999 V2000
   -3.5781   -3.7296    1.2702 H   0  0  0  0  0  0  0  0  0  0  0  0
   -3.5311   -2.7616    0.7732 C   0  0  0  0  0  0  0  0  0  0  0  0
   -4.2371   -2.0766    1.2382 H   0  0  0  0  0  0  0  0  0  0  0  0
   -3.7681   -2.8816   -0.2818 H   0  0  0  0  0  0  0  0  0  0  0  0
   -2.1321   -2.2086    0.9112 C   0  0  0  0  0  0  0  0  0  0  0  0
   -1.2751   -2.8426    1.5112 O   0  0  0  0  0  0  0  0  0  0  0  0
   -1.9041   -1.0186    0.3602 N   0  0  0  0  0  0  0  0  0  0  0  0
   -2.6671   -0.5416   -0.0988 H   0  0  0  0  0  0  0  0  0  0  0  0
   -0.6131   -0.3236    0.3832 C   0  0  1  0  0  0  0  0  0  0  0  0
    0.1346   -0.9625   -0.0894 H   0  0  0  0  0  0  0  0  0  0  0  0
   -0.7253    0.9751   -0.4365 C   0  0  0  0  0  0  0  0  0  0  0  0
    0.2485    1.1966   -0.8783 H   0  0  0  0  0  0  0  0  0  0  0  0
   -1.4416    0.8287   -1.2462 H   0  0  0  0  0  0  0  0  0  0  0  0
   -1.1649    2.1869    0.3933 C   0  0  0  0  0  0  0  0  0  0  0  0
   -0.3065    2.8372    0.5585 H   0  0  0  0  0  0  0  0  0  0  0  0
   -1.9206    2.7391   -0.1665 H   0  0  0  0  0  0  0  0  0  0  0  0
   -1.8567    1.7483    2.0084 S   0  0  0  0  0  0  0  0  0  0  0  0
   -3.4024    0.9646    1.4807 C   0  0  0  0  0  0  0  0  0  0  0  0
   -3.1812    0.1031    0.8499 H   0  0  0  0  0  0  0  0  0  0  0  0
   -3.9578    0.6334    2.3586 H   0  0  0  0  0  0  0  0  0  0  0  0
   -4.0065    1.6810    0.9233 H   0  0  0  0  0  0  0  0  0  0  0  0
   -0.1711   -0.0594    1.8296 C   0  0  0  0  0  0  0  0  0  0  0  0
    0.9865   -0.2908    2.1726 O   0  0  0  0  0  0  0  0  0  0  0  0
   -1.0921    0.4156    2.6780 N   0  0  0  0  0  0  0  0  0  0  0  0
   -2.0168    0.5953    2.3206 H   0  0  0  0  0  0  0  0  0  0  0  0
   -0.8319    0.7034    4.0877 C   0  0  0  0  0  0  0  0  0  0  0  0
   -0.0192    1.4288    4.1710 H   0  0  0  0  0  0  0  0  0  0  0  0
   -1.7255    1.1088    4.5641 H   0  0  0  0  0  0  0  0  0  0  0  0
   -0.5319   -0.2118    4.6011 H   0  0  0  0  0  0  0  0  0  0  0  0
  5  6  2  0  0  0  0
  5  7  1  0  0  0  0
  2  3  1  0  0  0  0
  2  4  1  0  0  0  0
  2  5  1  0  0  0  0
  1  2  1  0  0  0  0
 22 23  2  0  0  0  0
 22 24  1  0  0  0  0
 18 19  1  0  0  0  0
 18 20  1  0  0  0  0
 18 21  1  0  0  0  0
 17 18  1  0  0  0  0
 14 15  1  0  0  0  0
 14 16  1  0  0  0  0
 14 17  1  0  0  0  0
 11 12  1  0  0  0  0
 11 13  1  0  0  0  0
 11 14  1  0  0  0  0
  9 10  1  0  0  0  0
  9 11  1  0  0  0  0
  9 22  1  0  0  0  0
  7  8  1  0  0  0  0
  7  9  1  0  0  0  0
 26 27  1  0  0  0  0
 26 28  1  0  0  0  0
 26 29  1  0  0  0  0
 24 25  1  0  0  0  0
 24 26  1  0  0  0  0
M  END
$$$$
default_name
  -OEChem-02102213163D

 29 28  0     1  0  0  0  0  0999 V2000
   -3.5781   -3.7296    1.2702 H   0  0  0  0  0  0  0  0  0  0  0  0
   -3.5311   -2.7616    0.7732 C   0  0  0  0  0  0  0  0  0  0  0  0
   -4.2371   -2.0766    1.2382 H   0  0  0  0  0  0  0  0  0  0  0  0
   -3.7681   -2.8816   -0.2818 H   0  0  0  0  0  0  0  0  0  0  0  0
   -2.1321   -2.2086    0.9112 C   0  0  0  0  0  0  0  0  0  0  0  0
   -1.2751   -2.8426    1.5112 O   0  0  0  0  0  0  0  0  0  0  0  0
   -1.9041   -1.0186    0.3602 N   0  0  0  0  0  0  0  0  0  0  0  0
   -2.6671   -0.5416   -0.0988 H   0  0  0  0  0  0  0  0  0  0  0  0
   -0.6131   -0.3236    0.3832 C   0  0  1  0  0  0  0  0  0  0  0  0
    0.1346   -0.9625   -0.0894 H   0  0  0  0  0  0  0  0  0  0  0  0
   -0.7253    0.9751   -0.4365 C   0  0  0  0  0  0  0  0  0  0  0  0
    0.2485    1.1966   -0.8783 H   0  0  0  0  0  0  0  0  0  0  0  0
   -1.4416    0.8287   -1.2462 H   0  0  0  0  0  0  0  0  0  0  0  0
   -1.1649    2.1869    0.3933 C   0  0  0  0  0  0  0  0  0  0  0  0
   -0.3965    2.9572    0.3356 H   0  0  0  0  0  0  0  0  0  0  0  0
   -2.0901    2.5823   -0.0273 H   0  0  0  0  0  0  0  0  0  0  0  0
   -1.4484    1.8057    2.1408 S   0  0  0  0  0  0  0  0  0  0  0  0
   -2.9350    0.7806    1.9970 C   0  0  0  0  0  0  0  0  0  0  0  0
   -2.7191   -0.0966    1.3863 H   0  0  0  0  0  0  0  0  0  0  0  0
   -3.2492    0.4581    2.9901 H   0  0  0  0  0  0  0  0  0  0  0  0
   -3.7372    1.3584    1.5371 H   0  0  0  0  0  0  0  0  0  0  0  0
   -0.1711   -0.0594    1.8296 C   0  0  0  0  0  0  0  0  0  0  0  0
    0.9865   -0.2908    2.1726 O   0  0  0  0  0  0  0  0  0  0  0  0
   -1.0921    0.4156    2.6780 N   0  0  0  0  0  0  0  0  0  0  0  0
   -2.0168    0.5953    2.3206 H   0  0  0  0  0  0  0  0  0  0  0  0
   -0.8319    0.7034    4.0877 C   0  0  0  0  0  0  0  0  0  0  0  0
   -0.0192    1.4288    4.1710 H   0  0  0  0  0  0  0  0  0  0  0  0
   -1.7255    1.1088    4.5641 H   0  0  0  0  0  0  0  0  0  0  0  0
   -0.5319   -0.2118    4.6011 H   0  0  0  0  0  0  0  0  0  0  0  0
  5  6  2  0  0  0  0
  5  7  1  0  0  0  0
  2  3  1  0  0  0  0
  2  4  1  0  0  0  0
  2  5  1  0  0  0  0
  1  2  1  0  0  0  0
 22 23  2  0  0  0  0
 22 24  1  0  0  0  0
 18 19  1  0  0  0  0
 18 20  1  0  0  0  0
 18 21  1  0  0  0  0
 17 18  1  0  0  0  0
 14 15  1  0  0  0  0
 14 16  1  0  0  0  0
 14 17  1  0  0  0  0
 11 12  1  0  0  0  0
 11 13  1  0  0  0  0
 11 14  1  0  0  0  0
  9 10  1  0  0  0  0
  9 11  1  0  0  0  0
  9 22  1  0  0  0  0
  7  8  1  0  0  0  0
  7  9  1  0  0  0  0
 26 27  1  0  0  0  0
 26 28  1  0  0  0  0
 26 29  1  0  0  0  0
 24 25  1  0  0  0  0
 24 26  1  0  0  0  0
M  END
$$$$
default_name
  -OEChem-02102213163D

 29 28  0     1  0  0  0  0  0999 V2000
   -3.5781   -3.7296    1.2702 H   0  0  0  0  0  0  0  0  0  0  0  0
   -3.5311   -2.7616    0.7732 C   0  0  0  0  0  0  0  0  0  0  0  0
   -4.2371   -2.0766    1.2382 H   0  0  0  0  0  0  0  0  0  0  0  0
   -3.7681   -2.8816   -0.2818 H   0  0  0  0  0  0  0  0  0  0  0  0
   -2.1321   -2.2086    0.9112 C   0  0  0  0  0  0  0  0  0  0  0  0
   -1.2751   -2.8426    1.5112 O   0  0  0  0  0  0  0  0  0  0  0  0
   -1.9041   -1.0186    0.3602 N   0  0  0  0  0  0  0  0  0  0  0  0
   -2.6671   -0.5416   -0.0988 H   0  0  0  0  0  0  0  0  0  0  0  0
   -0.6131   -0.3236    0.3832 C   0  0  1  0  0  0  0  0  0  0  0  0
    0.1346   -0.9625   -0.0894 H   0  0  0  0  0  0  0  0  0  0  0  0
   -0.7253    0.9751   -0.4365 C   0  0  0  0  0  0  0  0  0  0  0  0
    0.2485    1.1966   -0.8783 H   0  0  0  0  0  0  0  0  0  0  0  0
   -1.4416    0.8287   -1.2462 H   0  0  0  0  0  0  0  0  0  0  0  0
   -1.1649    2.1869    0.3933 C   0  0  0  0  0  0  0  0  0  0  0  0
   -0.5459    3.0439    0.1298 H   0  0  0  0  0  0  0  0  0  0  0  0
   -2.2035    2.4175    0.1534 H   0  0  0  0  0  0  0  0  0  0  0  0
   -1.0349    1.9282    2.1810 S   0  0  0  0  0  0  0  0  0  0  0  0
   -2.3522    0.7066    2.4138 C   0  0  0  0  0  0  0  0  0  0  0  0
   -2.1351   -0.1850    1.8248 H   0  0  0  0  0  0  0  0  0  0  0  0
   -2.4109    0.4349    3.4681 H   0  0  0  0  0  0  0  0  0  0  0  0
   -3.3063    1.1301    2.0988 H   0  0  0  0  0  0  0  0  0  0  0  0
   -0.1711   -0.0594    1.8296 C   0  0  0  0  0  0  0  0  0  0  0  0
    0.9865   -0.2908    2.1726 O   0  0  0  0  0  0  0  0  0  0  0  0
   -1.0921    0.4156    2.6780 N   0  0  0  0  0  0  0  0  0  0  0  0
   -2.0168    0.5953    2.3206 H   0  0  0  0  0  0  0  0  0  0  0  0
   -0.8319    0.7034    4.0877 C   0  0  0  0  0  0  0  0  0  0  0  0
   -0.0192    1.4288    4.1710 H   0  0  0  0  0  0  0  0  0  0  0  0
   -1.7255    1.1088    4.5641 H   0  0  0  0  0  0  0  0  0  0  0  0
   -0.5319   -0.2118    4.6011 H   0  0  0  0  0  0  0  0  0  0  0  0
  5  6  2  0  0  0  0
  5  7  1  0  0  0  0
  2  3  1  0  0  0  0
  2  4  1  0  0  0  0
  2  5  1  0  0  0  0
  1  2  1  0  0  0  0
 22 23  2  0  0  0  0
 22 24  1  0  0  0  0
 18 19  1  0  0  0  0
 18 20  1  0  0  0  0
 18 21  1  0  0  0  0
 17 18  1  0  0  0  0
 14 15  1  0  0  0  0
 14 16  1  0  0  0  0
 14 17  1  0  0  0  0
 11 12  1  0  0  0  0
 11 13  1  0  0  0  0
 11 14  1  0  0  0  0
  9 10  1  0  0  0  0
  9 11  1  0  0  0  0
  9 22  1  0  0  0  0
  7  8  1  0  0  0  0
  7  9  1  0  0  0  0
 26 27  1  0  0  0  0
 26 28  1  0  0  0  0
 26 29  1  0  0  0  0
 24 25  1  0  0  0  0
 24 26  1  0  0  0  0
M  END
$$$$
default_name
  -OEChem-02102213163D

 29 28  0     1  0  0  0  0  0999 V2000
   -3.5781   -3.7296    1.2702 H   0  0  0  0  0  0  0  0  0  0  0  0
   -3.5311   -2.7616    0.7732 C   0  0  0  0  0  0  0  0  0  0  0  0
   -4.2371   -2.0766    1.2382 H   0  0  0  0  0  0  0  0  0  0  0  0
   -3.7681   -2.8816   -0.2818 H   0  0  0  0  0  0  0  0  0  0  0  0
   -2.1321   -2.2086    0.9112 C   0  0  0  0  0  0  0  0  0  0  0  0
   -1.2751   -2.8426    1.5112 O   0  0  0  0  0  0  0  0  0  0  0  0
   -1.9041   -1.0186    0.3602 N   0  0  0  0  0  0  0  0  0  0  0  0
   -2.6671   -0.5416   -0.0988 H   0  0  0  0  0  0  0  0  0  0  0  0
   -0.6131   -0.3236    0.3832 C   0  0  1  0  0  0  0  0  0  0  0  0
    0.1346   -0.9625   -0.0894 H   0  0  0  0  0  0  0  0  0  0  0  0
   -0.7253    0.9751   -0.4365 C   0  0  0  0  0  0  0  0  0  0  0  0
    0.2485    1.1966   -0.8783 H   0  0  0  0  0  0  0  0  0  0  0  0
   -1.4416    0.8287   -1.2462 H   0  0  0  0  0  0  0  0  0  0  0  0
   -1.1649    2.1869    0.3933 C   0  0  0  0  0  0  0  0  0  0  0  0
   -0.7444    3.0915   -0.0449 H   0  0  0  0  0  0  0  0  0  0  0  0
   -2.2529    2.2557    0.3634 H   0  0  0  0  0  0  0  0  0  0  0  0
   -0.6444    2.1075    2.1260 S   0  0  0  0  0  0  0  0  0  0  0  0
   -1.6936    0.7478    2.7025 C   0  0  0  0  0  0  0  0  0  0  0  0
   -1.4689   -0.1560    2.1354 H   0  0  0  0  0  0  0  0  0  0  0  0
   -1.5002    0.5654    3.7600 H   0  0  0  0  0  0  0  0  0  0  0  0
   -2.7432    1.0116    2.5702 H   0  0  0  0  0  0  0  0  0  0  0  0
   -0.1711   -0.0594    1.8296 C   0  0  0  0  0  0  0  0  0  0  0  0
    0.9865   -0.2908    2.1726 O   0  0  0  0  0  0  0  0  0  0  0  0
   -1.0921    0.4156    2.6780 N   0  0  0  0  0  0  0  0  0  0  0  0
   -2.0168    0.5953    2.3206 H   0  0  0  0  0  0  0  0  0  0  0  0
   -0.8319    0.7034    4.0877 C   0  0  0  0  0  0  0  0  0  0  0  0
   -0.0192    1.4288    4.1710 H   0  0  0  0  0  0  0  0  0  0  0  0
   -1.7255    1.1088    4.5641 H   0  0  0  0  0  0  0  0  0  0  0  0
   -0.5319   -0.2118    4.6011 H   0  0  0  0  0  0  0  0  0  0  0  0
  5  6  2  0  0  0  0
  5  7  1  0  0  0  0
  2  3  1  0  0  0  0
  2  4  1  0  0  0  0
  2  5  1  0  0  0  0
  1  2  1  0  0  0  0
 22 23  2  0  0  0  0
 22 24  1  0  0  0  0
 18 19  1  0  0  0  0
 18 20  1  0  0  0  0
 18 21  1  0  0  0  0
 17 18  1  0  0  0  0
 14 15  1  0  0  0  0
 14 16  1  0  0  0  0
 14 17  1  0  0  0  0
 11 12  1  0  0  0  0
 11 13  1  0  0  0  0
 11 14  1  0  0  0  0
  9 10  1  0  0  0  0
  9 11  1  0  0  0  0
  9 22  1  0  0  0  0
  7  8  1  0  0  0  0
  7  9  1  0  0  0  0
 26 27  1  0  0  0  0
 26 28  1  0  0  0  0
 26 29  1  0  0  0  0
 24 25  1  0  0  0  0
 24 26  1  0  0  0  0
M  END
$$$$
default_name
  -OEChem-02102213163D

 29 28  0     1  0  0  0  0  0999 V2000
   -3.5781   -3.7296    1.2702 H   0  0  0  0  0  0  0  0  0  0  0  0
   -3.5311   -2.7616    0.7732 C   0  0  0  0  0  0  0  0  0  0  0  0
   -4.2371   -2.0766    1.2382 H   0  0  0  0  0  0  0  0  0  0  0  0
   -3.7681   -2.8816   -0.2818 H   0  0  0  0  0  0  0  0  0  0  0  0
   -2.1321   -2.2086    0.9112 C   0  0  0  0  0  0  0  0  0  0  0  0
   -1.2751   -2.8426    1.5112 O   0  0  0  0  0  0  0  0  0  0  0  0
   -1.9041   -1.0186    0.3602 N   0  0  0  0  0  0  0  0  0  0  0  0
   -2.6671   -0.5416   -0.0988 H   0  0  0  0  0  0  0  0  0  0  0  0
   -0.6131   -0.3236    0.3832 C   0  0  1  0  0  0  0  0  0  0  0  0
    0.1346   -0.9625   -0.0894 H   0  0  0  0  0  0  0  0  0  0  0  0
   -0.7253    0.9751   -0.4365 C   0  0  0  0  0  0  0  0  0  0  0  0
    0.2485    1.1966   -0.8783 H   0  0  0  0  0  0  0  0  0  0  0  0
   -1.4416    0.8287   -1.2462 H   0  0  0  0  0  0  0  0  0  0  0  0
   -1.1649    2.1869    0.3933 C   0  0  0  0  0  0  0  0  0  0  0  0
   -0.9786    3.0967   -0.1765 H   0  0  0  0  0  0  0  0  0  0  0  0
   -2.2350    2.1082    0.5884 H   0  0  0  0  0  0  0  0  0  0  0  0
   -0.3036    2.3312    1.9798 S   0  0  0  0  0  0  0  0  0  0  0  0
   -1.0041    0.9013    2.8437 C   0  0  0  0  0  0  0  0  0  0  0  0
   -0.7659   -0.0116    2.2969 H   0  0  0  0  0  0  0  0  0  0  0  0
   -0.5790    0.8406    3.8459 H   0  0  0  0  0  0  0  0  0  0  0  0
   -2.0863    1.0110    2.9191 H   0  0  0  0  0  0  0  0  0  0  0  0
   -0.1711   -0.0594    1.8296 C   0  0  0  0  0  0  0  0  0  0  0  0
    0.9865   -0.2908    2.1726 O   0  0  0  0  0  0  0  0  0  0  0  0
   -1.0921    0.4156    2.6780 N   0  0  0  0  0  0  0  0  0  0  0  0
   -2.0168    0.5953    2.3206 H   0  0  0  0  0  0  0  0  0  0  0  0
   -0.8319    0.7034    4.0877 C   0  0  0  0  0  0  0  0  0  0  0  0
   -0.0192    1.4288    4.1710 H   0  0  0  0  0  0  0  0  0  0  0  0
   -1.7255    1.1088    4.5641 H   0  0  0  0  0  0  0  0  0  0  0  0
   -0.5319   -0.2118    4.6011 H   0  0  0  0  0  0  0  0  0  0  0  0
  5  6  2  0  0  0  0
  5  7  1  0  0  0  0
  2  3  1  0  0  0  0
  2  4  1  0  0  0  0
  2  5  1  0  0  0  0
  1  2  1  0  0  0  0
 22 23  2  0  0  0  0
 22 24  1  0  0  0  0
 18 19  1  0  0  0  0
 18 20  1  0  0  0  0
 18 21  1  0  0  0  0
 17 18  1  0  0  0  0
 14 15  1  0  0  0  0
 14 16  1  0  0  0  0
 14 17  1  0  0  0  0
 11 12  1  0  0  0  0
 11 13  1  0  0  0  0
 11 14  1  0  0  0  0
  9 10  1  0  0  0  0
  9 11  1  0  0  0  0
  9 22  1  0  0  0  0
  7  8  1  0  0  0  0
  7  9  1  0  0  0  0
 26 27  1  0  0  0  0
 26 28  1  0  0  0  0
 26 29  1  0  0  0  0
 24 25  1  0  0  0  0
 24 26  1  0  0  0  0
M  END
$$$$
default_name
  -OEChem-02102213163D

 29 28  0     1  0  0  0  0  0999 V2000
   -3.5781   -3.7296    1.2702 H   0  0  0  0  0  0  0  0  0  0  0  0
   -3.5311   -2.7616    0.7732 C   0  0  0  0  0  0  0  0  0  0  0  0
   -4.2371   -2.0766    1.2382 H   0  0  0  0  0  0  0  0  0  0  0  0
   -3.7681   -2.8816   -0.2818 H   0  0  0  0  0  0  0  0  0  0  0  0
   -2.1321   -2.2086    0.9112 C   0  0  0  0  0  0  0  0  0  0  0  0
   -1.2751   -2.8426    1.5112 O   0  0  0  0  0  0  0  0  0  0  0  0
   -1.9041   -1.0186    0.3602 N   0  0  0  0  0  0  0  0  0  0  0  0
   -2.6671   -0.5416   -0.0988 H   0  0  0  0  0  0  0  0  0  0  0  0
   -0.6131   -0.3236    0.3832 C   0  0  1  0  0  0  0  0  0  0  0  0
    0.1346   -0.9625   -0.0894 H   0  0  0  0  0  0  0  0  0  0  0  0
   -0.7253    0.9751   -0.4365 C   0  0  0  0  0  0  0  0  0  0  0  0
    0.2485    1.1966   -0.8783 H   0  0  0  0  0  0  0  0  0  0  0  0
   -1.4416    0.8287   -1.2462 H   0  0  0  0  0  0  0  0  0  0  0  0
   -1.1649    2.1869    0.3933 C   0  0  0  0  0  0  0  0  0  0  0  0
   -1.2325    3.0591   -0.2561 H   0  0  0  0  0  0  0  0  0  0  0  0
   -2.1510    1.9849    0.8130 H   0  0  0  0  0  0  0  0  0  0  0  0
   -0.0357    2.5842    1.7522 S   0  0  0  0  0  0  0  0  0  0  0  0
   -0.3307    1.1565    2.8276 C   0  0  0  0  0  0  0  0  0  0  0  0
   -0.0740    0.2384    2.2984 H   0  0  0  0  0  0  0  0  0  0  0  0
    0.2897    1.2420    3.7201 H   0  0  0  0  0  0  0  0  0  0  0  0
   -1.3803    1.1283    3.1218 H   0  0  0  0  0  0  0  0  0  0  0  0
   -0.1711   -0.0594    1.8296 C   0  0  0  0  0  0  0  0  0  0  0  0
    0.9865   -0.2908    2.1726 O   0  0  0  0  0  0  0  0  0  0  0  0
   -1.0921    0.4156    2.6780 N   0  0  0  0  0  0  0  0  0  0  0  0
   -2.0168    0.5953    2.3206 H   0  0  0  0  0  0  0  0  0  0  0  0
   -0.8319    0.7034    4.0877 C   0  0  0  0  0  0  0  0  0  0  0  0
   -0.0192    1.4288    4.1710 H   0  0  0  0  0  0  0  0  0  0  0  0
   -1.7255    1.1088    4.5641 H   0  0  0  0  0  0  0  0  0  0  0  0
   -0.5319   -0.2118    4.6011 H   0  0  0  0  0  0  0  0  0  0  0  0
  5  6  2  0  0  0  0
  5  7  1  0  0  0  0
  2  3  1  0  0  0  0
  2  4  1  0  0  0  0
  2  5  1  0  0  0  0
  1  2  1  0  0  0  0
 22 23  2  0  0  0  0
 22 24  1  0  0  0  0
 18 19  1  0  0  0  0
 18 20  1  0  0  0  0
 18 21  1  0  0  0  0
 17 18  1  0  0  0  0
 14 15  1  0  0  0  0
 14 16  1  0  0  0  0
 14 17  1  0  0  0  0
 11 12  1  0  0  0  0
 11 13  1  0  0  0  0
 11 14  1  0  0  0  0
  9 10  1  0  0  0  0
  9 11  1  0  0  0  0
  9 22  1  0  0  0  0
  7  8  1  0  0  0  0
  7  9  1  0  0  0  0
 26 27  1  0  0  0  0
 26 28  1  0  0  0  0
 26 29  1  0  0  0  0
 24 25  1  0  0  0  0
 24 26  1  0  0  0  0
M  END
$$$$
default_name
  -OEChem-02102213163D

 29 28  0     1  0  0  0  0  0999 V2000
   -3.5781   -3.7296    1.2702 H   0  0  0  0  0  0  0  0  0  0  0  0
   -3.5311   -2.7616    0.7732 C   0  0  0  0  0  0  0  0  0  0  0  0
   -4.2371   -2.0766    1.2382 H   0  0  0  0  0  0  0  0  0  0  0  0
   -3.7681   -2.8816   -0.2818 H   0  0  0  0  0  0  0  0  0  0  0  0
   -2.1321   -2.2086    0.9112 C   0  0  0  0  0  0  0  0  0  0  0  0
   -1.2751   -2.8426    1.5112 O   0  0  0  0  0  0  0  0  0  0  0  0
   -1.9041   -1.0186    0.3602 N   0  0  0  0  0  0  0  0  0  0  0  0
   -2.6671   -0.5416   -0.0988 H   0  0  0  0  0  0  0  0  0  0  0  0
   -0.6131   -0.3236    0.3832 C   0  0  1  0  0  0  0  0  0  0  0  0
    0.1346   -0.9625   -0.0894 H   0  0  0  0  0  0  0  0  0  0  0  0
   -0.7253    0.9751   -0.4365 C   0  0  0  0  0  0  0  0  0  0  0  0
    0.2485    1.1966   -0.8783 H   0  0  0  0  0  0  0  0  0  0  0  0
   -1.4416    0.8287   -1.2462 H   0  0  0  0  0  0  0  0  0  0  0  0
   -1.1649    2.1869    0.3933 C   0  0  0  0  0  0  0  0  0  0  0  0
   -1.4887    2.9814   -0.2783 H   0  0  0  0  0  0  0  0  0  0  0  0
   -2.0066    1.8942    1.0219 H   0  0  0  0  0  0  0  0  0  0  0  0
    0.1411    2.8493    1.4588 S   0  0  0  0  0  0  0  0  0  0  0  0
    0.2806    1.4963    2.6553 C   0  0  0  0  0  0  0  0  0  0  0  0
    0.5596    0.5768    2.1398 H   0  0  0  0  0  0  0  0  0  0  0  0
    1.0469    1.7420    3.3910 H   0  0  0  0  0  0  0  0  0  0  0  0
   -0.6733    1.3556    3.1644 H   0  0  0  0  0  0  0  0  0  0  0  0
   -0.1711   -0.0594    1.8296 C   0  0  0  0  0  0  0  0  0  0  0  0
    0.9865   -0.2908    2.1726 O   0  0  0  0  0  0  0  0  0  0  0  0
   -1.0921    0.4156    2.6780 N   0  0  0  0  0  0  0  0  0  0  0  0
   -2.0168    0.5953    2.3206 H   0  0  0  0  0  0  0  0  0  0  0  0
   -0.8319    0.7034    4.0877 C   0  0  0  0  0  0  0  0  0  0  0  0
   -0.0192    1.4288    4.1710 H   0  0  0  0  0  0  0  0  0  0  0  0
   -1.7255    1.1088    4.5641 H   0  0  0  0  0  0  0  0  0  0  0  0
   -0.5319   -0.2118    4.6011 H   0  0  0  0  0  0  0  0  0  0  0  0
  5  6  2  0  0  0  0
  5  7  1  0  0  0  0
  2  3  1  0  0  0  0
  2  4  1  0  0  0  0
  2  5  1  0  0  0  0
  1  2  1  0  0  0  0
 22 23  2  0  0  0  0
 22 24  1  0  0  0  0
 18 19  1  0  0  0  0
 18 20  1  0  0  0  0
 18 21  1  0  0  0  0
 17 18  1  0  0  0  0
 14 15  1  0  0  0  0
 14 16  1  0  0  0  0
 14 17  1  0  0  0  0
 11 12  1  0  0  0  0
 11 13  1  0  0  0  0
 11 14  1  0  0  0  0
  9 10  1  0  0  0  0
  9 11  1  0  0  0  0
  9 22  1  0  0  0  0
  7  8  1  0  0  0  0
  7  9  1  0  0  0  0
 26 27  1  0  0  0  0
 26 28  1  0  0  0  0
 26 29  1  0  0  0  0
 24 25  1  0  0  0  0
 24 26  1  0  0  0  0
M  END
$$$$
default_name
  -OEChem-02102213163D

 29 28  0     1  0  0  0  0  0999 V2000
   -3.5781   -3.7296    1.2702 H   0  0  0  0  0  0  0  0  0  0  0  0
   -3.5311   -2.7616    0.7732 C   0  0  0  0  0  0  0  0  0  0  0  0
   -4.2371   -2.0766    1.2382 H   0  0  0  0  0  0  0  0  0  0  0  0
   -3.7681   -2.8816   -0.2818 H   0  0  0  0  0  0  0  0  0  0  0  0
   -2.1321   -2.2086    0.9112 C   0  0  0  0  0  0  0  0  0  0  0  0
   -1.2751   -2.8426    1.5112 O   0  0  0  0  0  0  0  0  0  0  0  0
   -1.9041   -1.0186    0.3602 N   0  0  0  0  0  0  0  0  0  0  0  0
   -2.6671   -0.5416   -0.0988 H   0  0  0  0  0  0  0  0  0  0  0  0
   -0.6131   -0.3236    0.3832 C   0  0  1  0  0  0  0  0  0  0  0  0
    0.1346   -0.9625   -0.0894 H   0  0  0  0  0  0  0  0  0  0  0  0
   -0.7253    0.9751   -0.4365 C   0  0  0  0  0  0  0  0  0  0  0  0
    0.2485    1.1966   -0.8783 H   0  0  0  0  0  0  0  0  0  0  0  0
   -1.4416    0.8287   -1.2462 H   0  0  0  0  0  0  0  0  0  0  0  0
   -1.1649    2.1869    0.3933 C   0  0  0  0  0  0  0  0  0  0  0  0
   -1.7299    2.8687   -0.2415 H   0  0  0  0  0  0  0  0  0  0  0  0
   -1.8118    1.8423    1.2009 H   0  0  0  0  0  0  0  0  0  0  0  0
    0.2147    3.1083    1.1195 S   0  0  0  0  0  0  0  0  0  0  0  0
    0.7883    1.8973    2.3386 C   0  0  0  0  0  0  0  0  0  0  0  0
    1.0917    0.9807    1.8318 H   0  0  0  0  0  0  0  0  0  0  0  0
    1.6410    2.3066    2.8811 H   0  0  0  0  0  0  0  0  0  0  0  0
   -0.0135    1.6773    3.0440 H   0  0  0  0  0  0  0  0  0  0  0  0
   -0.1711   -0.0594    1.8296 C   0  0  0  0  0  0  0  0  0  0  0  0
    0.9865   -0.2908    2.1726 O   0  0  0  0  0  0  0  0  0  0  0  0
   -1.0921    0.4156    2.6780 N   0  0  0  0  0  0  0  0  0  0  0  0
   -2.0168    0.5953    2.3206 H   0  0  0  0  0  0  0  0  0  0  0  0
   -0.8319    0.7034    4.0877 C   0  0  0  0  0  0  0  0  0  0  0  0
   -0.0192    1.4288    4.1710 H   0  0  0  0  0  0  0  0  0  0  0  0
   -1.7255    1.1088    4.5641 H   0  0  0  0  0  0  0  0  0  0  0  0
   -0.5319   -0.2118    4.6011 H   0  0  0  0  0  0  0  0  0  0  0  0
  5  6  2  0  0  0  0
  5  7  1  0  0  0  0
  2  3  1  0  0  0  0
  2  4  1  0  0  0  0
  2  5  1  0  0  0  0
  1  2  1  0  0  0  0
 22 23  2  0  0  0  0
 22 24  1  0  0  0  0
 18 19  1  0  0  0  0
 18 20  1  0  0  0  0
 18 21  1  0  0  0  0
 17 18  1  0  0  0  0
 14 15  1  0  0  0  0
 14 16  1  0  0  0  0
 14 17  1  0  0  0  0
 11 12  1  0  0  0  0
 11 13  1  0  0  0  0
 11 14  1  0  0  0  0
  9 10  1  0  0  0  0
  9 11  1  0  0  0  0
  9 22  1  0  0  0  0
  7  8  1  0  0  0  0
  7  9  1  0  0  0  0
 26 27  1  0  0  0  0
 26 28  1  0  0  0  0
 26 29  1  0  0  0  0
 24 25  1  0  0  0  0
 24 26  1  0  0  0  0
M  END
$$$$
default_name
  -OEChem-02102213163D

 29 28  0     1  0  0  0  0  0999 V2000
   -3.5781   -3.7296    1.2702 H   0  0  0  0  0  0  0  0  0  0  0  0
   -3.5311   -2.7616    0.7732 C   0  0  0  0  0  0  0  0  0  0  0  0
   -4.2371   -2.0766    1.2382 H   0  0  0  0  0  0  0  0  0  0  0  0
   -3.7681   -2.8816   -0.2818 H   0  0  0  0  0  0  0  0  0  0  0  0
   -2.1321   -2.2086    0.9112 C   0  0  0  0  0  0  0  0  0  0  0  0
   -1.2751   -2.8426    1.5112 O   0  0  0  0  0  0  0  0  0  0  0  0
   -1.9041   -1.0186    0.3602 N   0  0  0  0  0  0  0  0  0  0  0  0
   -2.6671   -0.5416   -0.0988 H   0  0  0  0  0  0  0  0  0  0  0  0
   -0.6131   -0.3236    0.3832 C   0  0  1  0  0  0  0  0  0  0  0  0
    0.1346   -0.9625   -0.0894 H   0  0  0  0  0  0  0  0  0  0  0  0
   -0.7253    0.9751   -0.4365 C   0  0  0  0  0  0  0  0  0  0  0  0
    0.2485    1.1966   -0.8783 H   0  0  0  0  0  0  0  0  0  0  0  0
   -1.4416    0.8287   -1.2462 H   0  0  0  0  0  0  0  0  0  0  0  0
   -1.1649    2.1869    0.3933 C   0  0  0  0  0  0  0  0  0  0  0  0
   -1.9395    2.7289   -0.1483 H   0  0  0  0  0  0  0  0  0  0  0  0
   -1.5797    1.8328    1.3377 H   0  0  0  0  0  0  0  0  0  0  0  0
    0.1801    3.3436    0.7575 S   0  0  0  0  0  0  0  0  0  0  0  0
    1.1578    2.3322    1.8991 C   0  0  0  0  0  0  0  0  0  0  0  0
    1.4861    1.4225    1.3955 H   0  0  0  0  0  0  0  0  0  0  0  0
    2.0314    2.8973    2.2251 H   0  0  0  0  0  0  0  0  0  0  0  0
    0.5541    2.0716    2.7689 H   0  0  0  0  0  0  0  0  0  0  0  0
   -0.1711   -0.0594    1.8296 C   0  0  0  0  0  0  0  0  0  0  0  0
    0.9865   -0.2908    2.1726 O   0  0  0  0  0  0  0  0  0  0  0  0
   -1.0921    0.4156    2.6780 N   0  0  0  0  0  0  0  0  0  0  0  0
   -2.0168    0.5953    2.3206 H   0  0  0  0  0  0  0  0  0  0  0  0
   -0.8319    0.7034    4.0877 C   0  0  0  0  0  0  0  0  0  0  0  0
   -0.0192    1.4288    4.1710 H   0  0  0  0  0  0  0  0  0  0  0  0
   -1.7255    1.1088    4.5641 H   0  0  0  0  0  0  0  0  0  0  0  0
   -0.5319   -0.2118    4.6011 H   0  0  0  0  0  0  0  0  0  0  0  0
  5  6  2  0  0  0  0
  5  7  1  0  0  0  0
  2  3  1  0  0  0  0
  2  4  1  0  0  0  0
  2  5  1  0  0  0  0
  1  2  1  0  0  0  0
 22 23  2  0  0  0  0
 22 24  1  0  0  0  0
 18 19  1  0  0  0  0
 18 20  1  0  0  0  0
 18 21  1  0  0  0  0
 17 18  1  0  0  0  0
 14 15  1  0  0  0  0
 14 16  1  0  0  0  0
 14 17  1  0  0  0  0
 11 12  1  0  0  0  0
 11 13  1  0  0  0  0
 11 14  1  0  0  0  0
  9 10  1  0  0  0  0
  9 11  1  0  0  0  0
  9 22  1  0  0  0  0
  7  8  1  0  0  0  0
  7  9  1  0  0  0  0
 26 27  1  0  0  0  0
 26 28  1  0  0  0  0
 26 29  1  0  0  0  0
 24 25  1  0  0  0  0
 24 26  1  0  0  0  0
M  END
$$$$
default_name
  -OEChem-02102213163D

 29 28  0     1  0  0  0  0  0999 V2000
   -3.5781   -3.7296    1.2702 H   0  0  0  0  0  0  0  0  0  0  0  0
   -3.5311   -2.7616    0.7732 C   0  0  0  0  0  0  0  0  0  0  0  0
   -4.2371   -2.0766    1.2382 H   0  0  0  0  0  0  0  0  0  0  0  0
   -3.7681   -2.8816   -0.2818 H   0  0  0  0  0  0  0  0  0  0  0  0
   -2.1321   -2.2086    0.9112 C   0  0  0  0  0  0  0  0  0  0  0  0
   -1.2751   -2.8426    1.5112 O   0  0  0  0  0  0  0  0  0  0  0  0
   -1.9041   -1.0186    0.3602 N   0  0  0  0  0  0  0  0  0  0  0  0
   -2.6671   -0.5416   -0.0988 H   0  0  0  0  0  0  0  0  0  0  0  0
   -0.6131   -0.3236    0.3832 C   0  0  1  0  0  0  0  0  0  0  0  0
    0.1346   -0.9625   -0.0894 H   0  0  0  0  0  0  0  0  0  0  0  0
   -0.7253    0.9751   -0.4365 C   0  0  0  0  0  0  0  0  0  0  0  0
    0.2485    1.1966   -0.8783 H   0  0  0  0  0  0  0  0  0  0  0  0
   -1.4416    0.8287   -1.2462 H   0  0  0  0  0  0  0  0  0  0  0  0
   -1.1649    2.1869    0.3933 C   0  0  0  0  0  0  0  0  0  0  0  0
   -2.1033    2.5713   -0.0050 H   0  0  0  0  0  0  0  0  0  0  0  0
   -1.3261    1.8663    1.4231 H   0  0  0  0  0  0  0  0  0  0  0  0
    0.0397    3.5392    0.3975 S   0  0  0  0  0  0  0  0  0  0  0  0
    1.3637    2.7715    1.3667 C   0  0  0  0  0  0  0  0  0  0  0  0
    1.7159    1.8722    0.8605 H   0  0  0  0  0  0  0  0  0  0  0  0
    2.1915    3.4739    1.4678 H   0  0  0  0  0  0  0  0  0  0  0  0
    0.9908    2.5115    2.3578 H   0  0  0  0  0  0  0  0  0  0  0  0
   -0.1711   -0.0594    1.8296 C   0  0  0  0  0  0  0  0  0  0  0  0
    0.9865   -0.2908    2.1726 O   0  0  0  0  0  0  0  0  0  0  0  0
   -1.0921    0.4156    2.6780 N   0  0  0  0  0  0  0  0  0  0  0  0
   -2.0168    0.5953    2.3206 H   0  0  0  0  0  0  0  0  0  0  0  0
   -0.8319    0.7034    4.0877 C   0  0  0  0  0  0  0  0  0  0  0  0
   -0.0192    1.4288    4.1710 H   0  0  0  0  0  0  0  0  0  0  0  0
   -1.7255    1.1088    4.5641 H   0  0  0  0  0  0  0  0  0  0  0  0
   -0.5319   -0.2118    4.6011 H   0  0  0  0  0  0  0  0  0  0  0  0
  5  6  2  0  0  0  0
  5  7  1  0  0  0  0
  2  3  1  0  0  0  0
  2  4  1  0  0  0  0
  2  5  1  0  0  0  0
  1  2  1  0  0  0  0
 22 23  2  0  0  0  0
 22 24  1  0  0  0  0
 18 19  1  0  0  0  0
 18 20  1  0  0  0  0
 18 21  1  0  0  0  0
 17 18  1  0  0  0  0
 14 15  1  0  0  0  0
 14 16  1  0  0  0  0
 14 17  1  0  0  0  0
 11 12  1  0  0  0  0
 11 13  1  0  0  0  0
 11 14  1  0  0  0  0
  9 10  1  0  0  0  0
  9 11  1  0  0  0  0
  9 22  1  0  0  0  0
  7  8  1  0  0  0  0
  7  9  1  0  0  0  0
 26 27  1  0  0  0  0
 26 28  1  0  0  0  0
 26 29  1  0  0  0  0
 24 25  1  0  0  0  0
 24 26  1  0  0  0  0
M  END
$$$$
default_name
  -OEChem-02102213163D

 29 28  0     1  0  0  0  0  0999 V2000
   -3.5781   -3.7296    1.2702 H   0  0  0  0  0  0  0  0  0  0  0  0
   -3.5311   -2.7616    0.7732 C   0  0  0  0  0  0  0  0  0  0  0  0
   -4.2371   -2.0766    1.2382 H   0  0  0  0  0  0  0  0  0  0  0  0
   -3.7681   -2.8816   -0.2818 H   0  0  0  0  0  0  0  0  0  0  0  0
   -2.1321   -2.2086    0.9112 C   0  0  0  0  0  0  0  0  0  0  0  0
   -1.2751   -2.8426    1.5112 O   0  0  0  0  0  0  0  0  0  0  0  0
   -1.9041   -1.0186    0.3602 N   0  0  0  0  0  0  0  0  0  0  0  0
   -2.6671   -0.5416   -0.0988 H   0  0  0  0  0  0  0  0  0  0  0  0
   -0.6131   -0.3236    0.3832 C   0  0  1  0  0  0  0  0  0  0  0  0
    0.1346   -0.9625   -0.0894 H   0  0  0  0  0  0  0  0  0  0  0  0
   -0.7253    0.9751   -0.4365 C   0  0  0  0  0  0  0  0  0  0  0  0
    0.2485    1.1966   -0.8783 H   0  0  0  0  0  0  0  0  0  0  0  0
   -1.4416    0.8287   -1.2462 H   0  0  0  0  0  0  0  0  0  0  0  0
   -1.1649    2.1869    0.3933 C   0  0  0  0  0  0  0  0  0  0  0  0
   -2.2102    2.4068    0.1786 H   0  0  0  0  0  0  0  0  0  0  0  0
   -1.0685    1.9405    1.4513 H   0  0  0  0  0  0  0  0  0  0  0  0
   -0.1970    3.6817    0.0640 S   0  0  0  0  0  0  0  0  0  0  0  0
    1.3923    3.1851    0.7777 C   0  0  0  0  0  0  0  0  0  0  0  0
    1.7654    2.2990    0.2634 H   0  0  0  0  0  0  0  0  0  0  0  0
    2.1104    3.9972    0.6608 H   0  0  0  0  0  0  0  0  0  0  0  0
    1.2670    2.9671    1.8386 H   0  0  0  0  0  0  0  0  0  0  0  0
   -0.1711   -0.0594    1.8296 C   0  0  0  0  0  0  0  0  0  0  0  0
    0.9865   -0.2908    2.1726 O   0  0  0  0  0  0  0  0  0  0  0  0
   -1.0921    0.4156    2.6780 N   0  0  0  0  0  0  0  0  0  0  0  0
   -2.0168    0.5953    2.3206 H   0  0  0  0  0  0  0  0  0  0  0  0
   -0.8319    0.7034    4.0877 C   0  0  0  0  0  0  0  0  0  0  0  0
   -0.0192    1.4288    4.1710 H   0  0  0  0  0  0  0  0  0  0  0  0
   -1.7255    1.1088    4.5641 H   0  0  0  0  0  0  0  0  0  0  0  0
   -0.5319   -0.2118    4.6011 H   0  0  0  0  0  0  0  0  0  0  0  0
  5  6  2  0  0  0  0
  5  7  1  0  0  0  0
  2  3  1  0  0  0  0
  2  4  1  0  0  0  0
  2  5  1  0  0  0  0
  1  2  1  0  0  0  0
 22 23  2  0  0  0  0
 22 24  1  0  0  0  0
 18 19  1  0  0  0  0
 18 20  1  0  0  0  0
 18 21  1  0  0  0  0
 17 18  1  0  0  0  0
 14 15  1  0  0  0  0
 14 16  1  0  0  0  0
 14 17  1  0  0  0  0
 11 12  1  0  0  0  0
 11 13  1  0  0  0  0
 11 14  1  0  0  0  0
  9 10  1  0  0  0  0
  9 11  1  0  0  0  0
  9 22  1  0  0  0  0
  7  8  1  0  0  0  0
  7  9  1  0  0  0  0
 26 27  1  0  0  0  0
 26 28  1  0  0  0  0
 26 29  1  0  0  0  0
 24 25  1  0  0  0  0
 24 26  1  0  0  0  0
M  END
$$$$
default_name
  -OEChem-02102213163D

 29 28  0     1  0  0  0  0  0999 V2000
   -3.5781   -3.7296    1.2702 H   0  0  0  0  0  0  0  0  0  0  0  0
   -3.5311   -2.7616    0.7732 C   0  0  0  0  0  0  0  0  0  0  0  0
   -4.2371   -2.0766    1.2382 H   0  0  0  0  0  0  0  0  0  0  0  0
   -3.7681   -2.8816   -0.2818 H   0  0  0  0  0  0  0  0  0  0  0  0
   -2.1321   -2.2086    0.9112 C   0  0  0  0  0  0  0  0  0  0  0  0
   -1.2751   -2.8426    1.5112 O   0  0  0  0  0  0  0  0  0  0  0  0
   -1.9041   -1.0186    0.3602 N   0  0  0  0  0  0  0  0  0  0  0  0
   -2.6671   -0.5416   -0.0988 H   0  0  0  0  0  0  0  0  0  0  0  0
   -0.6131   -0.3236    0.3832 C   0  0  1  0  0  0  0  0  0  0  0  0
    0.1346   -0.9625   -0.0894 H   0  0  0  0  0  0  0  0  0  0  0  0
   -0.7253    0.9751   -0.4365 C   0  0  0  0  0  0  0  0  0  0  0  0
    0.2485    1.1966   -0.8783 H   0  0  0  0  0  0  0  0  0  0  0  0
   -1.4416    0.8287   -1.2462 H   0  0  0  0  0  0  0  0  0  0  0  0
   -1.1649    2.1869    0.3933 C   0  0  0  0  0  0  0  0  0  0  0  0
   -2.2528    2.2466    0.3901 H   0  0  0  0  0  0  0  0  0  0  0  0
   -0.8242    2.0503    1.4203 H   0  0  0  0  0  0  0  0  0  0  0  0
   -0.5139    3.7614   -0.2204 S   0  0  0  0  0  0  0  0  0  0  0  0
    1.2413    3.5450    0.1722 C   0  0  0  0  0  0  0  0  0  0  0  0
    1.6313    2.6739   -0.3551 H   0  0  0  0  0  0  0  0  0  0  0  0
    1.7938    4.4313   -0.1410 H   0  0  0  0  0  0  0  0  0  0  0  0
    1.3636    3.4073    1.2469 H   0  0  0  0  0  0  0  0  0  0  0  0
   -0.1711   -0.0594    1.8296 C   0  0  0  0  0  0  0  0  0  0  0  0
    0.9865   -0.2908    2.1726 O   0  0  0  0  0  0  0  0  0  0  0  0
   -1.0921    0.4156    2.6780 N   0  0  0  0  0  0  0  0  0  0  0  0
   -2.0168    0.5953    2.3206 H   0  0  0  0  0  0  0  0  0  0  0  0
   -0.8319    0.7034    4.0877 C   0  0  0  0  0  0  0  0  0  0  0  0
   -0.0192    1.4288    4.1710 H   0  0  0  0  0  0  0  0  0  0  0  0
   -1.7255    1.1088    4.5641 H   0  0  0  0  0  0  0  0  0  0  0  0
   -0.5319   -0.2118    4.6011 H   0  0  0  0  0  0  0  0  0  0  0  0
  5  6  2  0  0  0  0
  5  7  1  0  0  0  0
  2  3  1  0  0  0  0
  2  4  1  0  0  0  0
  2  5  1  0  0  0  0
  1  2  1  0  0  0  0
 22 23  2  0  0  0  0
 22 24  1  0  0  0  0
 18 19  1  0  0  0  0
 18 20  1  0  0  0  0
 18 21  1  0  0  0  0
 17 18  1  0  0  0  0
 14 15  1  0  0  0  0
 14 16  1  0  0  0  0
 14 17  1  0  0  0  0
 11 12  1  0  0  0  0
 11 13  1  0  0  0  0
 11 14  1  0  0  0  0
  9 10  1  0  0  0  0
  9 11  1  0  0  0  0
  9 22  1  0  0  0  0
  7  8  1  0  0  0  0
  7  9  1  0  0  0  0
 26 27  1  0  0  0  0
 26 28  1  0  0  0  0
 26 29  1  0  0  0  0
 24 25  1  0  0  0  0
 24 26  1  0  0  0  0
M  END
$$$$
default_name
  -OEChem-02102213163D

 29 28  0     1  0  0  0  0  0999 V2000
   -3.5781   -3.7296    1.2702 H   0  0  0  0  0  0  0  0  0  0  0  0
   -3.5311   -2.7616    0.7732 C   0  0  0  0  0  0  0  0  0  0  0  0
   -4.2371   -2.0766    1.2382 H   0  0  0  0  0  0  0  0  0  0  0  0
   -3.7681   -2.8816   -0.2818 H   0  0  0  0  0  0  0  0  0  0  0  0
   -2.1321   -2.2086    0.9112 C   0  0  0  0  0  0  0  0  0  0  0  0
   -1.2751   -2.8426    1.5112 O   0  0  0  0  0  0  0  0  0  0  0  0
   -1.9041   -1.0186    0.3602 N   0  0  0  0  0  0  0  0  0  0  0  0
   -2.6671   -0.5416   -0.0988 H   0  0  0  0  0  0  0  0  0  0  0  0
   -0.6131   -0.3236    0.3832 C   0  0  1  0  0  0  0  0  0  0  0  0
    0.1346   -0.9625   -0.0894 H   0  0  0  0  0  0  0  0  0  0  0  0
   -0.7253    0.9751   -0.4365 C   0  0  0  0  0  0  0  0  0  0  0  0
    0.2485    1.1966   -0.8783 H   0  0  0  0  0  0  0  0  0  0  0  0
   -1.4416    0.8287   -1.2462 H   0  0  0  0  0  0  0  0  0  0  0  0
   -1.1649    2.1869    0.3933 C   0  0  0  0  0  0  0  0  0  0  0  0
   -2.2282    2.1015    0.6149 H   0  0  0  0  0  0  0  0  0  0  0  0
   -0.6100    2.1884    1.3322 H   0  0  0  0  0  0  0  0  0  0  0  0
   -0.8893    3.7730   -0.4361 S   0  0  0  0  0  0  0  0  0  0  0  0
    0.9213    3.8265   -0.4085 C   0  0  0  0  0  0  0  0  0  0  0  0
    1.3228    2.9713   -0.9530 H   0  0  0  0  0  0  0  0  0  0  0  0
    1.2630    4.7468   -0.8829 H   0  0  0  0  0  0  0  0  0  0  0  0
    1.2743    3.8022    0.6229 H   0  0  0  0  0  0  0  0  0  0  0  0
   -0.1711   -0.0594    1.8296 C   0  0  0  0  0  0  0  0  0  0  0  0
    0.9865   -0.2908    2.1726 O   0  0  0  0  0  0  0  0  0  0  0  0
   -1.0921    0.4156    2.6780 N   0  0  0  0  0  0  0  0  0  0  0  0
   -2.0168    0.5953    2.3206 H   0  0  0  0  0  0  0  0  0  0  0  0
   -0.8319    0.7034    4.0877 C   0  0  0  0  0  0  0  0  0  0  0  0
   -0.0192    1.4288    4.1710 H   0  0  0  0  0  0  0  0  0  0  0  0
   -1.7255    1.1088    4.5641 H   0  0  0  0  0  0  0  0  0  0  0  0
   -0.5319   -0.2118    4.6011 H   0  0  0  0  0  0  0  0  0  0  0  0
  5  6  2  0  0  0  0
  5  7  1  0  0  0  0
  2  3  1  0  0  0  0
  2  4  1  0  0  0  0
  2  5  1  0  0  0  0
  1  2  1  0  0  0  0
 22 23  2  0  0  0  0
 22 24  1  0  0  0  0
 18 19  1  0  0  0  0
 18 20  1  0  0  0  0
 18 21  1  0  0  0  0
 17 18  1  0  0  0  0
 14 15  1  0  0  0  0
 14 16  1  0  0  0  0
 14 17  1  0  0  0  0
 11 12  1  0  0  0  0
 11 13  1  0  0  0  0
 11 14  1  0  0  0  0
  9 10  1  0  0  0  0
  9 11  1  0  0  0  0
  9 22  1  0  0  0  0
  7  8  1  0  0  0  0
  7  9  1  0  0  0  0
 26 27  1  0  0  0  0
 26 28  1  0  0  0  0
 26 29  1  0  0  0  0
 24 25  1  0  0  0  0
 24 26  1  0  0  0  0
M  END
$$$$
default_name
  -OEChem-02102213163D

 29 28  0     1  0  0  0  0  0999 V2000
   -3.5781   -3.7296    1.2702 H   0  0  0  0  0  0  0  0  0  0  0  0
   -3.5311   -2.7616    0.7732 C   0  0  0  0  0  0  0  0  0  0  0  0
   -4.2371   -2.0766    1.2382 H   0  0  0  0  0  0  0  0  0  0  0  0
   -3.7681   -2.8816   -0.2818 H   0  0  0  0  0  0  0  0  0  0  0  0
   -2.1321   -2.2086    0.9112 C   0  0  0  0  0  0  0  0  0  0  0  0
   -1.2751   -2.8426    1.5112 O   0  0  0  0  0  0  0  0  0  0  0  0
   -1.9041   -1.0186    0.3602 N   0  0  0  0  0  0  0  0  0  0  0  0
   -2.6671   -0.5416   -0.0988 H   0  0  0  0  0  0  0  0  0  0  0  0
   -0.6131   -0.3236    0.3832 C   0  0  1  0  0  0  0  0  0  0  0  0
    0.1346   -0.9625   -0.0894 H   0  0  0  0  0  0  0  0  0  0  0  0
   -0.7253    0.9751   -0.4365 C   0  0  0  0  0  0  0  0  0  0  0  0
    0.1486    1.0567   -1.0863 H   0  0  0  0  0  0  0  0  0  0  0  0
   -1.6150    0.9274   -1.0660 H   0  0  0  0  0  0  0  0  0  0  0  0
   -0.8033    2.2394    0.4270 C   0  0  0  0  0  0  0  0  0  0  0  0
   -1.6739    2.1738    1.0789 H   0  0  0  0  0  0  0  0  0  0  0  0
    0.0936    2.2976    1.0446 H   0  0  0  0  0  0  0  0  0  0  0  0
   -0.9354    3.7682   -0.5348 S   0  0  0  0  0  0  0  0  0  0  0  0
    0.7186    3.8139   -1.2724 C   0  0  0  0  0  0  0  0  0  0  0  0
    0.8737    2.9238   -1.8829 H   0  0  0  0  0  0  0  0  0  0  0  0
    0.8098    4.7004   -1.9006 H   0  0  0  0  0  0  0  0  0  0  0  0
    1.4716    3.8534   -0.4848 H   0  0  0  0  0  0  0  0  0  0  0  0
   -0.1711   -0.0594    1.8296 C   0  0  0  0  0  0  0  0  0  0  0  0
    0.9865   -0.2908    2.1726 O   0  0  0  0  0  0  0  0  0  0  0  0
   -1.0921    0.4156    2.6780 N   0  0  0  0  0  0  0  0  0  0  0  0
   -2.0168    0.5953    2.3206 H   0  0  0  0  0  0  0  0  0  0  0  0
   -0.8319    0.7034    4.0877 C   0  0  0  0  0  0  0  0  0  0  0  0
   -0.0192    1.4288    4.1710 H   0  0  0  0  0  0  0  0  0  0  0  0
   -1.7255    1.1088    4.5641 H   0  0  0  0  0  0  0  0  0  0  0  0
   -0.5319   -0.2118    4.6011 H   0  0  0  0  0  0  0  0  0  0  0  0
  5  6  2  0  0  0  0
  5  7  1  0  0  0  0
  2  3  1  0  0  0  0
  2  4  1  0  0  0  0
  2  5  1  0  0  0  0
  1  2  1  0  0  0  0
 22 23  2  0  0  0  0
 22 24  1  0  0  0  0
 18 19  1  0  0  0  0
 18 20  1  0  0  0  0
 18 21  1  0  0  0  0
 17 18  1  0  0  0  0
 14 15  1  0  0  0  0
 14 16  1  0  0  0  0
 14 17  1  0  0  0  0
 11 12  1  0  0  0  0
 11 13  1  0  0  0  0
 11 14  1  0  0  0  0
  9 10  1  0  0  0  0
  9 11  1  0  0  0  0
  9 22  1  0  0  0  0
  7  8  1  0  0  0  0
  7  9  1  0  0  0  0
 26 27  1  0  0  0  0
 26 28  1  0  0  0  0
 26 29  1  0  0  0  0
 24 25  1  0  0  0  0
 24 26  1  0  0  0  0
M  END
$$$$
default_name
  -OEChem-02102213163D

 29 28  0     1  0  0  0  0  0999 V2000
   -3.5781   -3.7296    1.2702 H   0  0  0  0  0  0  0  0  0  0  0  0
   -3.5311   -2.7616    0.7732 C   0  0  0  0  0  0  0  0  0  0  0  0
   -4.2371   -2.0766    1.2382 H   0  0  0  0  0  0  0  0  0  0  0  0
   -3.7681   -2.8816   -0.2818 H   0  0  0  0  0  0  0  0  0  0  0  0
   -2.1321   -2.2086    0.9112 C   0  0  0  0  0  0  0  0  0  0  0  0
   -1.2751   -2.8426    1.5112 O   0  0  0  0  0  0  0  0  0  0  0  0
   -1.9041   -1.0186    0.3602 N   0  0  0  0  0  0  0  0  0  0  0  0
   -2.6671   -0.5416   -0.0988 H   0  0  0  0  0  0  0  0  0  0  0  0
   -0.6131   -0.3236    0.3832 C   0  0  1  0  0  0  0  0  0  0  0  0
    0.1346   -0.9625   -0.0894 H   0  0  0  0  0  0  0  0  0  0  0  0
   -0.7253    0.9751   -0.4365 C   0  0  0  0  0  0  0  0  0  0  0  0
    0.1486    1.0567   -1.0863 H   0  0  0  0  0  0  0  0  0  0  0  0
   -1.6150    0.9274   -1.0660 H   0  0  0  0  0  0  0  0  0  0  0  0
   -0.8033    2.2394    0.4270 C   0  0  0  0  0  0  0  0  0  0  0  0
   -1.4961    2.0678    1.2502 H   0  0  0  0  0  0  0  0  0  0  0  0
    0.1858    2.4444    0.8380 H   0  0  0  0  0  0  0  0  0  0  0  0
   -1.3603    3.7046   -0.4800 S   0  0  0  0  0  0  0  0  0  0  0  0
    0.0740    3.9672   -1.5550 C   0  0  0  0  0  0  0  0  0  0  0  0
    0.2251    3.0915   -2.1869 H   0  0  0  0  0  0  0  0  0  0  0  0
   -0.1019    4.8390   -2.1858 H   0  0  0  0  0  0  0  0  0  0  0  0
    0.9630    4.1377   -0.9471 H   0  0  0  0  0  0  0  0  0  0  0  0
   -0.1711   -0.0594    1.8296 C   0  0  0  0  0  0  0  0  0  0  0  0
    0.9865   -0.2908    2.1726 O   0  0  0  0  0  0  0  0  0  0  0  0
   -1.0921    0.4156    2.6780 N   0  0  0  0  0  0  0  0  0  0  0  0
   -2.0168    0.5953    2.3206 H   0  0  0  0  0  0  0  0  0  0  0  0
   -0.8319    0.7034    4.0877 C   0  0  0  0  0  0  0  0  0  0  0  0
   -0.0192    1.4288    4.1710 H   0  0  0  0  0  0  0  0  0  0  0  0
   -1.7255    1.1088    4.5641 H   0  0  0  0  0  0  0  0  0  0  0  0
   -0.5319   -0.2118    4.6011 H   0  0  0  0  0  0  0  0  0  0  0  0
  5  6  2  0  0  0  0
  5  7  1  0  0  0  0
  2  3  1  0  0  0  0
  2  4  1  0  0  0  0
  2  5  1  0  0  0  0
  1  2  1  0  0  0  0
 22 23  2  0  0  0  0
 22 24  1  0  0  0  0
 18 19  1  0  0  0  0
 18 20  1  0  0  0  0
 18 21  1  0  0  0  0
 17 18  1  0  0  0  0
 14 15  1  0  0  0  0
 14 16  1  0  0  0  0
 14 17  1  0  0  0  0
 11 12  1  0  0  0  0
 11 13  1  0  0  0  0
 11 14  1  0  0  0  0
  9 10  1  0  0  0  0
  9 11  1  0  0  0  0
  9 22  1  0  0  0  0
  7  8  1  0  0  0  0
  7  9  1  0  0  0  0
 26 27  1  0  0  0  0
 26 28  1  0  0  0  0
 26 29  1  0  0  0  0
 24 25  1  0  0  0  0
 24 26  1  0  0  0  0
M  END
$$$$
default_name
  -OEChem-02102213163D

 29 28  0     1  0  0  0  0  0999 V2000
   -3.5781   -3.7296    1.2702 H   0  0  0  0  0  0  0  0  0  0  0  0
   -3.5311   -2.7616    0.7732 C   0  0  0  0  0  0  0  0  0  0  0  0
   -4.2371   -2.0766    1.2382 H   0  0  0  0  0  0  0  0  0  0  0  0
   -3.7681   -2.8816   -0.2818 H   0  0  0  0  0  0  0  0  0  0  0  0
   -2.1321   -2.2086    0.9112 C   0  0  0  0  0  0  0  0  0  0  0  0
   -1.2751   -2.8426    1.5112 O   0  0  0  0  0  0  0  0  0  0  0  0
   -1.9041   -1.0186    0.3602 N   0  0  0  0  0  0  0  0  0  0  0  0
   -2.6671   -0.5416   -0.0988 H   0  0  0  0  0  0  0  0  0  0  0  0
   -0.6131   -0.3236    0.3832 C   0  0  1  0  0  0  0  0  0  0  0  0
    0.1346   -0.9625   -0.0894 H   0  0  0  0  0  0  0  0  0  0  0  0
   -0.7253    0.9751   -0.4365 C   0  0  0  0  0  0  0  0  0  0  0  0
    0.1486    1.0567   -1.0863 H   0  0  0  0  0  0  0  0  0  0  0  0
   -1.6150    0.9274   -1.0660 H   0  0  0  0  0  0  0  0  0  0  0  0
   -0.8033    2.2394    0.4270 C   0  0  0  0  0  0  0  0  0  0  0  0
   -1.2724    1.9935    1.3792 H   0  0  0  0  0  0  0  0  0  0  0  0
    0.2094    2.5969    0.6169 H   0  0  0  0  0  0  0  0  0  0  0  0
   -1.7498    3.5819   -0.3356 S   0  0  0  0  0  0  0  0  0  0  0  0
   -0.6313    4.0175   -1.6924 C   0  0  0  0  0  0  0  0  0  0  0  0
   -0.4906    3.1548   -2.3444 H   0  0  0  0  0  0  0  0  0  0  0  0
   -1.0635    4.8361   -2.2685 H   0  0  0  0  0  0  0  0  0  0  0  0
    0.3315    4.3322   -1.2888 H   0  0  0  0  0  0  0  0  0  0  0  0
   -0.1711   -0.0594    1.8296 C   0  0  0  0  0  0  0  0  0  0  0  0
    0.9865   -0.2908    2.1726 O   0  0  0  0  0  0  0  0  0  0  0  0
   -1.0921    0.4156    2.6780 N   0  0  0  0  0  0  0  0  0  0  0  0
   -2.0168    0.5953    2.3206 H   0  0  0  0  0  0  0  0  0  0  0  0
   -0.8319    0.7034    4.0877 C   0  0  0  0  0  0  0  0  0  0  0  0
   -0.0192    1.4288    4.1710 H   0  0  0  0  0  0  0  0  0  0  0  0
   -1.7255    1.1088    4.5641 H   0  0  0  0  0  0  0  0  0  0  0  0
   -0.5319   -0.2118    4.6011 H   0  0  0  0  0  0  0  0  0  0  0  0
  5  6  2  0  0  0  0
  5  7  1  0  0  0  0
  2  3  1  0  0  0  0
  2  4  1  0  0  0  0
  2  5  1  0  0  0  0
  1  2  1  0  0  0  0
 22 23  2  0  0  0  0
 22 24  1  0  0  0  0
 18 19  1  0  0  0  0
 18 20  1  0  0  0  0
 18 21  1  0  0  0  0
 17 18  1  0  0  0  0
 14 15  1  0  0  0  0
 14 16  1  0  0  0  0
 14 17  1  0  0  0  0
 11 12  1  0  0  0  0
 11 13  1  0  0  0  0
 11 14  1  0  0  0  0
  9 10  1  0  0  0  0
  9 11  1  0  0  0  0
  9 22  1  0  0  0  0
  7  8  1  0  0  0  0
  7  9  1  0  0  0  0
 26 27  1  0  0  0  0
 26 28  1  0  0  0  0
 26 29  1  0  0  0  0
 24 25  1  0  0  0  0
 24 26  1  0  0  0  0
M  END
$$$$
default_name
  -OEChem-02102213163D

 29 28  0     1  0  0  0  0  0999 V2000
   -3.5781   -3.7296    1.2702 H   0  0  0  0  0  0  0  0  0  0  0  0
   -3.5311   -2.7616    0.7732 C   0  0  0  0  0  0  0  0  0  0  0  0
   -4.2371   -2.0766    1.2382 H   0  0  0  0  0  0  0  0  0  0  0  0
   -3.7681   -2.8816   -0.2818 H   0  0  0  0  0  0  0  0  0  0  0  0
   -2.1321   -2.2086    0.9112 C   0  0  0  0  0  0  0  0  0  0  0  0
   -1.2751   -2.8426    1.5112 O   0  0  0  0  0  0  0  0  0  0  0  0
   -1.9041   -1.0186    0.3602 N   0  0  0  0  0  0  0  0  0  0  0  0
   -2.6671   -0.5416   -0.0988 H   0  0  0  0  0  0  0  0  0  0  0  0
   -0.6131   -0.3236    0.3832 C   0  0  1  0  0  0  0  0  0  0  0  0
    0.1346   -0.9625   -0.0894 H   0  0  0  0  0  0  0  0  0  0  0  0
   -0.7253    0.9751   -0.4365 C   0  0  0  0  0  0  0  0  0  0  0  0
    0.1486    1.0567   -1.0863 H   0  0  0  0  0  0  0  0  0  0  0  0
   -1.6150    0.9274   -1.0660 H   0  0  0  0  0  0  0  0  0  0  0  0
   -0.8033    2.2394    0.4270 C   0  0  0  0  0  0  0  0  0  0  0  0
   -1.0180    1.9561    1.4569 H   0  0  0  0  0  0  0  0  0  0  0  0
    0.1627    2.7446    0.3963 H   0  0  0  0  0  0  0  0  0  0  0  0
   -2.0773    3.4085   -0.1114 S   0  0  0  0  0  0  0  0  0  0  0  0
   -1.3492    3.9615   -1.6753 C   0  0  0  0  0  0  0  0  0  0  0  0
   -1.2249    3.1096   -2.3445 H   0  0  0  0  0  0  0  0  0  0  0  0
   -2.0097    4.6921   -2.1431 H   0  0  0  0  0  0  0  0  0  0  0  0
   -0.3797    4.4234   -1.4867 H   0  0  0  0  0  0  0  0  0  0  0  0
   -0.1711   -0.0594    1.8296 C   0  0  0  0  0  0  0  0  0  0  0  0
    0.9865   -0.2908    2.1726 O   0  0  0  0  0  0  0  0  0  0  0  0
   -1.0921    0.4156    2.6780 N   0  0  0  0  0  0  0  0  0  0  0  0
   -2.0168    0.5953    2.3206 H   0  0  0  0  0  0  0  0  0  0  0  0
   -0.8319    0.7034    4.0877 C   0  0  0  0  0  0  0  0  0  0  0  0
   -0.0192    1.4288    4.1710 H   0  0  0  0  0  0  0  0  0  0  0  0
   -1.7255    1.1088    4.5641 H   0  0  0  0  0  0  0  0  0  0  0  0
   -0.5319   -0.2118    4.6011 H   0  0  0  0  0  0  0  0  0  0  0  0
  5  6  2  0  0  0  0
  5  7  1  0  0  0  0
  2  3  1  0  0  0  0
  2  4  1  0  0  0  0
  2  5  1  0  0  0  0
  1  2  1  0  0  0  0
 22 23  2  0  0  0  0
 22 24  1  0  0  0  0
 18 19  1  0  0  0  0
 18 20  1  0  0  0  0
 18 21  1  0  0  0  0
 17 18  1  0  0  0  0
 14 15  1  0  0  0  0
 14 16  1  0  0  0  0
 14 17  1  0  0  0  0
 11 12  1  0  0  0  0
 11 13  1  0  0  0  0
 11 14  1  0  0  0  0
  9 10  1  0  0  0  0
  9 11  1  0  0  0  0
  9 22  1  0  0  0  0
  7  8  1  0  0  0  0
  7  9  1  0  0  0  0
 26 27  1  0  0  0  0
 26 28  1  0  0  0  0
 26 29  1  0  0  0  0
 24 25  1  0  0  0  0
 24 26  1  0  0  0  0
M  END
$$$$
default_name
  -OEChem-02102213163D

 29 28  0     1  0  0  0  0  0999 V2000
   -3.5781   -3.7296    1.2702 H   0  0  0  0  0  0  0  0  0  0  0  0
   -3.5311   -2.7616    0.7732 C   0  0  0  0  0  0  0  0  0  0  0  0
   -4.2371   -2.0766    1.2382 H   0  0  0  0  0  0  0  0  0  0  0  0
   -3.7681   -2.8816   -0.2818 H   0  0  0  0  0  0  0  0  0  0  0  0
   -2.1321   -2.2086    0.9112 C   0  0  0  0  0  0  0  0  0  0  0  0
   -1.2751   -2.8426    1.5112 O   0  0  0  0  0  0  0  0  0  0  0  0
   -1.9041   -1.0186    0.3602 N   0  0  0  0  0  0  0  0  0  0  0  0
   -2.6671   -0.5416   -0.0988 H   0  0  0  0  0  0  0  0  0  0  0  0
   -0.6131   -0.3236    0.3832 C   0  0  1  0  0  0  0  0  0  0  0  0
    0.1346   -0.9625   -0.0894 H   0  0  0  0  0  0  0  0  0  0  0  0
   -0.7253    0.9751   -0.4365 C   0  0  0  0  0  0  0  0  0  0  0  0
    0.1486    1.0567   -1.0863 H   0  0  0  0  0  0  0  0  0  0  0  0
   -1.6150    0.9274   -1.0660 H   0  0  0  0  0  0  0  0  0  0  0  0
   -0.8033    2.2394    0.4270 C   0  0  0  0  0  0  0  0  0  0  0  0
   -0.7501    1.9581    1.4783 H   0  0  0  0  0  0  0  0  0  0  0  0
    0.0490    2.8777    0.1912 H   0  0  0  0  0  0  0  0  0  0  0  0
   -2.3205    3.1963    0.1775 S   0  0  0  0  0  0  0  0  0  0  0  0
   -2.0308    3.8030   -1.5048 C   0  0  0  0  0  0  0  0  0  0  0  0
   -1.9275    2.9589   -2.1873 H   0  0  0  0  0  0  0  0  0  0  0  0
   -2.8758    4.4167   -1.8181 H   0  0  0  0  0  0  0  0  0  0  0  0
   -1.1222    4.4052   -1.5272 H   0  0  0  0  0  0  0  0  0  0  0  0
   -0.1711   -0.0594    1.8296 C   0  0  0  0  0  0  0  0  0  0  0  0
    0.9865   -0.2908    2.1726 O   0  0  0  0  0  0  0  0  0  0  0  0
   -1.0921    0.4156    2.6780 N   0  0  0  0  0  0  0  0  0  0  0  0
   -2.0168    0.5953    2.3206 H   0  0  0  0  0  0  0  0  0  0  0  0
   -0.8319    0.7034    4.0877 C   0  0  0  0  0  0  0  0  0  0  0  0
   -0.0192    1.4288    4.1710 H   0  0  0  0  0  0  0  0  0  0  0  0
   -1.7255    1.1088    4.5641 H   0  0  0  0  0  0  0  0  0  0  0  0
   -0.5319   -0.2118    4.6011 H   0  0  0  0  0  0  0  0  0  0  0  0
  5  6  2  0  0  0  0
  5  7  1  0  0  0  0
  2  3  1  0  0  0  0
  2  4  1  0  0  0  0
  2  5  1  0  0  0  0
  1  2  1  0  0  0  0
 22 23  2  0  0  0  0
 22 24  1  0  0  0  0
 18 19  1  0  0  0  0
 18 20  1  0  0  0  0
 18 21  1  0  0  0  0
 17 18  1  0  0  0  0
 14 15  1  0  0  0  0
 14 16  1  0  0  0  0
 14 17  1  0  0  0  0
 11 12  1  0  0  0  0
 11 13  1  0  0  0  0
 11 14  1  0  0  0  0
  9 10  1  0  0  0  0
  9 11  1  0  0  0  0
  9 22  1  0  0  0  0
  7  8  1  0  0  0  0
  7  9  1  0  0  0  0
 26 27  1  0  0  0  0
 26 28  1  0  0  0  0
 26 29  1  0  0  0  0
 24 25  1  0  0  0  0
 24 26  1  0  0  0  0
M  END
$$$$
default_name
  -OEChem-02102213163D

 29 28  0     1  0  0  0  0  0999 V2000
   -3.5781   -3.7296    1.2702 H   0  0  0  0  0  0  0  0  0  0  0  0
   -3.5311   -2.7616    0.7732 C   0  0  0  0  0  0  0  0  0  0  0  0
   -4.2371   -2.0766    1.2382 H   0  0  0  0  0  0  0  0  0  0  0  0
   -3.7681   -2.8816   -0.2818 H   0  0  0  0  0  0  0  0  0  0  0  0
   -2.1321   -2.2086    0.9112 C   0  0  0  0  0  0  0  0  0  0  0  0
   -1.2751   -2.8426    1.5112 O   0  0  0  0  0  0  0  0  0  0  0  0
   -1.9041   -1.0186    0.3602 N   0  0  0  0  0  0  0  0  0  0  0  0
   -2.6671   -0.5416   -0.0988 H   0  0  0  0  0  0  0  0  0  0  0  0
   -0.6131   -0.3236    0.3832 C   0  0  1  0  0  0  0  0  0  0  0  0
    0.1346   -0.9625   -0.0894 H   0  0  0  0  0  0  0  0  0  0  0  0
   -0.7253    0.9751   -0.4365 C   0  0  0  0  0  0  0  0  0  0  0  0
    0.1486    1.0567   -1.0863 H   0  0  0  0  0  0  0  0  0  0  0  0
   -1.6150    0.9274   -1.0660 H   0  0  0  0  0  0  0  0  0  0  0  0
   -0.8033    2.2394    0.4270 C   0  0  0  0  0  0  0  0  0  0  0  0
   -0.4871    1.9993    1.4416 H   0  0  0  0  0  0  0  0  0  0  0  0
   -0.1241    2.9869    0.0156 H   0  0  0  0  0  0  0  0  0  0  0  0
   -2.4628    2.9596    0.5111 S   0  0  0  0  0  0  0  0  0  0  0  0
   -2.6297    3.5527   -1.1925 C   0  0  0  0  0  0  0  0  0  0  0  0
   -2.5507    2.7130   -1.8835 H   0  0  0  0  0  0  0  0  0  0  0  0
   -3.6029    4.0287   -1.3157 H   0  0  0  0  0  0  0  0  0  0  0  0
   -1.8454    4.2789   -1.4076 H   0  0  0  0  0  0  0  0  0  0  0  0
   -0.1711   -0.0594    1.8296 C   0  0  0  0  0  0  0  0  0  0  0  0
    0.9865   -0.2908    2.1726 O   0  0  0  0  0  0  0  0  0  0  0  0
   -1.0921    0.4156    2.6780 N   0  0  0  0  0  0  0  0  0  0  0  0
   -2.0168    0.5953    2.3206 H   0  0  0  0  0  0  0  0  0  0  0  0
   -0.8319    0.7034    4.0877 C   0  0  0  0  0  0  0  0  0  0  0  0
   -0.0192    1.4288    4.1710 H   0  0  0  0  0  0  0  0  0  0  0  0
   -1.7255    1.1088    4.5641 H   0  0  0  0  0  0  0  0  0  0  0  0
   -0.5319   -0.2118    4.6011 H   0  0  0  0  0  0  0  0  0  0  0  0
  5  6  2  0  0  0  0
  5  7  1  0  0  0  0
  2  3  1  0  0  0  0
  2  4  1  0  0  0  0
  2  5  1  0  0  0  0
  1  2  1  0  0  0  0
 22 23  2  0  0  0  0
 22 24  1  0  0  0  0
 18 19  1  0  0  0  0
 18 20  1  0  0  0  0
 18 21  1  0  0  0  0
 17 18  1  0  0  0  0
 14 15  1  0  0  0  0
 14 16  1  0  0  0  0
 14 17  1  0  0  0  0
 11 12  1  0  0  0  0
 11 13  1  0  0  0  0
 11 14  1  0  0  0  0
  9 10  1  0  0  0  0
  9 11  1  0  0  0  0
  9 22  1  0  0  0  0
  7  8  1  0  0  0  0
  7  9  1  0  0  0  0
 26 27  1  0  0  0  0
 26 28  1  0  0  0  0
 26 29  1  0  0  0  0
 24 25  1  0  0  0  0
 24 26  1  0  0  0  0
M  END
$$$$
default_name
  -OEChem-02102213163D

 29 28  0     1  0  0  0  0  0999 V2000
   -3.5781   -3.7296    1.2702 H   0  0  0  0  0  0  0  0  0  0  0  0
   -3.5311   -2.7616    0.7732 C   0  0  0  0  0  0  0  0  0  0  0  0
   -4.2371   -2.0766    1.2382 H   0  0  0  0  0  0  0  0  0  0  0  0
   -3.7681   -2.8816   -0.2818 H   0  0  0  0  0  0  0  0  0  0  0  0
   -2.1321   -2.2086    0.9112 C   0  0  0  0  0  0  0  0  0  0  0  0
   -1.2751   -2.8426    1.5112 O   0  0  0  0  0  0  0  0  0  0  0  0
   -1.9041   -1.0186    0.3602 N   0  0  0  0  0  0  0  0  0  0  0  0
   -2.6671   -0.5416   -0.0988 H   0  0  0  0  0  0  0  0  0  0  0  0
   -0.6131   -0.3236    0.3832 C   0  0  1  0  0  0  0  0  0  0  0  0
    0.1346   -0.9625   -0.0894 H   0  0  0  0  0  0  0  0  0  0  0  0
   -0.7253    0.9751   -0.4365 C   0  0  0  0  0  0  0  0  0  0  0  0
    0.1486    1.0567   -1.0863 H   0  0  0  0  0  0  0  0  0  0  0  0
   -1.6150    0.9274   -1.0660 H   0  0  0  0  0  0  0  0  0  0  0  0
   -0.8033    2.2394    0.4270 C   0  0  0  0  0  0  0  0  0  0  0  0
   -0.2470    2.0770    1.3496 H   0  0  0  0  0  0  0  0  0  0  0  0
   -0.3446    3.0649   -0.1185 H   0  0  0  0  0  0  0  0  0  0  0  0
   -2.4945    2.7147    0.8669 S   0  0  0  0  0  0  0  0  0  0  0  0
   -3.1051    3.2278   -0.7596 C   0  0  0  0  0  0  0  0  0  0  0  0
   -3.0520    2.3886   -1.4538 H   0  0  0  0  0  0  0  0  0  0  0  0
   -4.1415    3.5546   -0.6701 H   0  0  0  0  0  0  0  0  0  0  0  0
   -2.5001    4.0531   -1.1361 H   0  0  0  0  0  0  0  0  0  0  0  0
   -0.1711   -0.0594    1.8296 C   0  0  0  0  0  0  0  0  0  0  0  0
    0.9865   -0.2908    2.1726 O   0  0  0  0  0  0  0  0  0  0  0  0
   -1.0921    0.4156    2.6780 N   0  0  0  0  0  0  0  0  0  0  0  0
   -2.0168    0.5953    2.3206 H   0  0  0  0  0  0  0  0  0  0  0  0
   -0.8319    0.7034    4.0877 C   0  0  0  0  0  0  0  0  0  0  0  0
   -0.0192    1.4288    4.1710 H   0  0  0  0  0  0  0  0  0  0  0  0
   -1.7255    1.1088    4.5641 H   0  0  0  0  0  0  0  0  0  0  0  0
   -0.5319   -0.2118    4.6011 H   0  0  0  0  0  0  0  0  0  0  0  0
  5  6  2  0  0  0  0
  5  7  1  0  0  0  0
  2  3  1  0  0  0  0
  2  4  1  0  0  0  0
  2  5  1  0  0  0  0
  1  2  1  0  0  0  0
 22 23  2  0  0  0  0
 22 24  1  0  0  0  0
 18 19  1  0  0  0  0
 18 20  1  0  0  0  0
 18 21  1  0  0  0  0
 17 18  1  0  0  0  0
 14 15  1  0  0  0  0
 14 16  1  0  0  0  0
 14 17  1  0  0  0  0
 11 12  1  0  0  0  0
 11 13  1  0  0  0  0
 11 14  1  0  0  0  0
  9 10  1  0  0  0  0
  9 11  1  0  0  0  0
  9 22  1  0  0  0  0
  7  8  1  0  0  0  0
  7  9  1  0  0  0  0
 26 27  1  0  0  0  0
 26 28  1  0  0  0  0
 26 29  1  0  0  0  0
 24 25  1  0  0  0  0
 24 26  1  0  0  0  0
M  END
$$$$
default_name
  -OEChem-02102213163D

 29 28  0     1  0  0  0  0  0999 V2000
   -3.5781   -3.7296    1.2702 H   0  0  0  0  0  0  0  0  0  0  0  0
   -3.5311   -2.7616    0.7732 C   0  0  0  0  0  0  0  0  0  0  0  0
   -4.2371   -2.0766    1.2382 H   0  0  0  0  0  0  0  0  0  0  0  0
   -3.7681   -2.8816   -0.2818 H   0  0  0  0  0  0  0  0  0  0  0  0
   -2.1321   -2.2086    0.9112 C   0  0  0  0  0  0  0  0  0  0  0  0
   -1.2751   -2.8426    1.5112 O   0  0  0  0  0  0  0  0  0  0  0  0
   -1.9041   -1.0186    0.3602 N   0  0  0  0  0  0  0  0  0  0  0  0
   -2.6671   -0.5416   -0.0988 H   0  0  0  0  0  0  0  0  0  0  0  0
   -0.6131   -0.3236    0.3832 C   0  0  1  0  0  0  0  0  0  0  0  0
    0.1346   -0.9625   -0.0894 H   0  0  0  0  0  0  0  0  0  0  0  0
   -0.7253    0.9751   -0.4365 C   0  0  0  0  0  0  0  0  0  0  0  0
    0.1486    1.0567   -1.0863 H   0  0  0  0  0  0  0  0  0  0  0  0
   -1.6150    0.9274   -1.0660 H   0  0  0  0  0  0  0  0  0  0  0  0
   -0.8033    2.2394    0.4270 C   0  0  0  0  0  0  0  0  0  0  0  0
   -0.0459    2.1858    1.2084 H   0  0  0  0  0  0  0  0  0  0  0  0
   -0.5976    3.1063   -0.2019 H   0  0  0  0  0  0  0  0  0  0  0  0
   -2.4136    2.4781    1.2206 S   0  0  0  0  0  0  0  0  0  0  0  0
   -3.4245    2.8504   -0.2358 C   0  0  0  0  0  0  0  0  0  0  0  0
   -3.3972    2.0078   -0.9275 H   0  0  0  0  0  0  0  0  0  0  0  0
   -4.4547    3.0266    0.0747 H   0  0  0  0  0  0  0  0  0  0  0  0
   -3.0415    3.7431   -0.7311 H   0  0  0  0  0  0  0  0  0  0  0  0
   -0.1711   -0.0594    1.8296 C   0  0  0  0  0  0  0  0  0  0  0  0
    0.9865   -0.2908    2.1726 O   0  0  0  0  0  0  0  0  0  0  0  0
   -1.0921    0.4156    2.6780 N   0  0  0  0  0  0  0  0  0  0  0  0
   -2.0168    0.5953    2.3206 H   0  0  0  0  0  0  0  0  0  0  0  0
   -0.8319    0.7034    4.0877 C   0  0  0  0  0  0  0  0  0  0  0  0
   -0.0192    1.4288    4.1710 H   0  0  0  0  0  0  0  0  0  0  0  0
   -1.7255    1.1088    4.5641 H   0  0  0  0  0  0  0  0  0  0  0  0
   -0.5319   -0.2118    4.6011 H   0  0  0  0  0  0  0  0  0  0  0  0
  5  6  2  0  0  0  0
  5  7  1  0  0  0  0
  2  3  1  0  0  0  0
  2  4  1  0  0  0  0
  2  5  1  0  0  0  0
  1  2  1  0  0  0  0
 22 23  2  0  0  0  0
 22 24  1  0  0  0  0
 18 19  1  0  0  0  0
 18 20  1  0  0  0  0
 18 21  1  0  0  0  0
 17 18  1  0  0  0  0
 14 15  1  0  0  0  0
 14 16  1  0  0  0  0
 14 17  1  0  0  0  0
 11 12  1  0  0  0  0
 11 13  1  0  0  0  0
 11 14  1  0  0  0  0
  9 10  1  0  0  0  0
  9 11  1  0  0  0  0
  9 22  1  0  0  0  0
  7  8  1  0  0  0  0
  7  9  1  0  0  0  0
 26 27  1  0  0  0  0
 26 28  1  0  0  0  0
 26 29  1  0  0  0  0
 24 25  1  0  0  0  0
 24 26  1  0  0  0  0
M  END
$$$$
default_name
  -OEChem-02102213163D

 29 28  0     1  0  0  0  0  0999 V2000
   -3.5781   -3.7296    1.2702 H   0  0  0  0  0  0  0  0  0  0  0  0
   -3.5311   -2.7616    0.7732 C   0  0  0  0  0  0  0  0  0  0  0  0
   -4.2371   -2.0766    1.2382 H   0  0  0  0  0  0  0  0  0  0  0  0
   -3.7681   -2.8816   -0.2818 H   0  0  0  0  0  0  0  0  0  0  0  0
   -2.1321   -2.2086    0.9112 C   0  0  0  0  0  0  0  0  0  0  0  0
   -1.2751   -2.8426    1.5112 O   0  0  0  0  0  0  0  0  0  0  0  0
   -1.9041   -1.0186    0.3602 N   0  0  0  0  0  0  0  0  0  0  0  0
   -2.6671   -0.5416   -0.0988 H   0  0  0  0  0  0  0  0  0  0  0  0
   -0.6131   -0.3236    0.3832 C   0  0  1  0  0  0  0  0  0  0  0  0
    0.1346   -0.9625   -0.0894 H   0  0  0  0  0  0  0  0  0  0  0  0
   -0.7253    0.9751   -0.4365 C   0  0  0  0  0  0  0  0  0  0  0  0
    0.1486    1.0567   -1.0863 H   0  0  0  0  0  0  0  0  0  0  0  0
   -1.6150    0.9274   -1.0660 H   0  0  0  0  0  0  0  0  0  0  0  0
   -0.8033    2.2394    0.4270 C   0  0  0  0  0  0  0  0  0  0  0  0
    0.1023    2.3184    1.0277 H   0  0  0  0  0  0  0  0  0  0  0  0
   -0.8658    3.1083   -0.2291 H   0  0  0  0  0  0  0  0  0  0  0  0
   -2.2253    2.2661    1.5481 S   0  0  0  0  0  0  0  0  0  0  0  0
   -3.5662    2.4461    0.3433 C   0  0  0  0  0  0  0  0  0  0  0  0
   -3.5627    1.5967   -0.3404 H   0  0  0  0  0  0  0  0  0  0  0  0
   -4.5213    2.4807    0.8680 H   0  0  0  0  0  0  0  0  0  0  0  0
   -3.4329    3.3700   -0.2202 H   0  0  0  0  0  0  0  0  0  0  0  0
   -0.1711   -0.0594    1.8296 C   0  0  0  0  0  0  0  0  0  0  0  0
    0.9865   -0.2908    2.1726 O   0  0  0  0  0  0  0  0  0  0  0  0
   -1.0921    0.4156    2.6780 N   0  0  0  0  0  0  0  0  0  0  0  0
   -2.0168    0.5953    2.3206 H   0  0  0  0  0  0  0  0  0  0  0  0
   -0.8319    0.7034    4.0877 C   0  0  0  0  0  0  0  0  0  0  0  0
   -0.0192    1.4288    4.1710 H   0  0  0  0  0  0  0  0  0  0  0  0
   -1.7255    1.1088    4.5641 H   0  0  0  0  0  0  0  0  0  0  0  0
   -0.5319   -0.2118    4.6011 H   0  0  0  0  0  0  0  0  0  0  0  0
  5  6  2  0  0  0  0
  5  7  1  0  0  0  0
  2  3  1  0  0  0  0
  2  4  1  0  0  0  0
  2  5  1  0  0  0  0
  1  2  1  0  0  0  0
 22 23  2  0  0  0  0
 22 24  1  0  0  0  0
 18 19  1  0  0  0  0
 18 20  1  0  0  0  0
 18 21  1  0  0  0  0
 17 18  1  0  0  0  0
 14 15  1  0  0  0  0
 14 16  1  0  0  0  0
 14 17  1  0  0  0  0
 11 12  1  0  0  0  0
 11 13  1  0  0  0  0
 11 14  1  0  0  0  0
  9 10  1  0  0  0  0
  9 11  1  0  0  0  0
  9 22  1  0  0  0  0
  7  8  1  0  0  0  0
  7  9  1  0  0  0  0
 26 27  1  0  0  0  0
 26 28  1  0  0  0  0
 26 29  1  0  0  0  0
 24 25  1  0  0  0  0
 24 26  1  0  0  0  0
M  END
$$$$
default_name
  -OEChem-02102213163D

 29 28  0     1  0  0  0  0  0999 V2000
   -3.5781   -3.7296    1.2702 H   0  0  0  0  0  0  0  0  0  0  0  0
   -3.5311   -2.7616    0.7732 C   0  0  0  0  0  0  0  0  0  0  0  0
   -4.2371   -2.0766    1.2382 H   0  0  0  0  0  0  0  0  0  0  0  0
   -3.7681   -2.8816   -0.2818 H   0  0  0  0  0  0  0  0  0  0  0  0
   -2.1321   -2.2086    0.9112 C   0  0  0  0  0  0  0  0  0  0  0  0
   -1.2751   -2.8426    1.5112 O   0  0  0  0  0  0  0  0  0  0  0  0
   -1.9041   -1.0186    0.3602 N   0  0  0  0  0  0  0  0  0  0  0  0
   -2.6671   -0.5416   -0.0988 H   0  0  0  0  0  0  0  0  0  0  0  0
   -0.6131   -0.3236    0.3832 C   0  0  1  0  0  0  0  0  0  0  0  0
    0.1346   -0.9625   -0.0894 H   0  0  0  0  0  0  0  0  0  0  0  0
   -0.7253    0.9751   -0.4365 C   0  0  0  0  0  0  0  0  0  0  0  0
    0.1486    1.0567   -1.0863 H   0  0  0  0  0  0  0  0  0  0  0  0
   -1.6150    0.9274   -1.0660 H   0  0  0  0  0  0  0  0  0  0  0  0
   -0.8033    2.2394    0.4270 C   0  0  0  0  0  0  0  0  0  0  0  0
    0.1875    2.4657    0.8197 H   0  0  0  0  0  0  0  0  0  0  0  0
   -1.1310    3.0708   -0.1981 H   0  0  0  0  0  0  0  0  0  0  0  0
   -1.9428    2.0931    1.8270 S   0  0  0  0  0  0  0  0  0  0  0  0
   -3.5205    2.0426    0.9382 C   0  0  0  0  0  0  0  0  0  0  0  0
   -3.5374    1.1831    0.2675 H   0  0  0  0  0  0  0  0  0  0  0  0
   -4.3368    1.9542    1.6556 H   0  0  0  0  0  0  0  0  0  0  0  0
   -3.6474    2.9594    0.3617 H   0  0  0  0  0  0  0  0  0  0  0  0
   -0.1711   -0.0594    1.8296 C   0  0  0  0  0  0  0  0  0  0  0  0
    0.9865   -0.2908    2.1726 O   0  0  0  0  0  0  0  0  0  0  0  0
   -1.0921    0.4156    2.6780 N   0  0  0  0  0  0  0  0  0  0  0  0
   -2.0168    0.5953    2.3206 H   0  0  0  0  0  0  0  0  0  0  0  0
   -0.8319    0.7034    4.0877 C   0  0  0  0  0  0  0  0  0  0  0  0
   -0.0192    1.4288    4.1710 H   0  0  0  0  0  0  0  0  0  0  0  0
   -1.7255    1.1088    4.5641 H   0  0  0  0  0  0  0  0  0  0  0  0
   -0.5319   -0.2118    4.6011 H   0  0  0  0  0  0  0  0  0  0  0  0
  5  6  2  0  0  0  0
  5  7  1  0  0  0  0
  2  3  1  0  0  0  0
  2  4  1  0  0  0  0
  2  5  1  0  0  0  0
  1  2  1  0  0  0  0
 22 23  2  0  0  0  0
 22 24  1  0  0  0  0
 18 19  1  0  0  0  0
 18 20  1  0  0  0  0
 18 21  1  0  0  0  0
 17 18  1  0  0  0  0
 14 15  1  0  0  0  0
 14 16  1  0  0  0  0
 14 17  1  0  0  0  0
 11 12  1  0  0  0  0
 11 13  1  0  0  0  0
 11 14  1  0  0  0  0
  9 10  1  0  0  0  0
  9 11  1  0  0  0  0
  9 22  1  0  0  0  0
  7  8  1  0  0  0  0
  7  9  1  0  0  0  0
 26 27  1  0  0  0  0
 26 28  1  0  0  0  0
 26 29  1  0  0  0  0
 24 25  1  0  0  0  0
 24 26  1  0  0  0  0
M  END
$$$$
default_name
  -OEChem-02102213163D

 29 28  0     1  0  0  0  0  0999 V2000
   -3.5781   -3.7296    1.2702 H   0  0  0  0  0  0  0  0  0  0  0  0
   -3.5311   -2.7616    0.7732 C   0  0  0  0  0  0  0  0  0  0  0  0
   -4.2371   -2.0766    1.2382 H   0  0  0  0  0  0  0  0  0  0  0  0
   -3.7681   -2.8816   -0.2818 H   0  0  0  0  0  0  0  0  0  0  0  0
   -2.1321   -2.2086    0.9112 C   0  0  0  0  0  0  0  0  0  0  0  0
   -1.2751   -2.8426    1.5112 O   0  0  0  0  0  0  0  0  0  0  0  0
   -1.9041   -1.0186    0.3602 N   0  0  0  0  0  0  0  0  0  0  0  0
   -2.6671   -0.5416   -0.0988 H   0  0  0  0  0  0  0  0  0  0  0  0
   -0.6131   -0.3236    0.3832 C   0  0  1  0  0  0  0  0  0  0  0  0
    0.1346   -0.9625   -0.0894 H   0  0  0  0  0  0  0  0  0  0  0  0
   -0.7253    0.9751   -0.4365 C   0  0  0  0  0  0  0  0  0  0  0  0
    0.1486    1.0567   -1.0863 H   0  0  0  0  0  0  0  0  0  0  0  0
   -1.6150    0.9274   -1.0660 H   0  0  0  0  0  0  0  0  0  0  0  0
   -0.8033    2.2394    0.4270 C   0  0  0  0  0  0  0  0  0  0  0  0
    0.2039    2.6176    0.5987 H   0  0  0  0  0  0  0  0  0  0  0  0
   -1.3751    2.9963   -0.1111 H   0  0  0  0  0  0  0  0  0  0  0  0
   -1.5850    1.9708    2.0383 S   0  0  0  0  0  0  0  0  0  0  0  0
   -3.2906    1.6674    1.5084 C   0  0  0  0  0  0  0  0  0  0  0  0
   -3.3228    0.7953    0.8546 H   0  0  0  0  0  0  0  0  0  0  0  0
   -3.9137    1.4829    2.3840 H   0  0  0  0  0  0  0  0  0  0  0  0
   -3.6706    2.5391    0.9750 H   0  0  0  0  0  0  0  0  0  0  0  0
   -0.1711   -0.0594    1.8296 C   0  0  0  0  0  0  0  0  0  0  0  0
    0.9865   -0.2908    2.1726 O   0  0  0  0  0  0  0  0  0  0  0  0
   -1.0921    0.4156    2.6780 N   0  0  0  0  0  0  0  0  0  0  0  0
   -2.0168    0.5953    2.3206 H   0  0  0  0  0  0  0  0  0  0  0  0
   -0.8319    0.7034    4.0877 C   0  0  0  0  0  0  0  0  0  0  0  0
   -0.0192    1.4288    4.1710 H   0  0  0  0  0  0  0  0  0  0  0  0
   -1.7255    1.1088    4.5641 H   0  0  0  0  0  0  0  0  0  0  0  0
   -0.5319   -0.2118    4.6011 H   0  0  0  0  0  0  0  0  0  0  0  0
  5  6  2  0  0  0  0
  5  7  1  0  0  0  0
  2  3  1  0  0  0  0
  2  4  1  0  0  0  0
  2  5  1  0  0  0  0
  1  2  1  0  0  0  0
 22 23  2  0  0  0  0
 22 24  1  0  0  0  0
 18 19  1  0  0  0  0
 18 20  1  0  0  0  0
 18 21  1  0  0  0  0
 17 18  1  0  0  0  0
 14 15  1  0  0  0  0
 14 16  1  0  0  0  0
 14 17  1  0  0  0  0
 11 12  1  0  0  0  0
 11 13  1  0  0  0  0
 11 14  1  0  0  0  0
  9 10  1  0  0  0  0
  9 11  1  0  0  0  0
  9 22  1  0  0  0  0
  7  8  1  0  0  0  0
  7  9  1  0  0  0  0
 26 27  1  0  0  0  0
 26 28  1  0  0  0  0
 26 29  1  0  0  0  0
 24 25  1  0  0  0  0
 24 26  1  0  0  0  0
M  END
$$$$
default_name
  -OEChem-02102213163D

 29 28  0     1  0  0  0  0  0999 V2000
   -3.5781   -3.7296    1.2702 H   0  0  0  0  0  0  0  0  0  0  0  0
   -3.5311   -2.7616    0.7732 C   0  0  0  0  0  0  0  0  0  0  0  0
   -4.2371   -2.0766    1.2382 H   0  0  0  0  0  0  0  0  0  0  0  0
   -3.7681   -2.8816   -0.2818 H   0  0  0  0  0  0  0  0  0  0  0  0
   -2.1321   -2.2086    0.9112 C   0  0  0  0  0  0  0  0  0  0  0  0
   -1.2751   -2.8426    1.5112 O   0  0  0  0  0  0  0  0  0  0  0  0
   -1.9041   -1.0186    0.3602 N   0  0  0  0  0  0  0  0  0  0  0  0
   -2.6671   -0.5416   -0.0988 H   0  0  0  0  0  0  0  0  0  0  0  0
   -0.6131   -0.3236    0.3832 C   0  0  1  0  0  0  0  0  0  0  0  0
    0.1346   -0.9625   -0.0894 H   0  0  0  0  0  0  0  0  0  0  0  0
   -0.7253    0.9751   -0.4365 C   0  0  0  0  0  0  0  0  0  0  0  0
    0.1486    1.0567   -1.0863 H   0  0  0  0  0  0  0  0  0  0  0  0
   -1.6150    0.9274   -1.0660 H   0  0  0  0  0  0  0  0  0  0  0  0
   -0.8033    2.2394    0.4270 C   0  0  0  0  0  0  0  0  0  0  0  0
    0.1505    2.7639    0.3797 H   0  0  0  0  0  0  0  0  0  0  0  0
   -1.5814    2.8899    0.0260 H   0  0  0  0  0  0  0  0  0  0  0  0
   -1.1765    1.9076    2.1678 S   0  0  0  0  0  0  0  0  0  0  0  0
   -2.8921    1.3460    2.0151 C   0  0  0  0  0  0  0  0  0  0  0  0
   -2.9338    0.4598    1.3811 H   0  0  0  0  0  0  0  0  0  0  0  0
   -3.2808    1.0989    3.0034 H   0  0  0  0  0  0  0  0  0  0  0  0
   -3.5009    2.1378    1.5779 H   0  0  0  0  0  0  0  0  0  0  0  0
   -0.1711   -0.0594    1.8296 C   0  0  0  0  0  0  0  0  0  0  0  0
    0.9865   -0.2908    2.1726 O   0  0  0  0  0  0  0  0  0  0  0  0
   -1.0921    0.4156    2.6780 N   0  0  0  0  0  0  0  0  0  0  0  0
   -2.0168    0.5953    2.3206 H   0  0  0  0  0  0  0  0  0  0  0  0
   -0.8319    0.7034    4.0877 C   0  0  0  0  0  0  0  0  0  0  0  0
   -0.0192    1.4288    4.1710 H   0  0  0  0  0  0  0  0  0  0  0  0
   -1.7255    1.1088    4.5641 H   0  0  0  0  0  0  0  0  0  0  0  0
   -0.5319   -0.2118    4.6011 H   0  0  0  0  0  0  0  0  0  0  0  0
  5  6  2  0  0  0  0
  5  7  1  0  0  0  0
  2  3  1  0  0  0  0
  2  4  1  0  0  0  0
  2  5  1  0  0  0  0
  1  2  1  0  0  0  0
 22 23  2  0  0  0  0
 22 24  1  0  0  0  0
 18 19  1  0  0  0  0
 18 20  1  0  0  0  0
 18 21  1  0  0  0  0
 17 18  1  0  0  0  0
 14 15  1  0  0  0  0
 14 16  1  0  0  0  0
 14 17  1  0  0  0  0
 11 12  1  0  0  0  0
 11 13  1  0  0  0  0
 11 14  1  0  0  0  0
  9 10  1  0  0  0  0
  9 11  1  0  0  0  0
  9 22  1  0  0  0  0
  7  8  1  0  0  0  0
  7  9  1  0  0  0  0
 26 27  1  0  0  0  0
 26 28  1  0  0  0  0
 26 29  1  0  0  0  0
 24 25  1  0  0  0  0
 24 26  1  0  0  0  0
M  END
$$$$
default_name
  -OEChem-02102213163D

 29 28  0     1  0  0  0  0  0999 V2000
   -3.5781   -3.7296    1.2702 H   0  0  0  0  0  0  0  0  0  0  0  0
   -3.5311   -2.7616    0.7732 C   0  0  0  0  0  0  0  0  0  0  0  0
   -4.2371   -2.0766    1.2382 H   0  0  0  0  0  0  0  0  0  0  0  0
   -3.7681   -2.8816   -0.2818 H   0  0  0  0  0  0  0  0  0  0  0  0
   -2.1321   -2.2086    0.9112 C   0  0  0  0  0  0  0  0  0  0  0  0
   -1.2751   -2.8426    1.5112 O   0  0  0  0  0  0  0  0  0  0  0  0
   -1.9041   -1.0186    0.3602 N   0  0  0  0  0  0  0  0  0  0  0  0
   -2.6671   -0.5416   -0.0988 H   0  0  0  0  0  0  0  0  0  0  0  0
   -0.6131   -0.3236    0.3832 C   0  0  1  0  0  0  0  0  0  0  0  0
    0.1346   -0.9625   -0.0894 H   0  0  0  0  0  0  0  0  0  0  0  0
   -0.7253    0.9751   -0.4365 C   0  0  0  0  0  0  0  0  0  0  0  0
    0.1486    1.0567   -1.0863 H   0  0  0  0  0  0  0  0  0  0  0  0
   -1.6150    0.9274   -1.0660 H   0  0  0  0  0  0  0  0  0  0  0  0
   -0.8033    2.2394    0.4270 C   0  0  0  0  0  0  0  0  0  0  0  0
    0.0309    2.8945    0.1777 H   0  0  0  0  0  0  0  0  0  0  0  0
   -1.7359    2.7589    0.2039 H   0  0  0  0  0  0  0  0  0  0  0  0
   -0.7451    1.9079    2.2064 S   0  0  0  0  0  0  0  0  0  0  0  0
   -2.3521    1.1002    2.4237 C   0  0  0  0  0  0  0  0  0  0  0  0
   -2.3967    0.1993    1.8110 H   0  0  0  0  0  0  0  0  0  0  0  0
   -2.4813    0.8284    3.4717 H   0  0  0  0  0  0  0  0  0  0  0  0
   -3.1497    1.7829    2.1293 H   0  0  0  0  0  0  0  0  0  0  0  0
   -0.1711   -0.0594    1.8296 C   0  0  0  0  0  0  0  0  0  0  0  0
    0.9865   -0.2908    2.1726 O   0  0  0  0  0  0  0  0  0  0  0  0
   -1.0921    0.4156    2.6780 N   0  0  0  0  0  0  0  0  0  0  0  0
   -2.0168    0.5953    2.3206 H   0  0  0  0  0  0  0  0  0  0  0  0
   -0.8319    0.7034    4.0877 C   0  0  0  0  0  0  0  0  0  0  0  0
   -0.0192    1.4288    4.1710 H   0  0  0  0  0  0  0  0  0  0  0  0
   -1.7255    1.1088    4.5641 H   0  0  0  0  0  0  0  0  0  0  0  0
   -0.5319   -0.2118    4.6011 H   0  0  0  0  0  0  0  0  0  0  0  0
  5  6  2  0  0  0  0
  5  7  1  0  0  0  0
  2  3  1  0  0  0  0
  2  4  1  0  0  0  0
  2  5  1  0  0  0  0
  1  2  1  0  0  0  0
 22 23  2  0  0  0  0
 22 24  1  0  0  0  0
 18 19  1  0  0  0  0
 18 20  1  0  0  0  0
 18 21  1  0  0  0  0
 17 18  1  0  0  0  0
 14 15  1  0  0  0  0
 14 16  1  0  0  0  0
 14 17  1  0  0  0  0
 11 12  1  0  0  0  0
 11 13  1  0  0  0  0
 11 14  1  0  0  0  0
  9 10  1  0  0  0  0
  9 11  1  0  0  0  0
  9 22  1  0  0  0  0
  7  8  1  0  0  0  0
  7  9  1  0  0  0  0
 26 27  1  0  0  0  0
 26 28  1  0  0  0  0
 26 29  1  0  0  0  0
 24 25  1  0  0  0  0
 24 26  1  0  0  0  0
M  END
$$$$
default_name
  -OEChem-02102213163D

 29 28  0     1  0  0  0  0  0999 V2000
   -3.5781   -3.7296    1.2702 H   0  0  0  0  0  0  0  0  0  0  0  0
   -3.5311   -2.7616    0.7732 C   0  0  0  0  0  0  0  0  0  0  0  0
   -4.2371   -2.0766    1.2382 H   0  0  0  0  0  0  0  0  0  0  0  0
   -3.7681   -2.8816   -0.2818 H   0  0  0  0  0  0  0  0  0  0  0  0
   -2.1321   -2.2086    0.9112 C   0  0  0  0  0  0  0  0  0  0  0  0
   -1.2751   -2.8426    1.5112 O   0  0  0  0  0  0  0  0  0  0  0  0
   -1.9041   -1.0186    0.3602 N   0  0  0  0  0  0  0  0  0  0  0  0
   -2.6671   -0.5416   -0.0988 H   0  0  0  0  0  0  0  0  0  0  0  0
   -0.6131   -0.3236    0.3832 C   0  0  1  0  0  0  0  0  0  0  0  0
    0.1346   -0.9625   -0.0894 H   0  0  0  0  0  0  0  0  0  0  0  0
   -0.7253    0.9751   -0.4365 C   0  0  0  0  0  0  0  0  0  0  0  0
    0.1486    1.0567   -1.0863 H   0  0  0  0  0  0  0  0  0  0  0  0
   -1.6150    0.9274   -1.0660 H   0  0  0  0  0  0  0  0  0  0  0  0
   -0.8033    2.2394    0.4270 C   0  0  0  0  0  0  0  0  0  0  0  0
   -0.1469    3.0005    0.0064 H   0  0  0  0  0  0  0  0  0  0  0  0
   -1.8281    2.6121    0.4105 H   0  0  0  0  0  0  0  0  0  0  0  0
   -0.3202    1.9715    2.1517 S   0  0  0  0  0  0  0  0  0  0  0  0
   -1.7075    0.9470    2.7063 C   0  0  0  0  0  0  0  0  0  0  0  0
   -1.7481    0.0317    2.1151 H   0  0  0  0  0  0  0  0  0  0  0  0
   -1.5696    0.6899    3.7569 H   0  0  0  0  0  0  0  0  0  0  0  0
   -2.6410    1.4986    2.5916 H   0  0  0  0  0  0  0  0  0  0  0  0
   -0.1711   -0.0594    1.8296 C   0  0  0  0  0  0  0  0  0  0  0  0
    0.9865   -0.2908    2.1726 O   0  0  0  0  0  0  0  0  0  0  0  0
   -1.0921    0.4156    2.6780 N   0  0  0  0  0  0  0  0  0  0  0  0
   -2.0168    0.5953    2.3206 H   0  0  0  0  0  0  0  0  0  0  0  0
   -0.8319    0.7034    4.0877 C   0  0  0  0  0  0  0  0  0  0  0  0
   -0.0192    1.4288    4.1710 H   0  0  0  0  0  0  0  0  0  0  0  0
   -1.7255    1.1088    4.5641 H   0  0  0  0  0  0  0  0  0  0  0  0
   -0.5319   -0.2118    4.6011 H   0  0  0  0  0  0  0  0  0  0  0  0
  5  6  2  0  0  0  0
  5  7  1  0  0  0  0
  2  3  1  0  0  0  0
  2  4  1  0  0  0  0
  2  5  1  0  0  0  0
  1  2  1  0  0  0  0
 22 23  2  0  0  0  0
 22 24  1  0  0  0  0
 18 19  1  0  0  0  0
 18 20  1  0  0  0  0
 18 21  1  0  0  0  0
 17 18  1  0  0  0  0
 14 15  1  0  0  0  0
 14 16  1  0  0  0  0
 14 17  1  0  0  0  0
 11 12  1  0  0  0  0
 11 13  1  0  0  0  0
 11 14  1  0  0  0  0
  9 10  1  0  0  0  0
  9 11  1  0  0  0  0
  9 22  1  0  0  0  0
  7  8  1  0  0  0  0
  7  9  1  0  0  0  0
 26 27  1  0  0  0  0
 26 28  1  0  0  0  0
 26 29  1  0  0  0  0
 24 25  1  0  0  0  0
 24 26  1  0  0  0  0
M  END
$$$$
default_name
  -OEChem-02102213163D

 29 28  0     1  0  0  0  0  0999 V2000
   -3.5781   -3.7296    1.2702 H   0  0  0  0  0  0  0  0  0  0  0  0
   -3.5311   -2.7616    0.7732 C   0  0  0  0  0  0  0  0  0  0  0  0
   -4.2371   -2.0766    1.2382 H   0  0  0  0  0  0  0  0  0  0  0  0
   -3.7681   -2.8816   -0.2818 H   0  0  0  0  0  0  0  0  0  0  0  0
   -2.1321   -2.2086    0.9112 C   0  0  0  0  0  0  0  0  0  0  0  0
   -1.2751   -2.8426    1.5112 O   0  0  0  0  0  0  0  0  0  0  0  0
   -1.9041   -1.0186    0.3602 N   0  0  0  0  0  0  0  0  0  0  0  0
   -2.6671   -0.5416   -0.0988 H   0  0  0  0  0  0  0  0  0  0  0  0
   -0.6131   -0.3236    0.3832 C   0  0  1  0  0  0  0  0  0  0  0  0
    0.1346   -0.9625   -0.0894 H   0  0  0  0  0  0  0  0  0  0  0  0
   -0.7253    0.9751   -0.4365 C   0  0  0  0  0  0  0  0  0  0  0  0
    0.1486    1.0567   -1.0863 H   0  0  0  0  0  0  0  0  0  0  0  0
   -1.6150    0.9274   -1.0660 H   0  0  0  0  0  0  0  0  0  0  0  0
   -0.8033    2.2394    0.4270 C   0  0  0  0  0  0  0  0  0  0  0  0
   -0.3706    3.0748   -0.1226 H   0  0  0  0  0  0  0  0  0  0  0  0
   -1.8517    2.4597    0.6316 H   0  0  0  0  0  0  0  0  0  0  0  0
    0.0693    2.0941    2.0072 S   0  0  0  0  0  0  0  0  0  0  0  0
   -1.0022    0.8967    2.8437 C   0  0  0  0  0  0  0  0  0  0  0  0
   -1.0324   -0.0316    2.2725 H   0  0  0  0  0  0  0  0  0  0  0  0
   -0.6079    0.6928    3.8396 H   0  0  0  0  0  0  0  0  0  0  0  0
   -2.0096    1.3042    2.9333 H   0  0  0  0  0  0  0  0  0  0  0  0
   -0.1711   -0.0594    1.8296 C   0  0  0  0  0  0  0  0  0  0  0  0
    0.9865   -0.2908    2.1726 O   0  0  0  0  0  0  0  0  0  0  0  0
   -1.0921    0.4156    2.6780 N   0  0  0  0  0  0  0  0  0  0  0  0
   -2.0168    0.5953    2.3206 H   0  0  0  0  0  0  0  0  0  0  0  0
   -0.8319    0.7034    4.0877 C   0  0  0  0  0  0  0  0  0  0  0  0
   -0.0192    1.4288    4.1710 H   0  0  0  0  0  0  0  0  0  0  0  0
   -1.7255    1.1088    4.5641 H   0  0  0  0  0  0  0  0  0  0  0  0
   -0.5319   -0.2118    4.6011 H   0  0  0  0  0  0  0  0  0  0  0  0
  5  6  2  0  0  0  0
  5  7  1  0  0  0  0
  2  3  1  0  0  0  0
  2  4  1  0  0  0  0
  2  5  1  0  0  0  0
  1  2  1  0  0  0  0
 22 23  2  0  0  0  0
 22 24  1  0  0  0  0
 18 19  1  0  0  0  0
 18 20  1  0  0  0  0
 18 21  1  0  0  0  0
 17 18  1  0  0  0  0
 14 15  1  0  0  0  0
 14 16  1  0  0  0  0
 14 17  1  0  0  0  0
 11 12  1  0  0  0  0
 11 13  1  0  0  0  0
 11 14  1  0  0  0  0
  9 10  1  0  0  0  0
  9 11  1  0  0  0  0
  9 22  1  0  0  0  0
  7  8  1  0  0  0  0
  7  9  1  0  0  0  0
 26 27  1  0  0  0  0
 26 28  1  0  0  0  0
 26 29  1  0  0  0  0
 24 25  1  0  0  0  0
 24 26  1  0  0  0  0
M  END
$$$$
default_name
  -OEChem-02102213163D

 29 28  0     1  0  0  0  0  0999 V2000
   -3.5781   -3.7296    1.2702 H   0  0  0  0  0  0  0  0  0  0  0  0
   -3.5311   -2.7616    0.7732 C   0  0  0  0  0  0  0  0  0  0  0  0
   -4.2371   -2.0766    1.2382 H   0  0  0  0  0  0  0  0  0  0  0  0
   -3.7681   -2.8816   -0.2818 H   0  0  0  0  0  0  0  0  0  0  0  0
   -2.1321   -2.2086    0.9112 C   0  0  0  0  0  0  0  0  0  0  0  0
   -1.2751   -2.8426    1.5112 O   0  0  0  0  0  0  0  0  0  0  0  0
   -1.9041   -1.0186    0.3602 N   0  0  0  0  0  0  0  0  0  0  0  0
   -2.6671   -0.5416   -0.0988 H   0  0  0  0  0  0  0  0  0  0  0  0
   -0.6131   -0.3236    0.3832 C   0  0  1  0  0  0  0  0  0  0  0  0
    0.1346   -0.9625   -0.0894 H   0  0  0  0  0  0  0  0  0  0  0  0
   -0.7253    0.9751   -0.4365 C   0  0  0  0  0  0  0  0  0  0  0  0
    0.1486    1.0567   -1.0863 H   0  0  0  0  0  0  0  0  0  0  0  0
   -1.6150    0.9274   -1.0660 H   0  0  0  0  0  0  0  0  0  0  0  0
   -0.8033    2.2394    0.4270 C   0  0  0  0  0  0  0  0  0  0  0  0
   -0.6251    3.1122   -0.2004 H   0  0  0  0  0  0  0  0  0  0  0  0
   -1.8050    2.3119    0.8522 H   0  0  0  0  0  0  0  0  0  0  0  0
    0.3967    2.2675    1.7830 S   0  0  0  0  0  0  0  0  0  0  0  0
   -0.2843    0.9527    2.8266 C   0  0  0  0  0  0  0  0  0  0  0  0
   -0.2981    0.0136    2.2727 H   0  0  0  0  0  0  0  0  0  0  0  0
    0.3382    0.8368    3.7142 H   0  0  0  0  0  0  0  0  0  0  0  0
   -1.2984    1.2129    3.1312 H   0  0  0  0  0  0  0  0  0  0  0  0
   -0.1711   -0.0594    1.8296 C   0  0  0  0  0  0  0  0  0  0  0  0
    0.9865   -0.2908    2.1726 O   0  0  0  0  0  0  0  0  0  0  0  0
   -1.0921    0.4156    2.6780 N   0  0  0  0  0  0  0  0  0  0  0  0
   -2.0168    0.5953    2.3206 H   0  0  0  0  0  0  0  0  0  0  0  0
   -0.8319    0.7034    4.0877 C   0  0  0  0  0  0  0  0  0  0  0  0
   -0.0192    1.4288    4.1710 H   0  0  0  0  0  0  0  0  0  0  0  0
   -1.7255    1.1088    4.5641 H   0  0  0  0  0  0  0  0  0  0  0  0
   -0.5319   -0.2118    4.6011 H   0  0  0  0  0  0  0  0  0  0  0  0
  5  6  2  0  0  0  0
  5  7  1  0  0  0  0
  2  3  1  0  0  0  0
  2  4  1  0  0  0  0
  2  5  1  0  0  0  0
  1  2  1  0  0  0  0
 22 23  2  0  0  0  0
 22 24  1  0  0  0  0
 18 19  1  0  0  0  0
 18 20  1  0  0  0  0
 18 21  1  0  0  0  0
 17 18  1  0  0  0  0
 14 15  1  0  0  0  0
 14 16  1  0  0  0  0
 14 17  1  0  0  0  0
 11 12  1  0  0  0  0
 11 13  1  0  0  0  0
 11 14  1  0  0  0  0
  9 10  1  0  0  0  0
  9 11  1  0  0  0  0
  9 22  1  0  0  0  0
  7  8  1  0  0  0  0
  7  9  1  0  0  0  0
 26 27  1  0  0  0  0
 26 28  1  0  0  0  0
 26 29  1  0  0  0  0
 24 25  1  0  0  0  0
 24 26  1  0  0  0  0
M  END
$$$$
default_name
  -OEChem-02102213163D

 29 28  0     1  0  0  0  0  0999 V2000
   -3.5781   -3.7296    1.2702 H   0  0  0  0  0  0  0  0  0  0  0  0
   -3.5311   -2.7616    0.7732 C   0  0  0  0  0  0  0  0  0  0  0  0
   -4.2371   -2.0766    1.2382 H   0  0  0  0  0  0  0  0  0  0  0  0
   -3.7681   -2.8816   -0.2818 H   0  0  0  0  0  0  0  0  0  0  0  0
   -2.1321   -2.2086    0.9112 C   0  0  0  0  0  0  0  0  0  0  0  0
   -1.2751   -2.8426    1.5112 O   0  0  0  0  0  0  0  0  0  0  0  0
   -1.9041   -1.0186    0.3602 N   0  0  0  0  0  0  0  0  0  0  0  0
   -2.6671   -0.5416   -0.0988 H   0  0  0  0  0  0  0  0  0  0  0  0
   -0.6131   -0.3236    0.3832 C   0  0  1  0  0  0  0  0  0  0  0  0
    0.1346   -0.9625   -0.0894 H   0  0  0  0  0  0  0  0  0  0  0  0
   -0.7253    0.9751   -0.4365 C   0  0  0  0  0  0  0  0  0  0  0  0
    0.1486    1.0567   -1.0863 H   0  0  0  0  0  0  0  0  0  0  0  0
   -1.6150    0.9274   -1.0660 H   0  0  0  0  0  0  0  0  0  0  0  0
   -0.8033    2.2394    0.4270 C   0  0  0  0  0  0  0  0  0  0  0  0
   -0.8929    3.1102   -0.2217 H   0  0  0  0  0  0  0  0  0  0  0  0
   -1.6913    2.1788    1.0573 H   0  0  0  0  0  0  0  0  0  0  0  0
    0.6399    2.4797    1.4942 S   0  0  0  0  0  0  0  0  0  0  0  0
    0.3973    1.1112    2.6561 C   0  0  0  0  0  0  0  0  0  0  0  0
    0.4045    0.1643    2.1155 H   0  0  0  0  0  0  0  0  0  0  0  0
    1.2044    1.1122    3.3892 H   0  0  0  0  0  0  0  0  0  0  0  0
   -0.5559    1.2311    3.1717 H   0  0  0  0  0  0  0  0  0  0  0  0
   -0.1711   -0.0594    1.8296 C   0  0  0  0  0  0  0  0  0  0  0  0
    0.9865   -0.2908    2.1726 O   0  0  0  0  0  0  0  0  0  0  0  0
   -1.0921    0.4156    2.6780 N   0  0  0  0  0  0  0  0  0  0  0  0
   -2.0168    0.5953    2.3206 H   0  0  0  0  0  0  0  0  0  0  0  0
   -0.8319    0.7034    4.0877 C   0  0  0  0  0  0  0  0  0  0  0  0
   -0.0192    1.4288    4.1710 H   0  0  0  0  0  0  0  0  0  0  0  0
   -1.7255    1.1088    4.5641 H   0  0  0  0  0  0  0  0  0  0  0  0
   -0.5319   -0.2118    4.6011 H   0  0  0  0  0  0  0  0  0  0  0  0
  5  6  2  0  0  0  0
  5  7  1  0  0  0  0
  2  3  1  0  0  0  0
  2  4  1  0  0  0  0
  2  5  1  0  0  0  0
  1  2  1  0  0  0  0
 22 23  2  0  0  0  0
 22 24  1  0  0  0  0
 18 19  1  0  0  0  0
 18 20  1  0  0  0  0
 18 21  1  0  0  0  0
 17 18  1  0  0  0  0
 14 15  1  0  0  0  0
 14 16  1  0  0  0  0
 14 17  1  0  0  0  0
 11 12  1  0  0  0  0
 11 13  1  0  0  0  0
 11 14  1  0  0  0  0
  9 10  1  0  0  0  0
  9 11  1  0  0  0  0
  9 22  1  0  0  0  0
  7  8  1  0  0  0  0
  7  9  1  0  0  0  0
 26 27  1  0  0  0  0
 26 28  1  0  0  0  0
 26 29  1  0  0  0  0
 24 25  1  0  0  0  0
 24 26  1  0  0  0  0
M  END
$$$$
default_name
  -OEChem-02102213163D

 29 28  0     1  0  0  0  0  0999 V2000
   -3.5781   -3.7296    1.2702 H   0  0  0  0  0  0  0  0  0  0  0  0
   -3.5311   -2.7616    0.7732 C   0  0  0  0  0  0  0  0  0  0  0  0
   -4.2371   -2.0766    1.2382 H   0  0  0  0  0  0  0  0  0  0  0  0
   -3.7681   -2.8816   -0.2818 H   0  0  0  0  0  0  0  0  0  0  0  0
   -2.1321   -2.2086    0.9112 C   0  0  0  0  0  0  0  0  0  0  0  0
   -1.2751   -2.8426    1.5112 O   0  0  0  0  0  0  0  0  0  0  0  0
   -1.9041   -1.0186    0.3602 N   0  0  0  0  0  0  0  0  0  0  0  0
   -2.6671   -0.5416   -0.0988 H   0  0  0  0  0  0  0  0  0  0  0  0
   -0.6131   -0.3236    0.3832 C   0  0  1  0  0  0  0  0  0  0  0  0
    0.1346   -0.9625   -0.0894 H   0  0  0  0  0  0  0  0  0  0  0  0
   -0.7253    0.9751   -0.4365 C   0  0  0  0  0  0  0  0  0  0  0  0
    0.1486    1.0567   -1.0863 H   0  0  0  0  0  0  0  0  0  0  0  0
   -1.6150    0.9274   -1.0660 H   0  0  0  0  0  0  0  0  0  0  0  0
   -0.8033    2.2394    0.4270 C   0  0  0  0  0  0  0  0  0  0  0  0
   -1.1559    3.0690   -0.1851 H   0  0  0  0  0  0  0  0  0  0  0  0
   -1.5182    2.0696    1.2329 H   0  0  0  0  0  0  0  0  0  0  0  0
    0.7823    2.7164    1.1605 S   0  0  0  0  0  0  0  0  0  0  0  0
    0.9962    1.3615    2.3438 C   0  0  0  0  0  0  0  0  0  0  0  0
    1.0277    0.4102    1.8117 H   0  0  0  0  0  0  0  0  0  0  0  0
    1.9315    1.5002    2.8868 H   0  0  0  0  0  0  0  0  0  0  0  0
    0.1673    1.3574    3.0521 H   0  0  0  0  0  0  0  0  0  0  0  0
   -0.1711   -0.0594    1.8296 C   0  0  0  0  0  0  0  0  0  0  0  0
    0.9865   -0.2908    2.1726 O   0  0  0  0  0  0  0  0  0  0  0  0
   -1.0921    0.4156    2.6780 N   0  0  0  0  0  0  0  0  0  0  0  0
   -2.0168    0.5953    2.3206 H   0  0  0  0  0  0  0  0  0  0  0  0
   -0.8319    0.7034    4.0877 C   0  0  0  0  0  0  0  0  0  0  0  0
   -0.0192    1.4288    4.1710 H   0  0  0  0  0  0  0  0  0  0  0  0
   -1.7255    1.1088    4.5641 H   0  0  0  0  0  0  0  0  0  0  0  0
   -0.5319   -0.2118    4.6011 H   0  0  0  0  0  0  0  0  0  0  0  0
  5  6  2  0  0  0  0
  5  7  1  0  0  0  0
  2  3  1  0  0  0  0
  2  4  1  0  0  0  0
  2  5  1  0  0  0  0
  1  2  1  0  0  0  0
 22 23  2  0  0  0  0
 22 24  1  0  0  0  0
 18 19  1  0  0  0  0
 18 20  1  0  0  0  0
 18 21  1  0  0  0  0
 17 18  1  0  0  0  0
 14 15  1  0  0  0  0
 14 16  1  0  0  0  0
 14 17  1  0  0  0  0
 11 12  1  0  0  0  0
 11 13  1  0  0  0  0
 11 14  1  0  0  0  0
  9 10  1  0  0  0  0
  9 11  1  0  0  0  0
  9 22  1  0  0  0  0
  7  8  1  0  0  0  0
  7  9  1  0  0  0  0
 26 27  1  0  0  0  0
 26 28  1  0  0  0  0
 26 29  1  0  0  0  0
 24 25  1  0  0  0  0
 24 26  1  0  0  0  0
M  END
$$$$
default_name
  -OEChem-02102213163D

 29 28  0     1  0  0  0  0  0999 V2000
   -3.5781   -3.7296    1.2702 H   0  0  0  0  0  0  0  0  0  0  0  0
   -3.5311   -2.7616    0.7732 C   0  0  0  0  0  0  0  0  0  0  0  0
   -4.2371   -2.0766    1.2382 H   0  0  0  0  0  0  0  0  0  0  0  0
   -3.7681   -2.8816   -0.2818 H   0  0  0  0  0  0  0  0  0  0  0  0
   -2.1321   -2.2086    0.9112 C   0  0  0  0  0  0  0  0  0  0  0  0
   -1.2751   -2.8426    1.5112 O   0  0  0  0  0  0  0  0  0  0  0  0
   -1.9041   -1.0186    0.3602 N   0  0  0  0  0  0  0  0  0  0  0  0
   -2.6671   -0.5416   -0.0988 H   0  0  0  0  0  0  0  0  0  0  0  0
   -0.6131   -0.3236    0.3832 C   0  0  1  0  0  0  0  0  0  0  0  0
    0.1346   -0.9625   -0.0894 H   0  0  0  0  0  0  0  0  0  0  0  0
   -0.7253    0.9751   -0.4365 C   0  0  0  0  0  0  0  0  0  0  0  0
    0.1486    1.0567   -1.0863 H   0  0  0  0  0  0  0  0  0  0  0  0
   -1.6150    0.9274   -1.0660 H   0  0  0  0  0  0  0  0  0  0  0  0
   -0.8033    2.2394    0.4270 C   0  0  0  0  0  0  0  0  0  0  0  0
   -1.3961    2.9913   -0.0930 H   0  0  0  0  0  0  0  0  0  0  0  0
   -1.2977    1.9916    1.3670 H   0  0  0  0  0  0  0  0  0  0  0  0
    0.8140    2.9614    0.8047 S   0  0  0  0  0  0  0  0  0  0  0  0
    1.4716    1.6864    1.9110 C   0  0  0  0  0  0  0  0  0  0  0  0
    1.5290    0.7346    1.3820 H   0  0  0  0  0  0  0  0  0  0  0  0
    2.4700    1.9743    2.2412 H   0  0  0  0  0  0  0  0  0  0  0  0
    0.8220    1.5832    2.7806 H   0  0  0  0  0  0  0  0  0  0  0  0
   -0.1711   -0.0594    1.8296 C   0  0  0  0  0  0  0  0  0  0  0  0
    0.9865   -0.2908    2.1726 O   0  0  0  0  0  0  0  0  0  0  0  0
   -1.0921    0.4156    2.6780 N   0  0  0  0  0  0  0  0  0  0  0  0
   -2.0168    0.5953    2.3206 H   0  0  0  0  0  0  0  0  0  0  0  0
   -0.8319    0.7034    4.0877 C   0  0  0  0  0  0  0  0  0  0  0  0
   -0.0192    1.4288    4.1710 H   0  0  0  0  0  0  0  0  0  0  0  0
   -1.7255    1.1088    4.5641 H   0  0  0  0  0  0  0  0  0  0  0  0
   -0.5319   -0.2118    4.6011 H   0  0  0  0  0  0  0  0  0  0  0  0
  5  6  2  0  0  0  0
  5  7  1  0  0  0  0
  2  3  1  0  0  0  0
  2  4  1  0  0  0  0
  2  5  1  0  0  0  0
  1  2  1  0  0  0  0
 22 23  2  0  0  0  0
 22 24  1  0  0  0  0
 18 19  1  0  0  0  0
 18 20  1  0  0  0  0
 18 21  1  0  0  0  0
 17 18  1  0  0  0  0
 14 15  1  0  0  0  0
 14 16  1  0  0  0  0
 14 17  1  0  0  0  0
 11 12  1  0  0  0  0
 11 13  1  0  0  0  0
 11 14  1  0  0  0  0
  9 10  1  0  0  0  0
  9 11  1  0  0  0  0
  9 22  1  0  0  0  0
  7  8  1  0  0  0  0
  7  9  1  0  0  0  0
 26 27  1  0  0  0  0
 26 28  1  0  0  0  0
 26 29  1  0  0  0  0
 24 25  1  0  0  0  0
 24 26  1  0  0  0  0
M  END
$$$$
default_name
  -OEChem-02102213163D

 29 28  0     1  0  0  0  0  0999 V2000
   -3.5781   -3.7296    1.2702 H   0  0  0  0  0  0  0  0  0  0  0  0
   -3.5311   -2.7616    0.7732 C   0  0  0  0  0  0  0  0  0  0  0  0
   -4.2371   -2.0766    1.2382 H   0  0  0  0  0  0  0  0  0  0  0  0
   -3.7681   -2.8816   -0.2818 H   0  0  0  0  0  0  0  0  0  0  0  0
   -2.1321   -2.2086    0.9112 C   0  0  0  0  0  0  0  0  0  0  0  0
   -1.2751   -2.8426    1.5112 O   0  0  0  0  0  0  0  0  0  0  0  0
   -1.9041   -1.0186    0.3602 N   0  0  0  0  0  0  0  0  0  0  0  0
   -2.6671   -0.5416   -0.0988 H   0  0  0  0  0  0  0  0  0  0  0  0
   -0.6131   -0.3236    0.3832 C   0  0  1  0  0  0  0  0  0  0  0  0
    0.1346   -0.9625   -0.0894 H   0  0  0  0  0  0  0  0  0  0  0  0
   -0.7253    0.9751   -0.4365 C   0  0  0  0  0  0  0  0  0  0  0  0
    0.1486    1.0567   -1.0863 H   0  0  0  0  0  0  0  0  0  0  0  0
   -1.6150    0.9274   -1.0660 H   0  0  0  0  0  0  0  0  0  0  0  0
   -0.8033    2.2394    0.4270 C   0  0  0  0  0  0  0  0  0  0  0  0
   -1.5971    2.8825    0.0482 H   0  0  0  0  0  0  0  0  0  0  0  0
   -1.0447    1.9502    1.4505 H   0  0  0  0  0  0  0  0  0  0  0  0
    0.7330    3.1979    0.4510 S   0  0  0  0  0  0  0  0  0  0  0  0
    1.7910    2.0638    1.3871 C   0  0  0  0  0  0  0  0  0  0  0  0
    1.8742    1.1154    0.8556 H   0  0  0  0  0  0  0  0  0  0  0  0
    2.7833    2.5023    1.4964 H   0  0  0  0  0  0  0  0  0  0  0  0
    1.3634    1.8933    2.3756 H   0  0  0  0  0  0  0  0  0  0  0  0
   -0.1711   -0.0594    1.8296 C   0  0  0  0  0  0  0  0  0  0  0  0
    0.9865   -0.2908    2.1726 O   0  0  0  0  0  0  0  0  0  0  0  0
   -1.0921    0.4156    2.6780 N   0  0  0  0  0  0  0  0  0  0  0  0
   -2.0168    0.5953    2.3206 H   0  0  0  0  0  0  0  0  0  0  0  0
   -0.8319    0.7034    4.0877 C   0  0  0  0  0  0  0  0  0  0  0  0
   -0.0192    1.4288    4.1710 H   0  0  0  0  0  0  0  0  0  0  0  0
   -1.7255    1.1088    4.5641 H   0  0  0  0  0  0  0  0  0  0  0  0
   -0.5319   -0.2118    4.6011 H   0  0  0  0  0  0  0  0  0  0  0  0
  5  6  2  0  0  0  0
  5  7  1  0  0  0  0
  2  3  1  0  0  0  0
  2  4  1  0  0  0  0
  2  5  1  0  0  0  0
  1  2  1  0  0  0  0
 22 23  2  0  0  0  0
 22 24  1  0  0  0  0
 18 19  1  0  0  0  0
 18 20  1  0  0  0  0
 18 21  1  0  0  0  0
 17 18  1  0  0  0  0
 14 15  1  0  0  0  0
 14 16  1  0  0  0  0
 14 17  1  0  0  0  0
 11 12  1  0  0  0  0
 11 13  1  0  0  0  0
 11 14  1  0  0  0  0
  9 10  1  0  0  0  0
  9 11  1  0  0  0  0
  9 22  1  0  0  0  0
  7  8  1  0  0  0  0
  7  9  1  0  0  0  0
 26 27  1  0  0  0  0
 26 28  1  0  0  0  0
 26 29  1  0  0  0  0
 24 25  1  0  0  0  0
 24 26  1  0  0  0  0
M  END
$$$$
default_name
  -OEChem-02102213163D

 29 28  0     1  0  0  0  0  0999 V2000
   -3.5781   -3.7296    1.2702 H   0  0  0  0  0  0  0  0  0  0  0  0
   -3.5311   -2.7616    0.7732 C   0  0  0  0  0  0  0  0  0  0  0  0
   -4.2371   -2.0766    1.2382 H   0  0  0  0  0  0  0  0  0  0  0  0
   -3.7681   -2.8816   -0.2818 H   0  0  0  0  0  0  0  0  0  0  0  0
   -2.1321   -2.2086    0.9112 C   0  0  0  0  0  0  0  0  0  0  0  0
   -1.2751   -2.8426    1.5112 O   0  0  0  0  0  0  0  0  0  0  0  0
   -1.9041   -1.0186    0.3602 N   0  0  0  0  0  0  0  0  0  0  0  0
   -2.6671   -0.5416   -0.0988 H   0  0  0  0  0  0  0  0  0  0  0  0
   -0.6131   -0.3236    0.3832 C   0  0  1  0  0  0  0  0  0  0  0  0
    0.1346   -0.9625   -0.0894 H   0  0  0  0  0  0  0  0  0  0  0  0
   -0.7253    0.9751   -0.4365 C   0  0  0  0  0  0  0  0  0  0  0  0
    0.1486    1.0567   -1.0863 H   0  0  0  0  0  0  0  0  0  0  0  0
   -1.6150    0.9274   -1.0660 H   0  0  0  0  0  0  0  0  0  0  0  0
   -0.8033    2.2394    0.4270 C   0  0  0  0  0  0  0  0  0  0  0  0
   -1.7453    2.7499    0.2289 H   0  0  0  0  0  0  0  0  0  0  0  0
   -0.7765    1.9482    1.4776 H   0  0  0  0  0  0  0  0  0  0  0  0
    0.5448    3.4099    0.1236 S   0  0  0  0  0  0  0  0  0  0  0  0
    1.9327    2.4680    0.8080 C   0  0  0  0  0  0  0  0  0  0  0  0
    2.0397    1.5265    0.2686 H   0  0  0  0  0  0  0  0  0  0  0  0
    2.8499    3.0482    0.7031 H   0  0  0  0  0  0  0  0  0  0  0  0
    1.7548    2.2663    1.8647 H   0  0  0  0  0  0  0  0  0  0  0  0
   -0.1711   -0.0594    1.8296 C   0  0  0  0  0  0  0  0  0  0  0  0
    0.9865   -0.2908    2.1726 O   0  0  0  0  0  0  0  0  0  0  0  0
   -1.0921    0.4156    2.6780 N   0  0  0  0  0  0  0  0  0  0  0  0
   -2.0168    0.5953    2.3206 H   0  0  0  0  0  0  0  0  0  0  0  0
   -0.8319    0.7034    4.0877 C   0  0  0  0  0  0  0  0  0  0  0  0
   -0.0192    1.4288    4.1710 H   0  0  0  0  0  0  0  0  0  0  0  0
   -1.7255    1.1088    4.5641 H   0  0  0  0  0  0  0  0  0  0  0  0
   -0.5319   -0.2118    4.6011 H   0  0  0  0  0  0  0  0  0  0  0  0
  5  6  2  0  0  0  0
  5  7  1  0  0  0  0
  2  3  1  0  0  0  0
  2  4  1  0  0  0  0
  2  5  1  0  0  0  0
  1  2  1  0  0  0  0
 22 23  2  0  0  0  0
 22 24  1  0  0  0  0
 18 19  1  0  0  0  0
 18 20  1  0  0  0  0
 18 21  1  0  0  0  0
 17 18  1  0  0  0  0
 14 15  1  0  0  0  0
 14 16  1  0  0  0  0
 14 17  1  0  0  0  0
 11 12  1  0  0  0  0
 11 13  1  0  0  0  0
 11 14  1  0  0  0  0
  9 10  1  0  0  0  0
  9 11  1  0  0  0  0
  9 22  1  0  0  0  0
  7  8  1  0  0  0  0
  7  9  1  0  0  0  0
 26 27  1  0  0  0  0
 26 28  1  0  0  0  0
 26 29  1  0  0  0  0
 24 25  1  0  0  0  0
 24 26  1  0  0  0  0
M  END
$$$$
default_name
  -OEChem-02102213163D

 29 28  0     1  0  0  0  0  0999 V2000
   -3.5781   -3.7296    1.2702 H   0  0  0  0  0  0  0  0  0  0  0  0
   -3.5311   -2.7616    0.7732 C   0  0  0  0  0  0  0  0  0  0  0  0
   -4.2371   -2.0766    1.2382 H   0  0  0  0  0  0  0  0  0  0  0  0
   -3.7681   -2.8816   -0.2818 H   0  0  0  0  0  0  0  0  0  0  0  0
   -2.1321   -2.2086    0.9112 C   0  0  0  0  0  0  0  0  0  0  0  0
   -1.2751   -2.8426    1.5112 O   0  0  0  0  0  0  0  0  0  0  0  0
   -1.9041   -1.0186    0.3602 N   0  0  0  0  0  0  0  0  0  0  0  0
   -2.6671   -0.5416   -0.0988 H   0  0  0  0  0  0  0  0  0  0  0  0
   -0.6131   -0.3236    0.3832 C   0  0  1  0  0  0  0  0  0  0  0  0
    0.1346   -0.9625   -0.0894 H   0  0  0  0  0  0  0  0  0  0  0  0
   -0.7253    0.9751   -0.4365 C   0  0  0  0  0  0  0  0  0  0  0  0
    0.1486    1.0567   -1.0863 H   0  0  0  0  0  0  0  0  0  0  0  0
   -1.6150    0.9274   -1.0660 H   0  0  0  0  0  0  0  0  0  0  0  0
   -0.8033    2.2394    0.4270 C   0  0  0  0  0  0  0  0  0  0  0  0
   -1.8305    2.6026    0.4369 H   0  0  0  0  0  0  0  0  0  0  0  0
   -0.5113    1.9857    1.4467 H   0  0  0  0  0  0  0  0  0  0  0  0
    0.2622    3.5830   -0.1554 S   0  0  0  0  0  0  0  0  0  0  0  0
    1.8870    2.8715    0.2131 C   0  0  0  0  0  0  0  0  0  0  0  0
    2.0144    1.9401   -0.3393 H   0  0  0  0  0  0  0  0  0  0  0  0
    2.6654    3.5747   -0.0845 H   0  0  0  0  0  0  0  0  0  0  0  0
    1.9694    2.6770    1.2828 H   0  0  0  0  0  0  0  0  0  0  0  0
   -0.1711   -0.0594    1.8296 C   0  0  0  0  0  0  0  0  0  0  0  0
    0.9865   -0.2908    2.1726 O   0  0  0  0  0  0  0  0  0  0  0  0
   -1.0921    0.4156    2.6780 N   0  0  0  0  0  0  0  0  0  0  0  0
   -2.0168    0.5953    2.3206 H   0  0  0  0  0  0  0  0  0  0  0  0
   -0.8319    0.7034    4.0877 C   0  0  0  0  0  0  0  0  0  0  0  0
   -0.0192    1.4288    4.1710 H   0  0  0  0  0  0  0  0  0  0  0  0
   -1.7255    1.1088    4.5641 H   0  0  0  0  0  0  0  0  0  0  0  0
   -0.5319   -0.2118    4.6011 H   0  0  0  0  0  0  0  0  0  0  0  0
  5  6  2  0  0  0  0
  5  7  1  0  0  0  0
  2  3  1  0  0  0  0
  2  4  1  0  0  0  0
  2  5  1  0  0  0  0
  1  2  1  0  0  0  0
 22 23  2  0  0  0  0
 22 24  1  0  0  0  0
 18 19  1  0  0  0  0
 18 20  1  0  0  0  0
 18 21  1  0  0  0  0
 17 18  1  0  0  0  0
 14 15  1  0  0  0  0
 14 16  1  0  0  0  0
 14 17  1  0  0  0  0
 11 12  1  0  0  0  0
 11 13  1  0  0  0  0
 11 14  1  0  0  0  0
  9 10  1  0  0  0  0
  9 11  1  0  0  0  0
  9 22  1  0  0  0  0
  7  8  1  0  0  0  0
  7  9  1  0  0  0  0
 26 27  1  0  0  0  0
 26 28  1  0  0  0  0
 26 29  1  0  0  0  0
 24 25  1  0  0  0  0
 24 26  1  0  0  0  0
M  END
$$$$
default_name
  -OEChem-02102213163D

 29 28  0     1  0  0  0  0  0999 V2000
   -3.5781   -3.7296    1.2702 H   0  0  0  0  0  0  0  0  0  0  0  0
   -3.5311   -2.7616    0.7732 C   0  0  0  0  0  0  0  0  0  0  0  0
   -4.2371   -2.0766    1.2382 H   0  0  0  0  0  0  0  0  0  0  0  0
   -3.7681   -2.8816   -0.2818 H   0  0  0  0  0  0  0  0  0  0  0  0
   -2.1321   -2.2086    0.9112 C   0  0  0  0  0  0  0  0  0  0  0  0
   -1.2751   -2.8426    1.5112 O   0  0  0  0  0  0  0  0  0  0  0  0
   -1.9041   -1.0186    0.3602 N   0  0  0  0  0  0  0  0  0  0  0  0
   -2.6671   -0.5416   -0.0988 H   0  0  0  0  0  0  0  0  0  0  0  0
   -0.6131   -0.3236    0.3832 C   0  0  1  0  0  0  0  0  0  0  0  0
    0.1346   -0.9625   -0.0894 H   0  0  0  0  0  0  0  0  0  0  0  0
   -0.7253    0.9751   -0.4365 C   0  0  0  0  0  0  0  0  0  0  0  0
    0.1486    1.0567   -1.0863 H   0  0  0  0  0  0  0  0  0  0  0  0
   -1.6150    0.9274   -1.0660 H   0  0  0  0  0  0  0  0  0  0  0  0
   -0.8033    2.2394    0.4270 C   0  0  0  0  0  0  0  0  0  0  0  0
   -1.8470    2.4507    0.6578 H   0  0  0  0  0  0  0  0  0  0  0  0
   -0.2672    2.0602    1.3596 H   0  0  0  0  0  0  0  0  0  0  0  0
   -0.0955    3.7052   -0.3667 S   0  0  0  0  0  0  0  0  0  0  0  0
    1.6571    3.2468   -0.3571 C   0  0  0  0  0  0  0  0  0  0  0  0
    1.7998    2.3278   -0.9265 H   0  0  0  0  0  0  0  0  0  0  0  0
    2.2422    4.0460   -0.8129 H   0  0  0  0  0  0  0  0  0  0  0  0
    1.9925    3.0972    0.6695 H   0  0  0  0  0  0  0  0  0  0  0  0
   -0.1711   -0.0594    1.8296 C   0  0  0  0  0  0  0  0  0  0  0  0
    0.9865   -0.2908    2.1726 O   0  0  0  0  0  0  0  0  0  0  0  0
   -1.0921    0.4156    2.6780 N   0  0  0  0  0  0  0  0  0  0  0  0
   -2.0168    0.5953    2.3206 H   0  0  0  0  0  0  0  0  0  0  0  0
   -0.8319    0.7034    4.0877 C   0  0  0  0  0  0  0  0  0  0  0  0
   -0.0192    1.4288    4.1710 H   0  0  0  0  0  0  0  0  0  0  0  0
   -1.7255    1.1088    4.5641 H   0  0  0  0  0  0  0  0  0  0  0  0
   -0.5319   -0.2118    4.6011 H   0  0  0  0  0  0  0  0  0  0  0  0
  5  6  2  0  0  0  0
  5  7  1  0  0  0  0
  2  3  1  0  0  0  0
  2  4  1  0  0  0  0
  2  5  1  0  0  0  0
  1  2  1  0  0  0  0
 22 23  2  0  0  0  0
 22 24  1  0  0  0  0
 18 19  1  0  0  0  0
 18 20  1  0  0  0  0
 18 21  1  0  0  0  0
 17 18  1  0  0  0  0
 14 15  1  0  0  0  0
 14 16  1  0  0  0  0
 14 17  1  0  0  0  0
 11 12  1  0  0  0  0
 11 13  1  0  0  0  0
 11 14  1  0  0  0  0
  9 10  1  0  0  0  0
  9 11  1  0  0  0  0
  9 22  1  0  0  0  0
  7  8  1  0  0  0  0
  7  9  1  0  0  0  0
 26 27  1  0  0  0  0
 26 28  1  0  0  0  0
 26 29  1  0  0  0  0
 24 25  1  0  0  0  0
 24 26  1  0  0  0  0
M  END
$$$$
default_name
  -OEChem-02102213163D

 29 28  0     1  0  0  0  0  0999 V2000
   -3.5781   -3.7296    1.2702 H   0  0  0  0  0  0  0  0  0  0  0  0
   -3.5311   -2.7616    0.7732 C   0  0  0  0  0  0  0  0  0  0  0  0
   -4.2371   -2.0766    1.2382 H   0  0  0  0  0  0  0  0  0  0  0  0
   -3.7681   -2.8816   -0.2818 H   0  0  0  0  0  0  0  0  0  0  0  0
   -2.1321   -2.2086    0.9112 C   0  0  0  0  0  0  0  0  0  0  0  0
   -1.2751   -2.8426    1.5112 O   0  0  0  0  0  0  0  0  0  0  0  0
   -1.9041   -1.0186    0.3602 N   0  0  0  0  0  0  0  0  0  0  0  0
   -2.6671   -0.5416   -0.0988 H   0  0  0  0  0  0  0  0  0  0  0  0
   -0.6131   -0.3236    0.3832 C   0  0  1  0  0  0  0  0  0  0  0  0
    0.1346   -0.9625   -0.0894 H   0  0  0  0  0  0  0  0  0  0  0  0
   -0.7253    0.9751   -0.4365 C   0  0  0  0  0  0  0  0  0  0  0  0
    0.1486    1.0567   -1.0863 H   0  0  0  0  0  0  0  0  0  0  0  0
   -1.6150    0.9274   -1.0660 H   0  0  0  0  0  0  0  0  0  0  0  0
   -0.8033    2.2394    0.4270 C   0  0  0  0  0  0  0  0  0  0  0  0
   -1.7936    2.3044    0.8768 H   0  0  0  0  0  0  0  0  0  0  0  0
   -0.0609    2.1666    1.2225 H   0  0  0  0  0  0  0  0  0  0  0  0
   -0.5040    3.7684   -0.4961 S   0  0  0  0  0  0  0  0  0  0  0  0
    1.2585    3.5682   -0.8638 C   0  0  0  0  0  0  0  0  0  0  0  0
    1.4108    2.6634   -1.4529 H   0  0  0  0  0  0  0  0  0  0  0  0
    1.6093    4.4300   -1.4323 H   0  0  0  0  0  0  0  0  0  0  0  0
    1.8228    3.4985    0.0666 H   0  0  0  0  0  0  0  0  0  0  0  0
   -0.1711   -0.0594    1.8296 C   0  0  0  0  0  0  0  0  0  0  0  0
    0.9865   -0.2908    2.1726 O   0  0  0  0  0  0  0  0  0  0  0  0
   -1.0921    0.4156    2.6780 N   0  0  0  0  0  0  0  0  0  0  0  0
   -2.0168    0.5953    2.3206 H   0  0  0  0  0  0  0  0  0  0  0  0
   -0.8319    0.7034    4.0877 C   0  0  0  0  0  0  0  0  0  0  0  0
   -0.0192    1.4288    4.1710 H   0  0  0  0  0  0  0  0  0  0  0  0
   -1.7255    1.1088    4.5641 H   0  0  0  0  0  0  0  0  0  0  0  0
   -0.5319   -0.2118    4.6011 H   0  0  0  0  0  0  0  0  0  0  0  0
  5  6  2  0  0  0  0
  5  7  1  0  0  0  0
  2  3  1  0  0  0  0
  2  4  1  0  0  0  0
  2  5  1  0  0  0  0
  1  2  1  0  0  0  0
 22 23  2  0  0  0  0
 22 24  1  0  0  0  0
 18 19  1  0  0  0  0
 18 20  1  0  0  0  0
 18 21  1  0  0  0  0
 17 18  1  0  0  0  0
 14 15  1  0  0  0  0
 14 16  1  0  0  0  0
 14 17  1  0  0  0  0
 11 12  1  0  0  0  0
 11 13  1  0  0  0  0
 11 14  1  0  0  0  0
  9 10  1  0  0  0  0
  9 11  1  0  0  0  0
  9 22  1  0  0  0  0
  7  8  1  0  0  0  0
  7  9  1  0  0  0  0
 26 27  1  0  0  0  0
 26 28  1  0  0  0  0
 26 29  1  0  0  0  0
 24 25  1  0  0  0  0
 24 26  1  0  0  0  0
M  END
$$$$
default_name
  -OEChem-02102213163D

 29 28  0     1  0  0  0  0  0999 V2000
   -3.5781   -3.7296    1.2702 H   0  0  0  0  0  0  0  0  0  0  0  0
   -3.5311   -2.7616    0.7732 C   0  0  0  0  0  0  0  0  0  0  0  0
   -4.2371   -2.0766    1.2382 H   0  0  0  0  0  0  0  0  0  0  0  0
   -3.7681   -2.8816   -0.2818 H   0  0  0  0  0  0  0  0  0  0  0  0
   -2.1321   -2.2086    0.9112 C   0  0  0  0  0  0  0  0  0  0  0  0
   -1.2751   -2.8426    1.5112 O   0  0  0  0  0  0  0  0  0  0  0  0
   -1.9041   -1.0186    0.3602 N   0  0  0  0  0  0  0  0  0  0  0  0
   -2.6671   -0.5416   -0.0988 H   0  0  0  0  0  0  0  0  0  0  0  0
   -0.6131   -0.3236    0.3832 C   0  0  1  0  0  0  0  0  0  0  0  0
    0.1346   -0.9625   -0.0894 H   0  0  0  0  0  0  0  0  0  0  0  0
   -0.7253    0.9751   -0.4365 C   0  0  0  0  0  0  0  0  0  0  0  0
   -0.0127    0.9313   -1.2629 H   0  0  0  0  0  0  0  0  0  0  0  0
   -1.7296    1.0501   -0.8560 H   0  0  0  0  0  0  0  0  0  0  0  0
   -0.4395    2.2409    0.3796 C   0  0  0  0  0  0  0  0  0  0  0  0
   -1.1463    2.3001    1.2067 H   0  0  0  0  0  0  0  0  0  0  0  0
    0.5706    2.1754    0.7856 H   0  0  0  0  0  0  0  0  0  0  0  0
   -0.5709    3.7697   -0.5822 S   0  0  0  0  0  0  0  0  0  0  0  0
    0.8713    3.5811   -1.6622 C   0  0  0  0  0  0  0  0  0  0  0  0
    0.7663    2.6759   -2.2610 H   0  0  0  0  0  0  0  0  0  0  0  0
    0.9417    4.4438   -2.3251 H   0  0  0  0  0  0  0  0  0  0  0  0
    1.7771    3.5176   -1.0586 H   0  0  0  0  0  0  0  0  0  0  0  0
   -0.1711   -0.0594    1.8296 C   0  0  0  0  0  0  0  0  0  0  0  0
    0.9865   -0.2908    2.1726 O   0  0  0  0  0  0  0  0  0  0  0  0
   -1.0921    0.4156    2.6780 N   0  0  0  0  0  0  0  0  0  0  0  0
   -2.0168    0.5953    2.3206 H   0  0  0  0  0  0  0  0  0  0  0  0
   -0.8319    0.7034    4.0877 C   0  0  0  0  0  0  0  0  0  0  0  0
   -0.0192    1.4288    4.1710 H   0  0  0  0  0  0  0  0  0  0  0  0
   -1.7255    1.1088    4.5641 H   0  0  0  0  0  0  0  0  0  0  0  0
   -0.5319   -0.2118    4.6011 H   0  0  0  0  0  0  0  0  0  0  0  0
  5  6  2  0  0  0  0
  5  7  1  0  0  0  0
  2  3  1  0  0  0  0
  2  4  1  0  0  0  0
  2  5  1  0  0  0  0
  1  2  1  0  0  0  0
 22 23  2  0  0  0  0
 22 24  1  0  0  0  0
 18 19  1  0  0  0  0
 18 20  1  0  0  0  0
 18 21  1  0  0  0  0
 17 18  1  0  0  0  0
 14 15  1  0  0  0  0
 14 16  1  0  0  0  0
 14 17  1  0  0  0  0
 11 12  1  0  0  0  0
 11 13  1  0  0  0  0
 11 14  1  0  0  0  0
  9 10  1  0  0  0  0
  9 11  1  0  0  0  0
  9 22  1  0  0  0  0
  7  8  1  0  0  0  0
  7  9  1  0  0  0  0
 26 27  1  0  0  0  0
 26 28  1  0  0  0  0
 26 29  1  0  0  0  0
 24 25  1  0  0  0  0
 24 26  1  0  0  0  0
M  END
$$$$
default_name
  -OEChem-02102213163D

 29 28  0     1  0  0  0  0  0999 V2000
   -3.5781   -3.7296    1.2702 H   0  0  0  0  0  0  0  0  0  0  0  0
   -3.5311   -2.7616    0.7732 C   0  0  0  0  0  0  0  0  0  0  0  0
   -4.2371   -2.0766    1.2382 H   0  0  0  0  0  0  0  0  0  0  0  0
   -3.7681   -2.8816   -0.2818 H   0  0  0  0  0  0  0  0  0  0  0  0
   -2.1321   -2.2086    0.9112 C   0  0  0  0  0  0  0  0  0  0  0  0
   -1.2751   -2.8426    1.5112 O   0  0  0  0  0  0  0  0  0  0  0  0
   -1.9041   -1.0186    0.3602 N   0  0  0  0  0  0  0  0  0  0  0  0
   -2.6671   -0.5416   -0.0988 H   0  0  0  0  0  0  0  0  0  0  0  0
   -0.6131   -0.3236    0.3832 C   0  0  1  0  0  0  0  0  0  0  0  0
    0.1346   -0.9625   -0.0894 H   0  0  0  0  0  0  0  0  0  0  0  0
   -0.7253    0.9751   -0.4365 C   0  0  0  0  0  0  0  0  0  0  0  0
   -0.0127    0.9313   -1.2629 H   0  0  0  0  0  0  0  0  0  0  0  0
   -1.7296    1.0501   -0.8560 H   0  0  0  0  0  0  0  0  0  0  0  0
   -0.4395    2.2409    0.3796 C   0  0  0  0  0  0  0  0  0  0  0  0
   -0.9513    2.1709    1.3389 H   0  0  0  0  0  0  0  0  0  0  0  0
    0.6342    2.3070    0.5591 H   0  0  0  0  0  0  0  0  0  0  0  0
   -0.9780    3.7664   -0.4345 S   0  0  0  0  0  0  0  0  0  0  0  0
    0.2073    3.8219   -1.8033 C   0  0  0  0  0  0  0  0  0  0  0  0
    0.0957    2.9315   -2.4227 H   0  0  0  0  0  0  0  0  0  0  0  0
    0.0171    4.7075   -2.4103 H   0  0  0  0  0  0  0  0  0  0  0  0
    1.2227    3.8687   -1.4090 H   0  0  0  0  0  0  0  0  0  0  0  0
   -0.1711   -0.0594    1.8296 C   0  0  0  0  0  0  0  0  0  0  0  0
    0.9865   -0.2908    2.1726 O   0  0  0  0  0  0  0  0  0  0  0  0
   -1.0921    0.4156    2.6780 N   0  0  0  0  0  0  0  0  0  0  0  0
   -2.0168    0.5953    2.3206 H   0  0  0  0  0  0  0  0  0  0  0  0
   -0.8319    0.7034    4.0877 C   0  0  0  0  0  0  0  0  0  0  0  0
   -0.0192    1.4288    4.1710 H   0  0  0  0  0  0  0  0  0  0  0  0
   -1.7255    1.1088    4.5641 H   0  0  0  0  0  0  0  0  0  0  0  0
   -0.5319   -0.2118    4.6011 H   0  0  0  0  0  0  0  0  0  0  0  0
  5  6  2  0  0  0  0
  5  7  1  0  0  0  0
  2  3  1  0  0  0  0
  2  4  1  0  0  0  0
  2  5  1  0  0  0  0
  1  2  1  0  0  0  0
 22 23  2  0  0  0  0
 22 24  1  0  0  0  0
 18 19  1  0  0  0  0
 18 20  1  0  0  0  0
 18 21  1  0  0  0  0
 17 18  1  0  0  0  0
 14 15  1  0  0  0  0
 14 16  1  0  0  0  0
 14 17  1  0  0  0  0
 11 12  1  0  0  0  0
 11 13  1  0  0  0  0
 11 14  1  0  0  0  0
  9 10  1  0  0  0  0
  9 11  1  0  0  0  0
  9 22  1  0  0  0  0
  7  8  1  0  0  0  0
  7  9  1  0  0  0  0
 26 27  1  0  0  0  0
 26 28  1  0  0  0  0
 26 29  1  0  0  0  0
 24 25  1  0  0  0  0
 24 26  1  0  0  0  0
M  END
$$$$
default_name
  -OEChem-02102213163D

 29 28  0     1  0  0  0  0  0999 V2000
   -3.5781   -3.7296    1.2702 H   0  0  0  0  0  0  0  0  0  0  0  0
   -3.5311   -2.7616    0.7732 C   0  0  0  0  0  0  0  0  0  0  0  0
   -4.2371   -2.0766    1.2382 H   0  0  0  0  0  0  0  0  0  0  0  0
   -3.7681   -2.8816   -0.2818 H   0  0  0  0  0  0  0  0  0  0  0  0
   -2.1321   -2.2086    0.9112 C   0  0  0  0  0  0  0  0  0  0  0  0
   -1.2751   -2.8426    1.5112 O   0  0  0  0  0  0  0  0  0  0  0  0
   -1.9041   -1.0186    0.3602 N   0  0  0  0  0  0  0  0  0  0  0  0
   -2.6671   -0.5416   -0.0988 H   0  0  0  0  0  0  0  0  0  0  0  0
   -0.6131   -0.3236    0.3832 C   0  0  1  0  0  0  0  0  0  0  0  0
    0.1346   -0.9625   -0.0894 H   0  0  0  0  0  0  0  0  0  0  0  0
   -0.7253    0.9751   -0.4365 C   0  0  0  0  0  0  0  0  0  0  0  0
   -0.0127    0.9313   -1.2629 H   0  0  0  0  0  0  0  0  0  0  0  0
   -1.7296    1.0501   -0.8560 H   0  0  0  0  0  0  0  0  0  0  0  0
   -0.4395    2.2409    0.3796 C   0  0  0  0  0  0  0  0  0  0  0  0
   -0.7170    2.0665    1.4187 H   0  0  0  0  0  0  0  0  0  0  0  0
    0.6291    2.4539    0.3330 H   0  0  0  0  0  0  0  0  0  0  0  0
   -1.3392    3.6999   -0.2049 S   0  0  0  0  0  0  0  0  0  0  0  0
   -0.4975    3.9699   -1.7861 C   0  0  0  0  0  0  0  0  0  0  0  0
   -0.6218    3.0938   -2.4232 H   0  0  0  0  0  0  0  0  0  0  0  0
   -0.9305    4.8389   -2.2823 H   0  0  0  0  0  0  0  0  0  0  0  0
    0.5640    4.1483   -1.6120 H   0  0  0  0  0  0  0  0  0  0  0  0
   -0.1711   -0.0594    1.8296 C   0  0  0  0  0  0  0  0  0  0  0  0
    0.9865   -0.2908    2.1726 O   0  0  0  0  0  0  0  0  0  0  0  0
   -1.0921    0.4156    2.6780 N   0  0  0  0  0  0  0  0  0  0  0  0
   -2.0168    0.5953    2.3206 H   0  0  0  0  0  0  0  0  0  0  0  0
   -0.8319    0.7034    4.0877 C   0  0  0  0  0  0  0  0  0  0  0  0
   -0.0192    1.4288    4.1710 H   0  0  0  0  0  0  0  0  0  0  0  0
   -1.7255    1.1088    4.5641 H   0  0  0  0  0  0  0  0  0  0  0  0
   -0.5319   -0.2118    4.6011 H   0  0  0  0  0  0  0  0  0  0  0  0
  5  6  2  0  0  0  0
  5  7  1  0  0  0  0
  2  3  1  0  0  0  0
  2  4  1  0  0  0  0
  2  5  1  0  0  0  0
  1  2  1  0  0  0  0
 22 23  2  0  0  0  0
 22 24  1  0  0  0  0
 18 19  1  0  0  0  0
 18 20  1  0  0  0  0
 18 21  1  0  0  0  0
 17 18  1  0  0  0  0
 14 15  1  0  0  0  0
 14 16  1  0  0  0  0
 14 17  1  0  0  0  0
 11 12  1  0  0  0  0
 11 13  1  0  0  0  0
 11 14  1  0  0  0  0
  9 10  1  0  0  0  0
  9 11  1  0  0  0  0
  9 22  1  0  0  0  0
  7  8  1  0  0  0  0
  7  9  1  0  0  0  0
 26 27  1  0  0  0  0
 26 28  1  0  0  0  0
 26 29  1  0  0  0  0
 24 25  1  0  0  0  0
 24 26  1  0  0  0  0
M  END
$$$$
default_name
  -OEChem-02102213163D

 29 28  0     1  0  0  0  0  0999 V2000
   -3.5781   -3.7296    1.2702 H   0  0  0  0  0  0  0  0  0  0  0  0
   -3.5311   -2.7616    0.7732 C   0  0  0  0  0  0  0  0  0  0  0  0
   -4.2371   -2.0766    1.2382 H   0  0  0  0  0  0  0  0  0  0  0  0
   -3.7681   -2.8816   -0.2818 H   0  0  0  0  0  0  0  0  0  0  0  0
   -2.1321   -2.2086    0.9112 C   0  0  0  0  0  0  0  0  0  0  0  0
   -1.2751   -2.8426    1.5112 O   0  0  0  0  0  0  0  0  0  0  0  0
   -1.9041   -1.0186    0.3602 N   0  0  0  0  0  0  0  0  0  0  0  0
   -2.6671   -0.5416   -0.0988 H   0  0  0  0  0  0  0  0  0  0  0  0
   -0.6131   -0.3236    0.3832 C   0  0  1  0  0  0  0  0  0  0  0  0
    0.1346   -0.9625   -0.0894 H   0  0  0  0  0  0  0  0  0  0  0  0
   -0.7253    0.9751   -0.4365 C   0  0  0  0  0  0  0  0  0  0  0  0
   -0.0127    0.9313   -1.2629 H   0  0  0  0  0  0  0  0  0  0  0  0
   -1.7296    1.0501   -0.8560 H   0  0  0  0  0  0  0  0  0  0  0  0
   -0.4395    2.2409    0.3796 C   0  0  0  0  0  0  0  0  0  0  0  0
   -0.4591    1.9941    1.4407 H   0  0  0  0  0  0  0  0  0  0  0  0
    0.5556    2.6060    0.1229 H   0  0  0  0  0  0  0  0  0  0  0  0
   -1.6299    3.5749    0.0909 S   0  0  0  0  0  0  0  0  0  0  0  0
   -1.1949    4.0150   -1.6117 C   0  0  0  0  0  0  0  0  0  0  0  0
   -1.3373    3.1517   -2.2624 H   0  0  0  0  0  0  0  0  0  0  0  0
   -1.8366    4.8291   -1.9498 H   0  0  0  0  0  0  0  0  0  0  0  0
   -0.1542    4.3374   -1.6539 H   0  0  0  0  0  0  0  0  0  0  0  0
   -0.1711   -0.0594    1.8296 C   0  0  0  0  0  0  0  0  0  0  0  0
    0.9865   -0.2908    2.1726 O   0  0  0  0  0  0  0  0  0  0  0  0
   -1.0921    0.4156    2.6780 N   0  0  0  0  0  0  0  0  0  0  0  0
   -2.0168    0.5953    2.3206 H   0  0  0  0  0  0  0  0  0  0  0  0
   -0.8319    0.7034    4.0877 C   0  0  0  0  0  0  0  0  0  0  0  0
   -0.0192    1.4288    4.1710 H   0  0  0  0  0  0  0  0  0  0  0  0
   -1.7255    1.1088    4.5641 H   0  0  0  0  0  0  0  0  0  0  0  0
   -0.5319   -0.2118    4.6011 H   0  0  0  0  0  0  0  0  0  0  0  0
  5  6  2  0  0  0  0
  5  7  1  0  0  0  0
  2  3  1  0  0  0  0
  2  4  1  0  0  0  0
  2  5  1  0  0  0  0
  1  2  1  0  0  0  0
 22 23  2  0  0  0  0
 22 24  1  0  0  0  0
 18 19  1  0  0  0  0
 18 20  1  0  0  0  0
 18 21  1  0  0  0  0
 17 18  1  0  0  0  0
 14 15  1  0  0  0  0
 14 16  1  0  0  0  0
 14 17  1  0  0  0  0
 11 12  1  0  0  0  0
 11 13  1  0  0  0  0
 11 14  1  0  0  0  0
  9 10  1  0  0  0  0
  9 11  1  0  0  0  0
  9 22  1  0  0  0  0
  7  8  1  0  0  0  0
  7  9  1  0  0  0  0
 26 27  1  0  0  0  0
 26 28  1  0  0  0  0
 26 29  1  0  0  0  0
 24 25  1  0  0  0  0
 24 26  1  0  0  0  0
M  END
$$$$
default_name
  -OEChem-02102213163D

 29 28  0     1  0  0  0  0  0999 V2000
   -3.5781   -3.7296    1.2702 H   0  0  0  0  0  0  0  0  0  0  0  0
   -3.5311   -2.7616    0.7732 C   0  0  0  0  0  0  0  0  0  0  0  0
   -4.2371   -2.0766    1.2382 H   0  0  0  0  0  0  0  0  0  0  0  0
   -3.7681   -2.8816   -0.2818 H   0  0  0  0  0  0  0  0  0  0  0  0
   -2.1321   -2.2086    0.9112 C   0  0  0  0  0  0  0  0  0  0  0  0
   -1.2751   -2.8426    1.5112 O   0  0  0  0  0  0  0  0  0  0  0  0
   -1.9041   -1.0186    0.3602 N   0  0  0  0  0  0  0  0  0  0  0  0
   -2.6671   -0.5416   -0.0988 H   0  0  0  0  0  0  0  0  0  0  0  0
   -0.6131   -0.3236    0.3832 C   0  0  1  0  0  0  0  0  0  0  0  0
    0.1346   -0.9625   -0.0894 H   0  0  0  0  0  0  0  0  0  0  0  0
   -0.7253    0.9751   -0.4365 C   0  0  0  0  0  0  0  0  0  0  0  0
   -0.0127    0.9313   -1.2629 H   0  0  0  0  0  0  0  0  0  0  0  0
   -1.7296    1.0501   -0.8560 H   0  0  0  0  0  0  0  0  0  0  0  0
   -0.4395    2.2409    0.3796 C   0  0  0  0  0  0  0  0  0  0  0  0
   -0.1954    1.9587    1.4033 H   0  0  0  0  0  0  0  0  0  0  0  0
    0.4187    2.7529   -0.0571 H   0  0  0  0  0  0  0  0  0  0  0  0
   -1.8302    3.3998    0.4327 S   0  0  0  0  0  0  0  0  0  0  0  0
   -1.8375    3.9539   -1.2920 C   0  0  0  0  0  0  0  0  0  0  0  0
   -2.0021    3.1013   -1.9515 H   0  0  0  0  0  0  0  0  0  0  0  0
   -2.6394    4.6787   -1.4354 H   0  0  0  0  0  0  0  0  0  0  0  0
   -0.8829    4.4231   -1.5317 H   0  0  0  0  0  0  0  0  0  0  0  0
   -0.1711   -0.0594    1.8296 C   0  0  0  0  0  0  0  0  0  0  0  0
    0.9865   -0.2908    2.1726 O   0  0  0  0  0  0  0  0  0  0  0  0
   -1.0921    0.4156    2.6780 N   0  0  0  0  0  0  0  0  0  0  0  0
   -2.0168    0.5953    2.3206 H   0  0  0  0  0  0  0  0  0  0  0  0
   -0.8319    0.7034    4.0877 C   0  0  0  0  0  0  0  0  0  0  0  0
   -0.0192    1.4288    4.1710 H   0  0  0  0  0  0  0  0  0  0  0  0
   -1.7255    1.1088    4.5641 H   0  0  0  0  0  0  0  0  0  0  0  0
   -0.5319   -0.2118    4.6011 H   0  0  0  0  0  0  0  0  0  0  0  0
  5  6  2  0  0  0  0
  5  7  1  0  0  0  0
  2  3  1  0  0  0  0
  2  4  1  0  0  0  0
  2  5  1  0  0  0  0
  1  2  1  0  0  0  0
 22 23  2  0  0  0  0
 22 24  1  0  0  0  0
 18 19  1  0  0  0  0
 18 20  1  0  0  0  0
 18 21  1  0  0  0  0
 17 18  1  0  0  0  0
 14 15  1  0  0  0  0
 14 16  1  0  0  0  0
 14 17  1  0  0  0  0
 11 12  1  0  0  0  0
 11 13  1  0  0  0  0
 11 14  1  0  0  0  0
  9 10  1  0  0  0  0
  9 11  1  0  0  0  0
  9 22  1  0  0  0  0
  7  8  1  0  0  0  0
  7  9  1  0  0  0  0
 26 27  1  0  0  0  0
 26 28  1  0  0  0  0
 26 29  1  0  0  0  0
 24 25  1  0  0  0  0
 24 26  1  0  0  0  0
M  END
$$$$
default_name
  -OEChem-02102213163D

 29 28  0     1  0  0  0  0  0999 V2000
   -3.5781   -3.7296    1.2702 H   0  0  0  0  0  0  0  0  0  0  0  0
   -3.5311   -2.7616    0.7732 C   0  0  0  0  0  0  0  0  0  0  0  0
   -4.2371   -2.0766    1.2382 H   0  0  0  0  0  0  0  0  0  0  0  0
   -3.7681   -2.8816   -0.2818 H   0  0  0  0  0  0  0  0  0  0  0  0
   -2.1321   -2.2086    0.9112 C   0  0  0  0  0  0  0  0  0  0  0  0
   -1.2751   -2.8426    1.5112 O   0  0  0  0  0  0  0  0  0  0  0  0
   -1.9041   -1.0186    0.3602 N   0  0  0  0  0  0  0  0  0  0  0  0
   -2.6671   -0.5416   -0.0988 H   0  0  0  0  0  0  0  0  0  0  0  0
   -0.6131   -0.3236    0.3832 C   0  0  1  0  0  0  0  0  0  0  0  0
    0.1346   -0.9625   -0.0894 H   0  0  0  0  0  0  0  0  0  0  0  0
   -0.7253    0.9751   -0.4365 C   0  0  0  0  0  0  0  0  0  0  0  0
   -0.0127    0.9313   -1.2629 H   0  0  0  0  0  0  0  0  0  0  0  0
   -1.7296    1.0501   -0.8560 H   0  0  0  0  0  0  0  0  0  0  0  0
   -0.4395    2.2409    0.3796 C   0  0  0  0  0  0  0  0  0  0  0  0
    0.0562    1.9626    1.3091 H   0  0  0  0  0  0  0  0  0  0  0  0
    0.2278    2.8846   -0.1946 H   0  0  0  0  0  0  0  0  0  0  0  0
   -1.9265    3.1865    0.7972 S   0  0  0  0  0  0  0  0  0  0  0  0
   -2.3815    3.7910   -0.8489 C   0  0  0  0  0  0  0  0  0  0  0  0
   -2.5708    2.9461   -1.5115 H   0  0  0  0  0  0  0  0  0  0  0  0
   -3.2841    4.3980   -0.7742 H   0  0  0  0  0  0  0  0  0  0  0  0
   -1.5724    4.3997   -1.2538 H   0  0  0  0  0  0  0  0  0  0  0  0
   -0.1711   -0.0594    1.8296 C   0  0  0  0  0  0  0  0  0  0  0  0
    0.9865   -0.2908    2.1726 O   0  0  0  0  0  0  0  0  0  0  0  0
   -1.0921    0.4156    2.6780 N   0  0  0  0  0  0  0  0  0  0  0  0
   -2.0168    0.5953    2.3206 H   0  0  0  0  0  0  0  0  0  0  0  0
   -0.8319    0.7034    4.0877 C   0  0  0  0  0  0  0  0  0  0  0  0
   -0.0192    1.4288    4.1710 H   0  0  0  0  0  0  0  0  0  0  0  0
   -1.7255    1.1088    4.5641 H   0  0  0  0  0  0  0  0  0  0  0  0
   -0.5319   -0.2118    4.6011 H   0  0  0  0  0  0  0  0  0  0  0  0
  5  6  2  0  0  0  0
  5  7  1  0  0  0  0
  2  3  1  0  0  0  0
  2  4  1  0  0  0  0
  2  5  1  0  0  0  0
  1  2  1  0  0  0  0
 22 23  2  0  0  0  0
 22 24  1  0  0  0  0
 18 19  1  0  0  0  0
 18 20  1  0  0  0  0
 18 21  1  0  0  0  0
 17 18  1  0  0  0  0
 14 15  1  0  0  0  0
 14 16  1  0  0  0  0
 14 17  1  0  0  0  0
 11 12  1  0  0  0  0
 11 13  1  0  0  0  0
 11 14  1  0  0  0  0
  9 10  1  0  0  0  0
  9 11  1  0  0  0  0
  9 22  1  0  0  0  0
  7  8  1  0  0  0  0
  7  9  1  0  0  0  0
 26 27  1  0  0  0  0
 26 28  1  0  0  0  0
 26 29  1  0  0  0  0
 24 25  1  0  0  0  0
 24 26  1  0  0  0  0
M  END
$$$$
default_name
  -OEChem-02102213163D

 29 28  0     1  0  0  0  0  0999 V2000
   -3.5781   -3.7296    1.2702 H   0  0  0  0  0  0  0  0  0  0  0  0
   -3.5311   -2.7616    0.7732 C   0  0  0  0  0  0  0  0  0  0  0  0
   -4.2371   -2.0766    1.2382 H   0  0  0  0  0  0  0  0  0  0  0  0
   -3.7681   -2.8816   -0.2818 H   0  0  0  0  0  0  0  0  0  0  0  0
   -2.1321   -2.2086    0.9112 C   0  0  0  0  0  0  0  0  0  0  0  0
   -1.2751   -2.8426    1.5112 O   0  0  0  0  0  0  0  0  0  0  0  0
   -1.9041   -1.0186    0.3602 N   0  0  0  0  0  0  0  0  0  0  0  0
   -2.6671   -0.5416   -0.0988 H   0  0  0  0  0  0  0  0  0  0  0  0
   -0.6131   -0.3236    0.3832 C   0  0  1  0  0  0  0  0  0  0  0  0
    0.1346   -0.9625   -0.0894 H   0  0  0  0  0  0  0  0  0  0  0  0
   -0.7253    0.9751   -0.4365 C   0  0  0  0  0  0  0  0  0  0  0  0
   -0.0127    0.9313   -1.2629 H   0  0  0  0  0  0  0  0  0  0  0  0
   -1.7296    1.0501   -0.8560 H   0  0  0  0  0  0  0  0  0  0  0  0
   -0.4395    2.2409    0.3796 C   0  0  0  0  0  0  0  0  0  0  0  0
    0.2786    2.0056    1.1646 H   0  0  0  0  0  0  0  0  0  0  0  0
   -0.0041    2.9922   -0.2802 H   0  0  0  0  0  0  0  0  0  0  0  0
   -1.9123    2.9497    1.1595 S   0  0  0  0  0  0  0  0  0  0  0  0
   -2.7897    3.5374   -0.3124 C   0  0  0  0  0  0  0  0  0  0  0  0
   -3.0047    2.6965   -0.9725 H   0  0  0  0  0  0  0  0  0  0  0  0
   -3.7270    4.0062   -0.0113 H   0  0  0  0  0  0  0  0  0  0  0  0
   -2.1759    4.2686   -0.8391 H   0  0  0  0  0  0  0  0  0  0  0  0
   -0.1711   -0.0594    1.8296 C   0  0  0  0  0  0  0  0  0  0  0  0
    0.9865   -0.2908    2.1726 O   0  0  0  0  0  0  0  0  0  0  0  0
   -1.0921    0.4156    2.6780 N   0  0  0  0  0  0  0  0  0  0  0  0
   -2.0168    0.5953    2.3206 H   0  0  0  0  0  0  0  0  0  0  0  0
   -0.8319    0.7034    4.0877 C   0  0  0  0  0  0  0  0  0  0  0  0
   -0.0192    1.4288    4.1710 H   0  0  0  0  0  0  0  0  0  0  0  0
   -1.7255    1.1088    4.5641 H   0  0  0  0  0  0  0  0  0  0  0  0
   -0.5319   -0.2118    4.6011 H   0  0  0  0  0  0  0  0  0  0  0  0
  5  6  2  0  0  0  0
  5  7  1  0  0  0  0
  2  3  1  0  0  0  0
  2  4  1  0  0  0  0
  2  5  1  0  0  0  0
  1  2  1  0  0  0  0
 22 23  2  0  0  0  0
 22 24  1  0  0  0  0
 18 19  1  0  0  0  0
 18 20  1  0  0  0  0
 18 21  1  0  0  0  0
 17 18  1  0  0  0  0
 14 15  1  0  0  0  0
 14 16  1  0  0  0  0
 14 17  1  0  0  0  0
 11 12  1  0  0  0  0
 11 13  1  0  0  0  0
 11 14  1  0  0  0  0
  9 10  1  0  0  0  0
  9 11  1  0  0  0  0
  9 22  1  0  0  0  0
  7  8  1  0  0  0  0
  7  9  1  0  0  0  0
 26 27  1  0  0  0  0
 26 28  1  0  0  0  0
 26 29  1  0  0  0  0
 24 25  1  0  0  0  0
 24 26  1  0  0  0  0
M  END
$$$$
default_name
  -OEChem-02102213163D

 29 28  0     1  0  0  0  0  0999 V2000
   -3.5781   -3.7296    1.2702 H   0  0  0  0  0  0  0  0  0  0  0  0
   -3.5311   -2.7616    0.7732 C   0  0  0  0  0  0  0  0  0  0  0  0
   -4.2371   -2.0766    1.2382 H   0  0  0  0  0  0  0  0  0  0  0  0
   -3.7681   -2.8816   -0.2818 H   0  0  0  0  0  0  0  0  0  0  0  0
   -2.1321   -2.2086    0.9112 C   0  0  0  0  0  0  0  0  0  0  0  0
   -1.2751   -2.8426    1.5112 O   0  0  0  0  0  0  0  0  0  0  0  0
   -1.9041   -1.0186    0.3602 N   0  0  0  0  0  0  0  0  0  0  0  0
   -2.6671   -0.5416   -0.0988 H   0  0  0  0  0  0  0  0  0  0  0  0
   -0.6131   -0.3236    0.3832 C   0  0  1  0  0  0  0  0  0  0  0  0
    0.1346   -0.9625   -0.0894 H   0  0  0  0  0  0  0  0  0  0  0  0
   -0.7253    0.9751   -0.4365 C   0  0  0  0  0  0  0  0  0  0  0  0
   -0.0127    0.9313   -1.2629 H   0  0  0  0  0  0  0  0  0  0  0  0
   -1.7296    1.0501   -0.8560 H   0  0  0  0  0  0  0  0  0  0  0  0
   -0.4395    2.2409    0.3796 C   0  0  0  0  0  0  0  0  0  0  0  0
    0.4566    2.0848    0.9795 H   0  0  0  0  0  0  0  0  0  0  0  0
   -0.2612    3.0683   -0.3082 H   0  0  0  0  0  0  0  0  0  0  0  0
   -1.7885    2.7054    1.4951 S   0  0  0  0  0  0  0  0  0  0  0  0
   -3.0345    3.2102    0.2808 C   0  0  0  0  0  0  0  0  0  0  0  0
   -3.2743    2.3696   -0.3711 H   0  0  0  0  0  0  0  0  0  0  0  0
   -3.9377    3.5299    0.8013 H   0  0  0  0  0  0  0  0  0  0  0  0
   -2.6521    4.0388   -0.3159 H   0  0  0  0  0  0  0  0  0  0  0  0
   -0.1711   -0.0594    1.8296 C   0  0  0  0  0  0  0  0  0  0  0  0
    0.9865   -0.2908    2.1726 O   0  0  0  0  0  0  0  0  0  0  0  0
   -1.0921    0.4156    2.6780 N   0  0  0  0  0  0  0  0  0  0  0  0
   -2.0168    0.5953    2.3206 H   0  0  0  0  0  0  0  0  0  0  0  0
   -0.8319    0.7034    4.0877 C   0  0  0  0  0  0  0  0  0  0  0  0
   -0.0192    1.4288    4.1710 H   0  0  0  0  0  0  0  0  0  0  0  0
   -1.7255    1.1088    4.5641 H   0  0  0  0  0  0  0  0  0  0  0  0
   -0.5319   -0.2118    4.6011 H   0  0  0  0  0  0  0  0  0  0  0  0
  5  6  2  0  0  0  0
  5  7  1  0  0  0  0
  2  3  1  0  0  0  0
  2  4  1  0  0  0  0
  2  5  1  0  0  0  0
  1  2  1  0  0  0  0
 22 23  2  0  0  0  0
 22 24  1  0  0  0  0
 18 19  1  0  0  0  0
 18 20  1  0  0  0  0
 18 21  1  0  0  0  0
 17 18  1  0  0  0  0
 14 15  1  0  0  0  0
 14 16  1  0  0  0  0
 14 17  1  0  0  0  0
 11 12  1  0  0  0  0
 11 13  1  0  0  0  0
 11 14  1  0  0  0  0
  9 10  1  0  0  0  0
  9 11  1  0  0  0  0
  9 22  1  0  0  0  0
  7  8  1  0  0  0  0
  7  9  1  0  0  0  0
 26 27  1  0  0  0  0
 26 28  1  0  0  0  0
 26 29  1  0  0  0  0
 24 25  1  0  0  0  0
 24 26  1  0  0  0  0
M  END
$$$$
default_name
  -OEChem-02102213163D

 29 28  0     1  0  0  0  0  0999 V2000
   -3.5781   -3.7296    1.2702 H   0  0  0  0  0  0  0  0  0  0  0  0
   -3.5311   -2.7616    0.7732 C   0  0  0  0  0  0  0  0  0  0  0  0
   -4.2371   -2.0766    1.2382 H   0  0  0  0  0  0  0  0  0  0  0  0
   -3.7681   -2.8816   -0.2818 H   0  0  0  0  0  0  0  0  0  0  0  0
   -2.1321   -2.2086    0.9112 C   0  0  0  0  0  0  0  0  0  0  0  0
   -1.2751   -2.8426    1.5112 O   0  0  0  0  0  0  0  0  0  0  0  0
   -1.9041   -1.0186    0.3602 N   0  0  0  0  0  0  0  0  0  0  0  0
   -2.6671   -0.5416   -0.0988 H   0  0  0  0  0  0  0  0  0  0  0  0
   -0.6131   -0.3236    0.3832 C   0  0  1  0  0  0  0  0  0  0  0  0
    0.1346   -0.9625   -0.0894 H   0  0  0  0  0  0  0  0  0  0  0  0
   -0.7253    0.9751   -0.4365 C   0  0  0  0  0  0  0  0  0  0  0  0
   -0.0127    0.9313   -1.2629 H   0  0  0  0  0  0  0  0  0  0  0  0
   -1.7296    1.0501   -0.8560 H   0  0  0  0  0  0  0  0  0  0  0  0
   -0.4395    2.2409    0.3796 C   0  0  0  0  0  0  0  0  0  0  0  0
    0.5780    2.1947    0.7665 H   0  0  0  0  0  0  0  0  0  0  0  0
   -0.5261    3.1077   -0.2766 H   0  0  0  0  0  0  0  0  0  0  0  0
   -1.5635    2.4703    1.7809 S   0  0  0  0  0  0  0  0  0  0  0  0
   -3.0991    2.8318    0.8903 C   0  0  0  0  0  0  0  0  0  0  0  0
   -3.3611    1.9878    0.2516 H   0  0  0  0  0  0  0  0  0  0  0  0
   -3.9019    3.0015    1.6083 H   0  0  0  0  0  0  0  0  0  0  0  0
   -2.9686    3.7260    0.2801 H   0  0  0  0  0  0  0  0  0  0  0  0
   -0.1711   -0.0594    1.8296 C   0  0  0  0  0  0  0  0  0  0  0  0
    0.9865   -0.2908    2.1726 O   0  0  0  0  0  0  0  0  0  0  0  0
   -1.0921    0.4156    2.6780 N   0  0  0  0  0  0  0  0  0  0  0  0
   -2.0168    0.5953    2.3206 H   0  0  0  0  0  0  0  0  0  0  0  0
   -0.8319    0.7034    4.0877 C   0  0  0  0  0  0  0  0  0  0  0  0
   -0.0192    1.4288    4.1710 H   0  0  0  0  0  0  0  0  0  0  0  0
   -1.7255    1.1088    4.5641 H   0  0  0  0  0  0  0  0  0  0  0  0
   -0.5319   -0.2118    4.6011 H   0  0  0  0  0  0  0  0  0  0  0  0
  5  6  2  0  0  0  0
  5  7  1  0  0  0  0
  2  3  1  0  0  0  0
  2  4  1  0  0  0  0
  2  5  1  0  0  0  0
  1  2  1  0  0  0  0
 22 23  2  0  0  0  0
 22 24  1  0  0  0  0
 18 19  1  0  0  0  0
 18 20  1  0  0  0  0
 18 21  1  0  0  0  0
 17 18  1  0  0  0  0
 14 15  1  0  0  0  0
 14 16  1  0  0  0  0
 14 17  1  0  0  0  0
 11 12  1  0  0  0  0
 11 13  1  0  0  0  0
 11 14  1  0  0  0  0
  9 10  1  0  0  0  0
  9 11  1  0  0  0  0
  9 22  1  0  0  0  0
  7  8  1  0  0  0  0
  7  9  1  0  0  0  0
 26 27  1  0  0  0  0
 26 28  1  0  0  0  0
 26 29  1  0  0  0  0
 24 25  1  0  0  0  0
 24 26  1  0  0  0  0
M  END
$$$$
default_name
  -OEChem-02102213163D

 29 28  0     1  0  0  0  0  0999 V2000
   -3.5781   -3.7296    1.2702 H   0  0  0  0  0  0  0  0  0  0  0  0
   -3.5311   -2.7616    0.7732 C   0  0  0  0  0  0  0  0  0  0  0  0
   -4.2371   -2.0766    1.2382 H   0  0  0  0  0  0  0  0  0  0  0  0
   -3.7681   -2.8816   -0.2818 H   0  0  0  0  0  0  0  0  0  0  0  0
   -2.1321   -2.2086    0.9112 C   0  0  0  0  0  0  0  0  0  0  0  0
   -1.2751   -2.8426    1.5112 O   0  0  0  0  0  0  0  0  0  0  0  0
   -1.9041   -1.0186    0.3602 N   0  0  0  0  0  0  0  0  0  0  0  0
   -2.6671   -0.5416   -0.0988 H   0  0  0  0  0  0  0  0  0  0  0  0
   -0.6131   -0.3236    0.3832 C   0  0  1  0  0  0  0  0  0  0  0  0
    0.1346   -0.9625   -0.0894 H   0  0  0  0  0  0  0  0  0  0  0  0
   -0.7253    0.9751   -0.4365 C   0  0  0  0  0  0  0  0  0  0  0  0
   -0.0127    0.9313   -1.2629 H   0  0  0  0  0  0  0  0  0  0  0  0
   -1.7296    1.0501   -0.8560 H   0  0  0  0  0  0  0  0  0  0  0  0
   -0.4395    2.2409    0.3796 C   0  0  0  0  0  0  0  0  0  0  0  0
    0.6347    2.3278    0.5401 H   0  0  0  0  0  0  0  0  0  0  0  0
   -0.7806    3.1078   -0.1875 H   0  0  0  0  0  0  0  0  0  0  0  0
   -1.2527    2.2605    1.9976 S   0  0  0  0  0  0  0  0  0  0  0  0
   -2.9790    2.4280    1.4746 C   0  0  0  0  0  0  0  0  0  0  0  0
   -3.2592    1.5769    0.8533 H   0  0  0  0  0  0  0  0  0  0  0  0
   -3.6221    2.4572    2.3547 H   0  0  0  0  0  0  0  0  0  0  0  0
   -3.1039    3.3514    0.9084 H   0  0  0  0  0  0  0  0  0  0  0  0
   -0.1711   -0.0594    1.8296 C   0  0  0  0  0  0  0  0  0  0  0  0
    0.9865   -0.2908    2.1726 O   0  0  0  0  0  0  0  0  0  0  0  0
   -1.0921    0.4156    2.6780 N   0  0  0  0  0  0  0  0  0  0  0  0
   -2.0168    0.5953    2.3206 H   0  0  0  0  0  0  0  0  0  0  0  0
   -0.8319    0.7034    4.0877 C   0  0  0  0  0  0  0  0  0  0  0  0
   -0.0192    1.4288    4.1710 H   0  0  0  0  0  0  0  0  0  0  0  0
   -1.7255    1.1088    4.5641 H   0  0  0  0  0  0  0  0  0  0  0  0
   -0.5319   -0.2118    4.6011 H   0  0  0  0  0  0  0  0  0  0  0  0
  5  6  2  0  0  0  0
  5  7  1  0  0  0  0
  2  3  1  0  0  0  0
  2  4  1  0  0  0  0
  2  5  1  0  0  0  0
  1  2  1  0  0  0  0
 22 23  2  0  0  0  0
 22 24  1  0  0  0  0
 18 19  1  0  0  0  0
 18 20  1  0  0  0  0
 18 21  1  0  0  0  0
 17 18  1  0  0  0  0
 14 15  1  0  0  0  0
 14 16  1  0  0  0  0
 14 17  1  0  0  0  0
 11 12  1  0  0  0  0
 11 13  1  0  0  0  0
 11 14  1  0  0  0  0
  9 10  1  0  0  0  0
  9 11  1  0  0  0  0
  9 22  1  0  0  0  0
  7  8  1  0  0  0  0
  7  9  1  0  0  0  0
 26 27  1  0  0  0  0
 26 28  1  0  0  0  0
 26 29  1  0  0  0  0
 24 25  1  0  0  0  0
 24 26  1  0  0  0  0
M  END
$$$$
default_name
  -OEChem-02102213163D

 29 28  0     1  0  0  0  0  0999 V2000
   -3.5781   -3.7296    1.2702 H   0  0  0  0  0  0  0  0  0  0  0  0
   -3.5311   -2.7616    0.7732 C   0  0  0  0  0  0  0  0  0  0  0  0
   -4.2371   -2.0766    1.2382 H   0  0  0  0  0  0  0  0  0  0  0  0
   -3.7681   -2.8816   -0.2818 H   0  0  0  0  0  0  0  0  0  0  0  0
   -2.1321   -2.2086    0.9112 C   0  0  0  0  0  0  0  0  0  0  0  0
   -1.2751   -2.8426    1.5112 O   0  0  0  0  0  0  0  0  0  0  0  0
   -1.9041   -1.0186    0.3602 N   0  0  0  0  0  0  0  0  0  0  0  0
   -2.6671   -0.5416   -0.0988 H   0  0  0  0  0  0  0  0  0  0  0  0
   -0.6131   -0.3236    0.3832 C   0  0  1  0  0  0  0  0  0  0  0  0
    0.1346   -0.9625   -0.0894 H   0  0  0  0  0  0  0  0  0  0  0  0
   -0.7253    0.9751   -0.4365 C   0  0  0  0  0  0  0  0  0  0  0  0
   -0.0127    0.9313   -1.2629 H   0  0  0  0  0  0  0  0  0  0  0  0
   -1.7296    1.0501   -0.8560 H   0  0  0  0  0  0  0  0  0  0  0  0
   -0.4395    2.2409    0.3796 C   0  0  0  0  0  0  0  0  0  0  0  0
    0.6227    2.4752    0.3157 H   0  0  0  0  0  0  0  0  0  0  0  0
   -1.0074    3.0685   -0.0471 H   0  0  0  0  0  0  0  0  0  0  0  0
   -0.8773    2.0901    2.1304 S   0  0  0  0  0  0  0  0  0  0  0  0
   -2.6826    2.0263    1.9939 C   0  0  0  0  0  0  0  0  0  0  0  0
   -2.9756    1.1650    1.3928 H   0  0  0  0  0  0  0  0  0  0  0  0
   -3.1173    1.9339    2.9895 H   0  0  0  0  0  0  0  0  0  0  0  0
   -3.0486    2.9407    1.5261 H   0  0  0  0  0  0  0  0  0  0  0  0
   -0.1711   -0.0594    1.8296 C   0  0  0  0  0  0  0  0  0  0  0  0
    0.9865   -0.2908    2.1726 O   0  0  0  0  0  0  0  0  0  0  0  0
   -1.0921    0.4156    2.6780 N   0  0  0  0  0  0  0  0  0  0  0  0
   -2.0168    0.5953    2.3206 H   0  0  0  0  0  0  0  0  0  0  0  0
   -0.8319    0.7034    4.0877 C   0  0  0  0  0  0  0  0  0  0  0  0
   -0.0192    1.4288    4.1710 H   0  0  0  0  0  0  0  0  0  0  0  0
   -1.7255    1.1088    4.5641 H   0  0  0  0  0  0  0  0  0  0  0  0
   -0.5319   -0.2118    4.6011 H   0  0  0  0  0  0  0  0  0  0  0  0
  5  6  2  0  0  0  0
  5  7  1  0  0  0  0
  2  3  1  0  0  0  0
  2  4  1  0  0  0  0
  2  5  1  0  0  0  0
  1  2  1  0  0  0  0
 22 23  2  0  0  0  0
 22 24  1  0  0  0  0
 18 19  1  0  0  0  0
 18 20  1  0  0  0  0
 18 21  1  0  0  0  0
 17 18  1  0  0  0  0
 14 15  1  0  0  0  0
 14 16  1  0  0  0  0
 14 17  1  0  0  0  0
 11 12  1  0  0  0  0
 11 13  1  0  0  0  0
 11 14  1  0  0  0  0
  9 10  1  0  0  0  0
  9 11  1  0  0  0  0
  9 22  1  0  0  0  0
  7  8  1  0  0  0  0
  7  9  1  0  0  0  0
 26 27  1  0  0  0  0
 26 28  1  0  0  0  0
 26 29  1  0  0  0  0
 24 25  1  0  0  0  0
 24 26  1  0  0  0  0
M  END
$$$$
default_name
  -OEChem-02102213163D

 29 28  0     1  0  0  0  0  0999 V2000
   -3.5781   -3.7296    1.2702 H   0  0  0  0  0  0  0  0  0  0  0  0
   -3.5311   -2.7616    0.7732 C   0  0  0  0  0  0  0  0  0  0  0  0
   -4.2371   -2.0766    1.2382 H   0  0  0  0  0  0  0  0  0  0  0  0
   -3.7681   -2.8816   -0.2818 H   0  0  0  0  0  0  0  0  0  0  0  0
   -2.1321   -2.2086    0.9112 C   0  0  0  0  0  0  0  0  0  0  0  0
   -1.2751   -2.8426    1.5112 O   0  0  0  0  0  0  0  0  0  0  0  0
   -1.9041   -1.0186    0.3602 N   0  0  0  0  0  0  0  0  0  0  0  0
   -2.6671   -0.5416   -0.0988 H   0  0  0  0  0  0  0  0  0  0  0  0
   -0.6131   -0.3236    0.3832 C   0  0  1  0  0  0  0  0  0  0  0  0
    0.1346   -0.9625   -0.0894 H   0  0  0  0  0  0  0  0  0  0  0  0
   -0.7253    0.9751   -0.4365 C   0  0  0  0  0  0  0  0  0  0  0  0
   -0.0127    0.9313   -1.2629 H   0  0  0  0  0  0  0  0  0  0  0  0
   -1.7296    1.0501   -0.8560 H   0  0  0  0  0  0  0  0  0  0  0  0
   -0.4395    2.2409    0.3796 C   0  0  0  0  0  0  0  0  0  0  0  0
    0.5428    2.6267    0.1087 H   0  0  0  0  0  0  0  0  0  0  0  0
   -1.1910    2.9925    0.1350 H   0  0  0  0  0  0  0  0  0  0  0  0
   -0.4628    1.9709    2.1702 S   0  0  0  0  0  0  0  0  0  0  0  0
   -2.2299    1.6541    2.4127 C   0  0  0  0  0  0  0  0  0  0  0  0
   -2.5297    0.7803    1.8335 H   0  0  0  0  0  0  0  0  0  0  0  0
   -2.4219    1.4674    3.4696 H   0  0  0  0  0  0  0  0  0  0  0  0
   -2.8066    2.5218    2.0912 H   0  0  0  0  0  0  0  0  0  0  0  0
   -0.1711   -0.0594    1.8296 C   0  0  0  0  0  0  0  0  0  0  0  0
    0.9865   -0.2908    2.1726 O   0  0  0  0  0  0  0  0  0  0  0  0
   -1.0921    0.4156    2.6780 N   0  0  0  0  0  0  0  0  0  0  0  0
   -2.0168    0.5953    2.3206 H   0  0  0  0  0  0  0  0  0  0  0  0
   -0.8319    0.7034    4.0877 C   0  0  0  0  0  0  0  0  0  0  0  0
   -0.0192    1.4288    4.1710 H   0  0  0  0  0  0  0  0  0  0  0  0
   -1.7255    1.1088    4.5641 H   0  0  0  0  0  0  0  0  0  0  0  0
   -0.5319   -0.2118    4.6011 H   0  0  0  0  0  0  0  0  0  0  0  0
  5  6  2  0  0  0  0
  5  7  1  0  0  0  0
  2  3  1  0  0  0  0
  2  4  1  0  0  0  0
  2  5  1  0  0  0  0
  1  2  1  0  0  0  0
 22 23  2  0  0  0  0
 22 24  1  0  0  0  0
 18 19  1  0  0  0  0
 18 20  1  0  0  0  0
 18 21  1  0  0  0  0
 17 18  1  0  0  0  0
 14 15  1  0  0  0  0
 14 16  1  0  0  0  0
 14 17  1  0  0  0  0
 11 12  1  0  0  0  0
 11 13  1  0  0  0  0
 11 14  1  0  0  0  0
  9 10  1  0  0  0  0
  9 11  1  0  0  0  0
  9 22  1  0  0  0  0
  7  8  1  0  0  0  0
  7  9  1  0  0  0  0
 26 27  1  0  0  0  0
 26 28  1  0  0  0  0
 26 29  1  0  0  0  0
 24 25  1  0  0  0  0
 24 26  1  0  0  0  0
M  END
$$$$
default_name
  -OEChem-02102213163D

 29 28  0     1  0  0  0  0  0999 V2000
   -3.5781   -3.7296    1.2702 H   0  0  0  0  0  0  0  0  0  0  0  0
   -3.5311   -2.7616    0.7732 C   0  0  0  0  0  0  0  0  0  0  0  0
   -4.2371   -2.0766    1.2382 H   0  0  0  0  0  0  0  0  0  0  0  0
   -3.7681   -2.8816   -0.2818 H   0  0  0  0  0  0  0  0  0  0  0  0
   -2.1321   -2.2086    0.9112 C   0  0  0  0  0  0  0  0  0  0  0  0
   -1.2751   -2.8426    1.5112 O   0  0  0  0  0  0  0  0  0  0  0  0
   -1.9041   -1.0186    0.3602 N   0  0  0  0  0  0  0  0  0  0  0  0
   -2.6671   -0.5416   -0.0988 H   0  0  0  0  0  0  0  0  0  0  0  0
   -0.6131   -0.3236    0.3832 C   0  0  1  0  0  0  0  0  0  0  0  0
    0.1346   -0.9625   -0.0894 H   0  0  0  0  0  0  0  0  0  0  0  0
   -0.7253    0.9751   -0.4365 C   0  0  0  0  0  0  0  0  0  0  0  0
   -0.0127    0.9313   -1.2629 H   0  0  0  0  0  0  0  0  0  0  0  0
   -1.7296    1.0501   -0.8560 H   0  0  0  0  0  0  0  0  0  0  0  0
   -0.4395    2.2409    0.3796 C   0  0  0  0  0  0  0  0  0  0  0  0
    0.4005    2.7720   -0.0669 H   0  0  0  0  0  0  0  0  0  0  0  0
   -1.3190    2.8850    0.3466 H   0  0  0  0  0  0  0  0  0  0  0  0
   -0.0375    1.9109    2.1143 S   0  0  0  0  0  0  0  0  0  0  0  0
   -1.6519    1.3368    2.7025 C   0  0  0  0  0  0  0  0  0  0  0  0
   -1.9517    0.4488    2.1453 H   0  0  0  0  0  0  0  0  0  0  0  0
   -1.5834    1.0894    3.7622 H   0  0  0  0  0  0  0  0  0  0  0  0
   -2.3944    2.1233    2.5650 H   0  0  0  0  0  0  0  0  0  0  0  0
   -0.1711   -0.0594    1.8296 C   0  0  0  0  0  0  0  0  0  0  0  0
    0.9865   -0.2908    2.1726 O   0  0  0  0  0  0  0  0  0  0  0  0
   -1.0921    0.4156    2.6780 N   0  0  0  0  0  0  0  0  0  0  0  0
   -2.0168    0.5953    2.3206 H   0  0  0  0  0  0  0  0  0  0  0  0
   -0.8319    0.7034    4.0877 C   0  0  0  0  0  0  0  0  0  0  0  0
   -0.0192    1.4288    4.1710 H   0  0  0  0  0  0  0  0  0  0  0  0
   -1.7255    1.1088    4.5641 H   0  0  0  0  0  0  0  0  0  0  0  0
   -0.5319   -0.2118    4.6011 H   0  0  0  0  0  0  0  0  0  0  0  0
  5  6  2  0  0  0  0
  5  7  1  0  0  0  0
  2  3  1  0  0  0  0
  2  4  1  0  0  0  0
  2  5  1  0  0  0  0
  1  2  1  0  0  0  0
 22 23  2  0  0  0  0
 22 24  1  0  0  0  0
 18 19  1  0  0  0  0
 18 20  1  0  0  0  0
 18 21  1  0  0  0  0
 17 18  1  0  0  0  0
 14 15  1  0  0  0  0
 14 16  1  0  0  0  0
 14 17  1  0  0  0  0
 11 12  1  0  0  0  0
 11 13  1  0  0  0  0
 11 14  1  0  0  0  0
  9 10  1  0  0  0  0
  9 11  1  0  0  0  0
  9 22  1  0  0  0  0
  7  8  1  0  0  0  0
  7  9  1  0  0  0  0
 26 27  1  0  0  0  0
 26 28  1  0  0  0  0
 26 29  1  0  0  0  0
 24 25  1  0  0  0  0
 24 26  1  0  0  0  0
M  END
$$$$
default_name
  -OEChem-02102213163D

 29 28  0     1  0  0  0  0  0999 V2000
   -3.5781   -3.7296    1.2702 H   0  0  0  0  0  0  0  0  0  0  0  0
   -3.5311   -2.7616    0.7732 C   0  0  0  0  0  0  0  0  0  0  0  0
   -4.2371   -2.0766    1.2382 H   0  0  0  0  0  0  0  0  0  0  0  0
   -3.7681   -2.8816   -0.2818 H   0  0  0  0  0  0  0  0  0  0  0  0
   -2.1321   -2.2086    0.9112 C   0  0  0  0  0  0  0  0  0  0  0  0
   -1.2751   -2.8426    1.5112 O   0  0  0  0  0  0  0  0  0  0  0  0
   -1.9041   -1.0186    0.3602 N   0  0  0  0  0  0  0  0  0  0  0  0
   -2.6671   -0.5416   -0.0988 H   0  0  0  0  0  0  0  0  0  0  0  0
   -0.6131   -0.3236    0.3832 C   0  0  1  0  0  0  0  0  0  0  0  0
    0.1346   -0.9625   -0.0894 H   0  0  0  0  0  0  0  0  0  0  0  0
   -0.7253    0.9751   -0.4365 C   0  0  0  0  0  0  0  0  0  0  0  0
   -0.0127    0.9313   -1.2629 H   0  0  0  0  0  0  0  0  0  0  0  0
   -1.7296    1.0501   -0.8560 H   0  0  0  0  0  0  0  0  0  0  0  0
   -0.4395    2.2409    0.3796 C   0  0  0  0  0  0  0  0  0  0  0  0
    0.2056    2.9013   -0.1991 H   0  0  0  0  0  0  0  0  0  0  0  0
   -1.3826    2.7533    0.5731 H   0  0  0  0  0  0  0  0  0  0  0  0
    0.3696    1.9142    1.9665 S   0  0  0  0  0  0  0  0  0  0  0  0
   -0.9879    1.0959    2.8436 C   0  0  0  0  0  0  0  0  0  0  0  0
   -1.2811    0.1932    2.3069 H   0  0  0  0  0  0  0  0  0  0  0  0
   -0.6588    0.8258    3.8474 H   0  0  0  0  0  0  0  0  0  0  0  0
   -1.8401    1.7722    2.9154 H   0  0  0  0  0  0  0  0  0  0  0  0
   -0.1711   -0.0594    1.8296 C   0  0  0  0  0  0  0  0  0  0  0  0
    0.9865   -0.2908    2.1726 O   0  0  0  0  0  0  0  0  0  0  0  0
   -1.0921    0.4156    2.6780 N   0  0  0  0  0  0  0  0  0  0  0  0
   -2.0168    0.5953    2.3206 H   0  0  0  0  0  0  0  0  0  0  0  0
   -0.8319    0.7034    4.0877 C   0  0  0  0  0  0  0  0  0  0  0  0
   -0.0192    1.4288    4.1710 H   0  0  0  0  0  0  0  0  0  0  0  0
   -1.7255    1.1088    4.5641 H   0  0  0  0  0  0  0  0  0  0  0  0
   -0.5319   -0.2118    4.6011 H   0  0  0  0  0  0  0  0  0  0  0  0
  5  6  2  0  0  0  0
  5  7  1  0  0  0  0
  2  3  1  0  0  0  0
  2  4  1  0  0  0  0
  2  5  1  0  0  0  0
  1  2  1  0  0  0  0
 22 23  2  0  0  0  0
 22 24  1  0  0  0  0
 18 19  1  0  0  0  0
 18 20  1  0  0  0  0
 18 21  1  0  0  0  0
 17 18  1  0  0  0  0
 14 15  1  0  0  0  0
 14 16  1  0  0  0  0
 14 17  1  0  0  0  0
 11 12  1  0  0  0  0
 11 13  1  0  0  0  0
 11 14  1  0  0  0  0
  9 10  1  0  0  0  0
  9 11  1  0  0  0  0
  9 22  1  0  0  0  0
  7  8  1  0  0  0  0
  7  9  1  0  0  0  0
 26 27  1  0  0  0  0
 26 28  1  0  0  0  0
 26 29  1  0  0  0  0
 24 25  1  0  0  0  0
 24 26  1  0  0  0  0
M  END
$$$$
default_name
  -OEChem-02102213163D

 29 28  0     1  0  0  0  0  0999 V2000
   -3.5781   -3.7296    1.2702 H   0  0  0  0  0  0  0  0  0  0  0  0
   -3.5311   -2.7616    0.7732 C   0  0  0  0  0  0  0  0  0  0  0  0
   -4.2371   -2.0766    1.2382 H   0  0  0  0  0  0  0  0  0  0  0  0
   -3.7681   -2.8816   -0.2818 H   0  0  0  0  0  0  0  0  0  0  0  0
   -2.1321   -2.2086    0.9112 C   0  0  0  0  0  0  0  0  0  0  0  0
   -1.2751   -2.8426    1.5112 O   0  0  0  0  0  0  0  0  0  0  0  0
   -1.9041   -1.0186    0.3602 N   0  0  0  0  0  0  0  0  0  0  0  0
   -2.6671   -0.5416   -0.0988 H   0  0  0  0  0  0  0  0  0  0  0  0
   -0.6131   -0.3236    0.3832 C   0  0  1  0  0  0  0  0  0  0  0  0
    0.1346   -0.9625   -0.0894 H   0  0  0  0  0  0  0  0  0  0  0  0
   -0.7253    0.9751   -0.4365 C   0  0  0  0  0  0  0  0  0  0  0  0
   -0.0127    0.9313   -1.2629 H   0  0  0  0  0  0  0  0  0  0  0  0
   -1.7296    1.0501   -0.8560 H   0  0  0  0  0  0  0  0  0  0  0  0
   -0.4395    2.2409    0.3796 C   0  0  0  0  0  0  0  0  0  0  0  0
   -0.0288    3.0056   -0.2789 H   0  0  0  0  0  0  0  0  0  0  0  0
   -1.3775    2.6064    0.7992 H   0  0  0  0  0  0  0  0  0  0  0  0
    0.7308    1.9807    1.7369 S   0  0  0  0  0  0  0  0  0  0  0  0
   -0.2831    0.9479    2.8264 C   0  0  0  0  0  0  0  0  0  0  0  0
   -0.5636    0.0309    2.3074 H   0  0  0  0  0  0  0  0  0  0  0  0
    0.2889    0.6944    3.7194 H   0  0  0  0  0  0  0  0  0  0  0  0
   -1.1814    1.4926    3.1185 H   0  0  0  0  0  0  0  0  0  0  0  0
   -0.1711   -0.0594    1.8296 C   0  0  0  0  0  0  0  0  0  0  0  0
    0.9865   -0.2908    2.1726 O   0  0  0  0  0  0  0  0  0  0  0  0
   -1.0921    0.4156    2.6780 N   0  0  0  0  0  0  0  0  0  0  0  0
   -2.0168    0.5953    2.3206 H   0  0  0  0  0  0  0  0  0  0  0  0
   -0.8319    0.7034    4.0877 C   0  0  0  0  0  0  0  0  0  0  0  0
   -0.0192    1.4288    4.1710 H   0  0  0  0  0  0  0  0  0  0  0  0
   -1.7255    1.1088    4.5641 H   0  0  0  0  0  0  0  0  0  0  0  0
   -0.5319   -0.2118    4.6011 H   0  0  0  0  0  0  0  0  0  0  0  0
  5  6  2  0  0  0  0
  5  7  1  0  0  0  0
  2  3  1  0  0  0  0
  2  4  1  0  0  0  0
  2  5  1  0  0  0  0
  1  2  1  0  0  0  0
 22 23  2  0  0  0  0
 22 24  1  0  0  0  0
 18 19  1  0  0  0  0
 18 20  1  0  0  0  0
 18 21  1  0  0  0  0
 17 18  1  0  0  0  0
 14 15  1  0  0  0  0
 14 16  1  0  0  0  0
 14 17  1  0  0  0  0
 11 12  1  0  0  0  0
 11 13  1  0  0  0  0
 11 14  1  0  0  0  0
  9 10  1  0  0  0  0
  9 11  1  0  0  0  0
  9 22  1  0  0  0  0
  7  8  1  0  0  0  0
  7  9  1  0  0  0  0
 26 27  1  0  0  0  0
 26 28  1  0  0  0  0
 26 29  1  0  0  0  0
 24 25  1  0  0  0  0
 24 26  1  0  0  0  0
M  END
$$$$
default_name
  -OEChem-02102213163D

 29 28  0     1  0  0  0  0  0999 V2000
   -3.5781   -3.7296    1.2702 H   0  0  0  0  0  0  0  0  0  0  0  0
   -3.5311   -2.7616    0.7732 C   0  0  0  0  0  0  0  0  0  0  0  0
   -4.2371   -2.0766    1.2382 H   0  0  0  0  0  0  0  0  0  0  0  0
   -3.7681   -2.8816   -0.2818 H   0  0  0  0  0  0  0  0  0  0  0  0
   -2.1321   -2.2086    0.9112 C   0  0  0  0  0  0  0  0  0  0  0  0
   -1.2751   -2.8426    1.5112 O   0  0  0  0  0  0  0  0  0  0  0  0
   -1.9041   -1.0186    0.3602 N   0  0  0  0  0  0  0  0  0  0  0  0
   -2.6671   -0.5416   -0.0988 H   0  0  0  0  0  0  0  0  0  0  0  0
   -0.6131   -0.3236    0.3832 C   0  0  1  0  0  0  0  0  0  0  0  0
    0.1346   -0.9625   -0.0894 H   0  0  0  0  0  0  0  0  0  0  0  0
   -0.7253    0.9751   -0.4365 C   0  0  0  0  0  0  0  0  0  0  0  0
   -0.0127    0.9313   -1.2629 H   0  0  0  0  0  0  0  0  0  0  0  0
   -1.7296    1.0501   -0.8560 H   0  0  0  0  0  0  0  0  0  0  0  0
   -0.4395    2.2409    0.3796 C   0  0  0  0  0  0  0  0  0  0  0  0
   -0.2866    3.0780   -0.3009 H   0  0  0  0  0  0  0  0  0  0  0  0
   -1.3040    2.4543    1.0093 H   0  0  0  0  0  0  0  0  0  0  0  0
    1.0215    2.1058    1.4412 S   0  0  0  0  0  0  0  0  0  0  0  0
    0.4143    0.9029    2.6520 C   0  0  0  0  0  0  0  0  0  0  0  0
    0.1519   -0.0271    2.1467 H   0  0  0  0  0  0  0  0  0  0  0  0
    1.1949    0.7042    3.3869 H   0  0  0  0  0  0  0  0  0  0  0  0
   -0.4632    1.3035    3.1603 H   0  0  0  0  0  0  0  0  0  0  0  0
   -0.1711   -0.0594    1.8296 C   0  0  0  0  0  0  0  0  0  0  0  0
    0.9865   -0.2908    2.1726 O   0  0  0  0  0  0  0  0  0  0  0  0
   -1.0921    0.4156    2.6780 N   0  0  0  0  0  0  0  0  0  0  0  0
   -2.0168    0.5953    2.3206 H   0  0  0  0  0  0  0  0  0  0  0  0
   -0.8319    0.7034    4.0877 C   0  0  0  0  0  0  0  0  0  0  0  0
   -0.0192    1.4288    4.1710 H   0  0  0  0  0  0  0  0  0  0  0  0
   -1.7255    1.1088    4.5641 H   0  0  0  0  0  0  0  0  0  0  0  0
   -0.5319   -0.2118    4.6011 H   0  0  0  0  0  0  0  0  0  0  0  0
  5  6  2  0  0  0  0
  5  7  1  0  0  0  0
  2  3  1  0  0  0  0
  2  4  1  0  0  0  0
  2  5  1  0  0  0  0
  1  2  1  0  0  0  0
 22 23  2  0  0  0  0
 22 24  1  0  0  0  0
 18 19  1  0  0  0  0
 18 20  1  0  0  0  0
 18 21  1  0  0  0  0
 17 18  1  0  0  0  0
 14 15  1  0  0  0  0
 14 16  1  0  0  0  0
 14 17  1  0  0  0  0
 11 12  1  0  0  0  0
 11 13  1  0  0  0  0
 11 14  1  0  0  0  0
  9 10  1  0  0  0  0
  9 11  1  0  0  0  0
  9 22  1  0  0  0  0
  7  8  1  0  0  0  0
  7  9  1  0  0  0  0
 26 27  1  0  0  0  0
 26 28  1  0  0  0  0
 26 29  1  0  0  0  0
 24 25  1  0  0  0  0
 24 26  1  0  0  0  0
M  END
$$$$
default_name
  -OEChem-02102213163D

 29 28  0     1  0  0  0  0  0999 V2000
   -3.5781   -3.7296    1.2702 H   0  0  0  0  0  0  0  0  0  0  0  0
   -3.5311   -2.7616    0.7732 C   0  0  0  0  0  0  0  0  0  0  0  0
   -4.2371   -2.0766    1.2382 H   0  0  0  0  0  0  0  0  0  0  0  0
   -3.7681   -2.8816   -0.2818 H   0  0  0  0  0  0  0  0  0  0  0  0
   -2.1321   -2.2086    0.9112 C   0  0  0  0  0  0  0  0  0  0  0  0
   -1.2751   -2.8426    1.5112 O   0  0  0  0  0  0  0  0  0  0  0  0
   -1.9041   -1.0186    0.3602 N   0  0  0  0  0  0  0  0  0  0  0  0
   -2.6671   -0.5416   -0.0988 H   0  0  0  0  0  0  0  0  0  0  0  0
   -0.6131   -0.3236    0.3832 C   0  0  1  0  0  0  0  0  0  0  0  0
    0.1346   -0.9625   -0.0894 H   0  0  0  0  0  0  0  0  0  0  0  0
   -0.7253    0.9751   -0.4365 C   0  0  0  0  0  0  0  0  0  0  0  0
   -0.0127    0.9313   -1.2629 H   0  0  0  0  0  0  0  0  0  0  0  0
   -1.7296    1.0501   -0.8560 H   0  0  0  0  0  0  0  0  0  0  0  0
   -0.4395    2.2409    0.3796 C   0  0  0  0  0  0  0  0  0  0  0  0
   -0.5503    3.1134   -0.2635 H   0  0  0  0  0  0  0  0  0  0  0  0
   -1.1671    2.3074    1.1893 H   0  0  0  0  0  0  0  0  0  0  0  0
    1.2218    2.2809    1.0994 S   0  0  0  0  0  0  0  0  0  0  0  0
    1.0569    0.9639    2.3323 C   0  0  0  0  0  0  0  0  0  0  0  0
    0.8167    0.0233    1.8357 H   0  0  0  0  0  0  0  0  0  0  0  0
    1.9977    0.8546    2.8725 H   0  0  0  0  0  0  0  0  0  0  0  0
    0.2655    1.2177    3.0381 H   0  0  0  0  0  0  0  0  0  0  0  0
   -0.1711   -0.0594    1.8296 C   0  0  0  0  0  0  0  0  0  0  0  0
    0.9865   -0.2908    2.1726 O   0  0  0  0  0  0  0  0  0  0  0  0
   -1.0921    0.4156    2.6780 N   0  0  0  0  0  0  0  0  0  0  0  0
   -2.0168    0.5953    2.3206 H   0  0  0  0  0  0  0  0  0  0  0  0
   -0.8319    0.7034    4.0877 C   0  0  0  0  0  0  0  0  0  0  0  0
   -0.0192    1.4288    4.1710 H   0  0  0  0  0  0  0  0  0  0  0  0
   -1.7255    1.1088    4.5641 H   0  0  0  0  0  0  0  0  0  0  0  0
   -0.5319   -0.2118    4.6011 H   0  0  0  0  0  0  0  0  0  0  0  0
  5  6  2  0  0  0  0
  5  7  1  0  0  0  0
  2  3  1  0  0  0  0
  2  4  1  0  0  0  0
  2  5  1  0  0  0  0
  1  2  1  0  0  0  0
 22 23  2  0  0  0  0
 22 24  1  0  0  0  0
 18 19  1  0  0  0  0
 18 20  1  0  0  0  0
 18 21  1  0  0  0  0
 17 18  1  0  0  0  0
 14 15  1  0  0  0  0
 14 16  1  0  0  0  0
 14 17  1  0  0  0  0
 11 12  1  0  0  0  0
 11 13  1  0  0  0  0
 11 14  1  0  0  0  0
  9 10  1  0  0  0  0
  9 11  1  0  0  0  0
  9 22  1  0  0  0  0
  7  8  1  0  0  0  0
  7  9  1  0  0  0  0
 26 27  1  0  0  0  0
 26 28  1  0  0  0  0
 26 29  1  0  0  0  0
 24 25  1  0  0  0  0
 24 26  1  0  0  0  0
M  END
$$$$
default_name
  -OEChem-02102213163D

 29 28  0     1  0  0  0  0  0999 V2000
   -3.5781   -3.7296    1.2702 H   0  0  0  0  0  0  0  0  0  0  0  0
   -3.5311   -2.7616    0.7732 C   0  0  0  0  0  0  0  0  0  0  0  0
   -4.2371   -2.0766    1.2382 H   0  0  0  0  0  0  0  0  0  0  0  0
   -3.7681   -2.8816   -0.2818 H   0  0  0  0  0  0  0  0  0  0  0  0
   -2.1321   -2.2086    0.9112 C   0  0  0  0  0  0  0  0  0  0  0  0
   -1.2751   -2.8426    1.5112 O   0  0  0  0  0  0  0  0  0  0  0  0
   -1.9041   -1.0186    0.3602 N   0  0  0  0  0  0  0  0  0  0  0  0
   -2.6671   -0.5416   -0.0988 H   0  0  0  0  0  0  0  0  0  0  0  0
   -0.6131   -0.3236    0.3832 C   0  0  1  0  0  0  0  0  0  0  0  0
    0.1346   -0.9625   -0.0894 H   0  0  0  0  0  0  0  0  0  0  0  0
   -0.7253    0.9751   -0.4365 C   0  0  0  0  0  0  0  0  0  0  0  0
   -0.0127    0.9313   -1.2629 H   0  0  0  0  0  0  0  0  0  0  0  0
   -1.7296    1.0501   -0.8560 H   0  0  0  0  0  0  0  0  0  0  0  0
   -0.4395    2.2409    0.3796 C   0  0  0  0  0  0  0  0  0  0  0  0
   -0.8020    3.1095   -0.1693 H   0  0  0  0  0  0  0  0  0  0  0  0
   -0.9762    2.1757    1.3268 H   0  0  0  0  0  0  0  0  0  0  0  0
    1.3181    2.4941    0.7349 S   0  0  0  0  0  0  0  0  0  0  0  0
    1.6009    1.1268    1.8892 C   0  0  0  0  0  0  0  0  0  0  0  0
    1.3854    0.1786    1.3957 H   0  0  0  0  0  0  0  0  0  0  0  0
    2.6425    1.1352    2.2113 H   0  0  0  0  0  0  0  0  0  0  0  0
    0.9551    1.2412    2.7602 H   0  0  0  0  0  0  0  0  0  0  0  0
   -0.1711   -0.0594    1.8296 C   0  0  0  0  0  0  0  0  0  0  0  0
    0.9865   -0.2908    2.1726 O   0  0  0  0  0  0  0  0  0  0  0  0
   -1.0921    0.4156    2.6780 N   0  0  0  0  0  0  0  0  0  0  0  0
   -2.0168    0.5953    2.3206 H   0  0  0  0  0  0  0  0  0  0  0  0
   -0.8319    0.7034    4.0877 C   0  0  0  0  0  0  0  0  0  0  0  0
   -0.0192    1.4288    4.1710 H   0  0  0  0  0  0  0  0  0  0  0  0
   -1.7255    1.1088    4.5641 H   0  0  0  0  0  0  0  0  0  0  0  0
   -0.5319   -0.2118    4.6011 H   0  0  0  0  0  0  0  0  0  0  0  0
  5  6  2  0  0  0  0
  5  7  1  0  0  0  0
  2  3  1  0  0  0  0
  2  4  1  0  0  0  0
  2  5  1  0  0  0  0
  1  2  1  0  0  0  0
 22 23  2  0  0  0  0
 22 24  1  0  0  0  0
 18 19  1  0  0  0  0
 18 20  1  0  0  0  0
 18 21  1  0  0  0  0
 17 18  1  0  0  0  0
 14 15  1  0  0  0  0
 14 16  1  0  0  0  0
 14 17  1  0  0  0  0
 11 12  1  0  0  0  0
 11 13  1  0  0  0  0
 11 14  1  0  0  0  0
  9 10  1  0  0  0  0
  9 11  1  0  0  0  0
  9 22  1  0  0  0  0
  7  8  1  0  0  0  0
  7  9  1  0  0  0  0
 26 27  1  0  0  0  0
 26 28  1  0  0  0  0
 26 29  1  0  0  0  0
 24 25  1  0  0  0  0
 24 26  1  0  0  0  0
M  END
$$$$
default_name
  -OEChem-02102213163D

 29 28  0     1  0  0  0  0  0999 V2000
   -3.5781   -3.7296    1.2702 H   0  0  0  0  0  0  0  0  0  0  0  0
   -3.5311   -2.7616    0.7732 C   0  0  0  0  0  0  0  0  0  0  0  0
   -4.2371   -2.0766    1.2382 H   0  0  0  0  0  0  0  0  0  0  0  0
   -3.7681   -2.8816   -0.2818 H   0  0  0  0  0  0  0  0  0  0  0  0
   -2.1321   -2.2086    0.9112 C   0  0  0  0  0  0  0  0  0  0  0  0
   -1.2751   -2.8426    1.5112 O   0  0  0  0  0  0  0  0  0  0  0  0
   -1.9041   -1.0186    0.3602 N   0  0  0  0  0  0  0  0  0  0  0  0
   -2.6671   -0.5416   -0.0988 H   0  0  0  0  0  0  0  0  0  0  0  0
   -0.6131   -0.3236    0.3832 C   0  0  1  0  0  0  0  0  0  0  0  0
    0.1346   -0.9625   -0.0894 H   0  0  0  0  0  0  0  0  0  0  0  0
   -0.7253    0.9751   -0.4365 C   0  0  0  0  0  0  0  0  0  0  0  0
   -0.0127    0.9313   -1.2629 H   0  0  0  0  0  0  0  0  0  0  0  0
   -1.7296    1.0501   -0.8560 H   0  0  0  0  0  0  0  0  0  0  0  0
   -0.4395    2.2409    0.3796 C   0  0  0  0  0  0  0  0  0  0  0  0
   -1.0243    3.0665   -0.0248 H   0  0  0  0  0  0  0  0  0  0  0  0
   -0.7443    2.0681    1.4124 H   0  0  0  0  0  0  0  0  0  0  0  0
    1.3039    2.7309    0.3726 S   0  0  0  0  0  0  0  0  0  0  0  0
    2.0092    1.3805    1.3527 C   0  0  0  0  0  0  0  0  0  0  0  0
    1.8193    0.4281    0.8567 H   0  0  0  0  0  0  0  0  0  0  0  0
    3.0853    1.5271    1.4484 H   0  0  0  0  0  0  0  0  0  0  0  0
    1.5586    1.3723    2.3455 H   0  0  0  0  0  0  0  0  0  0  0  0
   -0.1711   -0.0594    1.8296 C   0  0  0  0  0  0  0  0  0  0  0  0
    0.9865   -0.2908    2.1726 O   0  0  0  0  0  0  0  0  0  0  0  0
   -1.0921    0.4156    2.6780 N   0  0  0  0  0  0  0  0  0  0  0  0
   -2.0168    0.5953    2.3206 H   0  0  0  0  0  0  0  0  0  0  0  0
   -0.8319    0.7034    4.0877 C   0  0  0  0  0  0  0  0  0  0  0  0
   -0.0192    1.4288    4.1710 H   0  0  0  0  0  0  0  0  0  0  0  0
   -1.7255    1.1088    4.5641 H   0  0  0  0  0  0  0  0  0  0  0  0
   -0.5319   -0.2118    4.6011 H   0  0  0  0  0  0  0  0  0  0  0  0
  5  6  2  0  0  0  0
  5  7  1  0  0  0  0
  2  3  1  0  0  0  0
  2  4  1  0  0  0  0
  2  5  1  0  0  0  0
  1  2  1  0  0  0  0
 22 23  2  0  0  0  0
 22 24  1  0  0  0  0
 18 19  1  0  0  0  0
 18 20  1  0  0  0  0
 18 21  1  0  0  0  0
 17 18  1  0  0  0  0
 14 15  1  0  0  0  0
 14 16  1  0  0  0  0
 14 17  1  0  0  0  0
 11 12  1  0  0  0  0
 11 13  1  0  0  0  0
 11 14  1  0  0  0  0
  9 10  1  0  0  0  0
  9 11  1  0  0  0  0
  9 22  1  0  0  0  0
  7  8  1  0  0  0  0
  7  9  1  0  0  0  0
 26 27  1  0  0  0  0
 26 28  1  0  0  0  0
 26 29  1  0  0  0  0
 24 25  1  0  0  0  0
 24 26  1  0  0  0  0
M  END
$$$$
default_name
  -OEChem-02102213163D

 29 28  0     1  0  0  0  0  0999 V2000
   -3.5781   -3.7296    1.2702 H   0  0  0  0  0  0  0  0  0  0  0  0
   -3.5311   -2.7616    0.7732 C   0  0  0  0  0  0  0  0  0  0  0  0
   -4.2371   -2.0766    1.2382 H   0  0  0  0  0  0  0  0  0  0  0  0
   -3.7681   -2.8816   -0.2818 H   0  0  0  0  0  0  0  0  0  0  0  0
   -2.1321   -2.2086    0.9112 C   0  0  0  0  0  0  0  0  0  0  0  0
   -1.2751   -2.8426    1.5112 O   0  0  0  0  0  0  0  0  0  0  0  0
   -1.9041   -1.0186    0.3602 N   0  0  0  0  0  0  0  0  0  0  0  0
   -2.6671   -0.5416   -0.0988 H   0  0  0  0  0  0  0  0  0  0  0  0
   -0.6131   -0.3236    0.3832 C   0  0  1  0  0  0  0  0  0  0  0  0
    0.1346   -0.9625   -0.0894 H   0  0  0  0  0  0  0  0  0  0  0  0
   -0.7253    0.9751   -0.4365 C   0  0  0  0  0  0  0  0  0  0  0  0
   -0.0127    0.9313   -1.2629 H   0  0  0  0  0  0  0  0  0  0  0  0
   -1.7296    1.0501   -0.8560 H   0  0  0  0  0  0  0  0  0  0  0  0
   -0.4395    2.2409    0.3796 C   0  0  0  0  0  0  0  0  0  0  0  0
   -1.2023    2.9874    0.1603 H   0  0  0  0  0  0  0  0  0  0  0  0
   -0.4872    1.9920    1.4404 H   0  0  0  0  0  0  0  0  0  0  0  0
    1.1801    2.9752    0.0370 S   0  0  0  0  0  0  0  0  0  0  0  0
    2.2539    1.7076    0.7595 C   0  0  0  0  0  0  0  0  0  0  0  0
    2.0888    0.7550    0.2553 H   0  0  0  0  0  0  0  0  0  0  0  0
    3.2960    2.0034    0.6358 H   0  0  0  0  0  0  0  0  0  0  0  0
    2.0348    1.6021    1.8224 H   0  0  0  0  0  0  0  0  0  0  0  0
   -0.1711   -0.0594    1.8296 C   0  0  0  0  0  0  0  0  0  0  0  0
    0.9865   -0.2908    2.1726 O   0  0  0  0  0  0  0  0  0  0  0  0
   -1.0921    0.4156    2.6780 N   0  0  0  0  0  0  0  0  0  0  0  0
   -2.0168    0.5953    2.3206 H   0  0  0  0  0  0  0  0  0  0  0  0
   -0.8319    0.7034    4.0877 C   0  0  0  0  0  0  0  0  0  0  0  0
   -0.0192    1.4288    4.1710 H   0  0  0  0  0  0  0  0  0  0  0  0
   -1.7255    1.1088    4.5641 H   0  0  0  0  0  0  0  0  0  0  0  0
   -0.5319   -0.2118    4.6011 H   0  0  0  0  0  0  0  0  0  0  0  0
  5  6  2  0  0  0  0
  5  7  1  0  0  0  0
  2  3  1  0  0  0  0
  2  4  1  0  0  0  0
  2  5  1  0  0  0  0
  1  2  1  0  0  0  0
 22 23  2  0  0  0  0
 22 24  1  0  0  0  0
 18 19  1  0  0  0  0
 18 20  1  0  0  0  0
 18 21  1  0  0  0  0
 17 18  1  0  0  0  0
 14 15  1  0  0  0  0
 14 16  1  0  0  0  0
 14 17  1  0  0  0  0
 11 12  1  0  0  0  0
 11 13  1  0  0  0  0
 11 14  1  0  0  0  0
  9 10  1  0  0  0  0
  9 11  1  0  0  0  0
  9 22  1  0  0  0  0
  7  8  1  0  0  0  0
  7  9  1  0  0  0  0
 26 27  1  0  0  0  0
 26 28  1  0  0  0  0
 26 29  1  0  0  0  0
 24 25  1  0  0  0  0
 24 26  1  0  0  0  0
M  END
$$$$
default_name
  -OEChem-02102213163D

 29 28  0     1  0  0  0  0  0999 V2000
   -3.5781   -3.7296    1.2702 H   0  0  0  0  0  0  0  0  0  0  0  0
   -3.5311   -2.7616    0.7732 C   0  0  0  0  0  0  0  0  0  0  0  0
   -4.2371   -2.0766    1.2382 H   0  0  0  0  0  0  0  0  0  0  0  0
   -3.7681   -2.8816   -0.2818 H   0  0  0  0  0  0  0  0  0  0  0  0
   -2.1321   -2.2086    0.9112 C   0  0  0  0  0  0  0  0  0  0  0  0
   -1.2751   -2.8426    1.5112 O   0  0  0  0  0  0  0  0  0  0  0  0
   -1.9041   -1.0186    0.3602 N   0  0  0  0  0  0  0  0  0  0  0  0
   -2.6671   -0.5416   -0.0988 H   0  0  0  0  0  0  0  0  0  0  0  0
   -0.6131   -0.3236    0.3832 C   0  0  1  0  0  0  0  0  0  0  0  0
    0.1346   -0.9625   -0.0894 H   0  0  0  0  0  0  0  0  0  0  0  0
   -0.7253    0.9751   -0.4365 C   0  0  0  0  0  0  0  0  0  0  0  0
   -0.0127    0.9313   -1.2629 H   0  0  0  0  0  0  0  0  0  0  0  0
   -1.7296    1.0501   -0.8560 H   0  0  0  0  0  0  0  0  0  0  0  0
   -0.4395    2.2409    0.3796 C   0  0  0  0  0  0  0  0  0  0  0  0
   -1.3238    2.8775    0.3733 H   0  0  0  0  0  0  0  0  0  0  0  0
   -0.2223    1.9526    1.4088 H   0  0  0  0  0  0  0  0  0  0  0  0
    0.9551    3.2103   -0.2489 S   0  0  0  0  0  0  0  0  0  0  0  0
    2.3185    2.0860    0.1500 C   0  0  0  0  0  0  0  0  0  0  0  0
    2.1756    1.1369   -0.3674 H   0  0  0  0  0  0  0  0  0  0  0  0
    3.2603    2.5318   -0.1712 H   0  0  0  0  0  0  0  0  0  0  0  0
    2.3513    1.9149    1.2263 H   0  0  0  0  0  0  0  0  0  0  0  0
   -0.1711   -0.0594    1.8296 C   0  0  0  0  0  0  0  0  0  0  0  0
    0.9865   -0.2908    2.1726 O   0  0  0  0  0  0  0  0  0  0  0  0
   -1.0921    0.4156    2.6780 N   0  0  0  0  0  0  0  0  0  0  0  0
   -2.0168    0.5953    2.3206 H   0  0  0  0  0  0  0  0  0  0  0  0
   -0.8319    0.7034    4.0877 C   0  0  0  0  0  0  0  0  0  0  0  0
   -0.0192    1.4288    4.1710 H   0  0  0  0  0  0  0  0  0  0  0  0
   -1.7255    1.1088    4.5641 H   0  0  0  0  0  0  0  0  0  0  0  0
   -0.5319   -0.2118    4.6011 H   0  0  0  0  0  0  0  0  0  0  0  0
  5  6  2  0  0  0  0
  5  7  1  0  0  0  0
  2  3  1  0  0  0  0
  2  4  1  0  0  0  0
  2  5  1  0  0  0  0
  1  2  1  0  0  0  0
 22 23  2  0  0  0  0
 22 24  1  0  0  0  0
 18 19  1  0  0  0  0
 18 20  1  0  0  0  0
 18 21  1  0  0  0  0
 17 18  1  0  0  0  0
 14 15  1  0  0  0  0
 14 16  1  0  0  0  0
 14 17  1  0  0  0  0
 11 12  1  0  0  0  0
 11 13  1  0  0  0  0
 11 14  1  0  0  0  0
  9 10  1  0  0  0  0
  9 11  1  0  0  0  0
  9 22  1  0  0  0  0
  7  8  1  0  0  0  0
  7  9  1  0  0  0  0
 26 27  1  0  0  0  0
 26 28  1  0  0  0  0
 26 29  1  0  0  0  0
 24 25  1  0  0  0  0
 24 26  1  0  0  0  0
M  END
$$$$
default_name
  -OEChem-02102213163D

 29 28  0     1  0  0  0  0  0999 V2000
   -3.5781   -3.7296    1.2702 H   0  0  0  0  0  0  0  0  0  0  0  0
   -3.5311   -2.7616    0.7732 C   0  0  0  0  0  0  0  0  0  0  0  0
   -4.2371   -2.0766    1.2382 H   0  0  0  0  0  0  0  0  0  0  0  0
   -3.7681   -2.8816   -0.2818 H   0  0  0  0  0  0  0  0  0  0  0  0
   -2.1321   -2.2086    0.9112 C   0  0  0  0  0  0  0  0  0  0  0  0
   -1.2751   -2.8426    1.5112 O   0  0  0  0  0  0  0  0  0  0  0  0
   -1.9041   -1.0186    0.3602 N   0  0  0  0  0  0  0  0  0  0  0  0
   -2.6671   -0.5416   -0.0988 H   0  0  0  0  0  0  0  0  0  0  0  0
   -0.6131   -0.3236    0.3832 C   0  0  1  0  0  0  0  0  0  0  0  0
    0.1346   -0.9625   -0.0894 H   0  0  0  0  0  0  0  0  0  0  0  0
   -0.7253    0.9751   -0.4365 C   0  0  0  0  0  0  0  0  0  0  0  0
   -0.0127    0.9313   -1.2629 H   0  0  0  0  0  0  0  0  0  0  0  0
   -1.7296    1.0501   -0.8560 H   0  0  0  0  0  0  0  0  0  0  0  0
   -0.4395    2.2409    0.3796 C   0  0  0  0  0  0  0  0  0  0  0  0
   -1.3804    2.7443    0.5997 H   0  0  0  0  0  0  0  0  0  0  0  0
    0.0322    1.9526    1.3197 H   0  0  0  0  0  0  0  0  0  0  0  0
    0.6443    3.4202   -0.4656 S   0  0  0  0  0  0  0  0  0  0  0  0
    2.1984    2.4898   -0.4343 C   0  0  0  0  0  0  0  0  0  0  0  0
    2.0738    1.5477   -0.9690 H   0  0  0  0  0  0  0  0  0  0  0  0
    2.9805    3.0761   -0.9176 H   0  0  0  0  0  0  0  0  0  0  0  0
    2.4865    2.2894    0.5980 H   0  0  0  0  0  0  0  0  0  0  0  0
   -0.1711   -0.0594    1.8296 C   0  0  0  0  0  0  0  0  0  0  0  0
    0.9865   -0.2908    2.1726 O   0  0  0  0  0  0  0  0  0  0  0  0
   -1.0921    0.4156    2.6780 N   0  0  0  0  0  0  0  0  0  0  0  0
   -2.0168    0.5953    2.3206 H   0  0  0  0  0  0  0  0  0  0  0  0
   -0.8319    0.7034    4.0877 C   0  0  0  0  0  0  0  0  0  0  0  0
   -0.0192    1.4288    4.1710 H   0  0  0  0  0  0  0  0  0  0  0  0
   -1.7255    1.1088    4.5641 H   0  0  0  0  0  0  0  0  0  0  0  0
   -0.5319   -0.2118    4.6011 H   0  0  0  0  0  0  0  0  0  0  0  0
  5  6  2  0  0  0  0
  5  7  1  0  0  0  0
  2  3  1  0  0  0  0
  2  4  1  0  0  0  0
  2  5  1  0  0  0  0
  1  2  1  0  0  0  0
 22 23  2  0  0  0  0
 22 24  1  0  0  0  0
 18 19  1  0  0  0  0
 18 20  1  0  0  0  0
 18 21  1  0  0  0  0
 17 18  1  0  0  0  0
 14 15  1  0  0  0  0
 14 16  1  0  0  0  0
 14 17  1  0  0  0  0
 11 12  1  0  0  0  0
 11 13  1  0  0  0  0
 11 14  1  0  0  0  0
  9 10  1  0  0  0  0
  9 11  1  0  0  0  0
  9 22  1  0  0  0  0
  7  8  1  0  0  0  0
  7  9  1  0  0  0  0
 26 27  1  0  0  0  0
 26 28  1  0  0  0  0
 26 29  1  0  0  0  0
 24 25  1  0  0  0  0
 24 26  1  0  0  0  0
M  END
$$$$
default_name
  -OEChem-02102213163D

 29 28  0     1  0  0  0  0  0999 V2000
   -3.5781   -3.7296    1.2702 H   0  0  0  0  0  0  0  0  0  0  0  0
   -3.5311   -2.7616    0.7732 C   0  0  0  0  0  0  0  0  0  0  0  0
   -4.2371   -2.0766    1.2382 H   0  0  0  0  0  0  0  0  0  0  0  0
   -3.7681   -2.8816   -0.2818 H   0  0  0  0  0  0  0  0  0  0  0  0
   -2.1321   -2.2086    0.9112 C   0  0  0  0  0  0  0  0  0  0  0  0
   -1.2751   -2.8426    1.5112 O   0  0  0  0  0  0  0  0  0  0  0  0
   -1.9041   -1.0186    0.3602 N   0  0  0  0  0  0  0  0  0  0  0  0
   -2.6671   -0.5416   -0.0988 H   0  0  0  0  0  0  0  0  0  0  0  0
   -0.6131   -0.3236    0.3832 C   0  0  1  0  0  0  0  0  0  0  0  0
    0.1346   -0.9625   -0.0894 H   0  0  0  0  0  0  0  0  0  0  0  0
   -0.7253    0.9751   -0.4365 C   0  0  0  0  0  0  0  0  0  0  0  0
   -0.0127    0.9313   -1.2629 H   0  0  0  0  0  0  0  0  0  0  0  0
   -1.7296    1.0501   -0.8560 H   0  0  0  0  0  0  0  0  0  0  0  0
   -0.4395    2.2409    0.3796 C   0  0  0  0  0  0  0  0  0  0  0  0
   -1.3684    2.5970    0.8241 H   0  0  0  0  0  0  0  0  0  0  0  0
    0.2590    1.9919    1.1793 H   0  0  0  0  0  0  0  0  0  0  0  0
    0.2689    3.5905   -0.5983 S   0  0  0  0  0  0  0  0  0  0  0  0
    1.9020    2.8915   -0.9536 C   0  0  0  0  0  0  0  0  0  0  0  0
    1.7902    1.9596   -1.5086 H   0  0  0  0  0  0  0  0  0  0  0  0
    2.4757    3.5994   -1.5524 H   0  0  0  0  0  0  0  0  0  0  0  0
    2.4313    2.7001   -0.0197 H   0  0  0  0  0  0  0  0  0  0  0  0
   -0.1711   -0.0594    1.8296 C   0  0  0  0  0  0  0  0  0  0  0  0
    0.9865   -0.2908    2.1726 O   0  0  0  0  0  0  0  0  0  0  0  0
   -1.0921    0.4156    2.6780 N   0  0  0  0  0  0  0  0  0  0  0  0
   -2.0168    0.5953    2.3206 H   0  0  0  0  0  0  0  0  0  0  0  0
   -0.8319    0.7034    4.0877 C   0  0  0  0  0  0  0  0  0  0  0  0
   -0.0192    1.4288    4.1710 H   0  0  0  0  0  0  0  0  0  0  0  0
   -1.7255    1.1088    4.5641 H   0  0  0  0  0  0  0  0  0  0  0  0
   -0.5319   -0.2118    4.6011 H   0  0  0  0  0  0  0  0  0  0  0  0
  5  6  2  0  0  0  0
  5  7  1  0  0  0  0
  2  3  1  0  0  0  0
  2  4  1  0  0  0  0
  2  5  1  0  0  0  0
  1  2  1  0  0  0  0
 22 23  2  0  0  0  0
 22 24  1  0  0  0  0
 18 19  1  0  0  0  0
 18 20  1  0  0  0  0
 18 21  1  0  0  0  0
 17 18  1  0  0  0  0
 14 15  1  0  0  0  0
 14 16  1  0  0  0  0
 14 17  1  0  0  0  0
 11 12  1  0  0  0  0
 11 13  1  0  0  0  0
 11 14  1  0  0  0  0
  9 10  1  0  0  0  0
  9 11  1  0  0  0  0
  9 22  1  0  0  0  0
  7  8  1  0  0  0  0
  7  9  1  0  0  0  0
 26 27  1  0  0  0  0
 26 28  1  0  0  0  0
 26 29  1  0  0  0  0
 24 25  1  0  0  0  0
 24 26  1  0  0  0  0
M  END
$$$$
default_name
  -OEChem-02102213163D

 29 28  0     1  0  0  0  0  0999 V2000
   -3.5781   -3.7296    1.2702 H   0  0  0  0  0  0  0  0  0  0  0  0
   -3.5311   -2.7616    0.7732 C   0  0  0  0  0  0  0  0  0  0  0  0
   -4.2371   -2.0766    1.2382 H   0  0  0  0  0  0  0  0  0  0  0  0
   -3.7681   -2.8816   -0.2818 H   0  0  0  0  0  0  0  0  0  0  0  0
   -2.1321   -2.2086    0.9112 C   0  0  0  0  0  0  0  0  0  0  0  0
   -1.2751   -2.8426    1.5112 O   0  0  0  0  0  0  0  0  0  0  0  0
   -1.9041   -1.0186    0.3602 N   0  0  0  0  0  0  0  0  0  0  0  0
   -2.6671   -0.5416   -0.0988 H   0  0  0  0  0  0  0  0  0  0  0  0
   -0.6131   -0.3236    0.3832 C   0  0  1  0  0  0  0  0  0  0  0  0
    0.1346   -0.9625   -0.0894 H   0  0  0  0  0  0  0  0  0  0  0  0
   -0.7253    0.9751   -0.4365 C   0  0  0  0  0  0  0  0  0  0  0  0
   -0.0127    0.9313   -1.2629 H   0  0  0  0  0  0  0  0  0  0  0  0
   -1.7296    1.0501   -0.8560 H   0  0  0  0  0  0  0  0  0  0  0  0
   -0.4395    2.2409    0.3796 C   0  0  0  0  0  0  0  0  0  0  0  0
   -1.2886    2.4455    1.0311 H   0  0  0  0  0  0  0  0  0  0  0  0
    0.4426    2.0679    0.9971 H   0  0  0  0  0  0  0  0  0  0  0  0
   -0.1456    3.7098   -0.6381 S   0  0  0  0  0  0  0  0  0  0  0  0
    1.4493    3.2637   -1.3724 C   0  0  0  0  0  0  0  0  0  0  0  0
    1.3442    2.3444   -1.9492 H   0  0  0  0  0  0  0  0  0  0  0  0
    1.7803    4.0659   -2.0325 H   0  0  0  0  0  0  0  0  0  0  0  0
    2.1893    3.1190   -0.5847 H   0  0  0  0  0  0  0  0  0  0  0  0
   -0.1711   -0.0594    1.8296 C   0  0  0  0  0  0  0  0  0  0  0  0
    0.9865   -0.2908    2.1726 O   0  0  0  0  0  0  0  0  0  0  0  0
   -1.0921    0.4156    2.6780 N   0  0  0  0  0  0  0  0  0  0  0  0
   -2.0168    0.5953    2.3206 H   0  0  0  0  0  0  0  0  0  0  0  0
   -0.8319    0.7034    4.0877 C   0  0  0  0  0  0  0  0  0  0  0  0
   -0.0192    1.4288    4.1710 H   0  0  0  0  0  0  0  0  0  0  0  0
   -1.7255    1.1088    4.5641 H   0  0  0  0  0  0  0  0  0  0  0  0
   -0.5319   -0.2118    4.6011 H   0  0  0  0  0  0  0  0  0  0  0  0
  5  6  2  0  0  0  0
  5  7  1  0  0  0  0
  2  3  1  0  0  0  0
  2  4  1  0  0  0  0
  2  5  1  0  0  0  0
  1  2  1  0  0  0  0
 22 23  2  0  0  0  0
 22 24  1  0  0  0  0
 18 19  1  0  0  0  0
 18 20  1  0  0  0  0
 18 21  1  0  0  0  0
 17 18  1  0  0  0  0
 14 15  1  0  0  0  0
 14 16  1  0  0  0  0
 14 17  1  0  0  0  0
 11 12  1  0  0  0  0
 11 13  1  0  0  0  0
 11 14  1  0  0  0  0
  9 10  1  0  0  0  0
  9 11  1  0  0  0  0
  9 22  1  0  0  0  0
  7  8  1  0  0  0  0
  7  9  1  0  0  0  0
 26 27  1  0  0  0  0
 26 28  1  0  0  0  0
 26 29  1  0  0  0  0
 24 25  1  0  0  0  0
 24 26  1  0  0  0  0
M  END
$$$$
default_name
  -OEChem-02102213163D

 29 28  0     1  0  0  0  0  0999 V2000
   -3.5781   -3.7296    1.2702 H   0  0  0  0  0  0  0  0  0  0  0  0
   -3.5311   -2.7616    0.7732 C   0  0  0  0  0  0  0  0  0  0  0  0
   -4.2371   -2.0766    1.2382 H   0  0  0  0  0  0  0  0  0  0  0  0
   -3.7681   -2.8816   -0.2818 H   0  0  0  0  0  0  0  0  0  0  0  0
   -2.1321   -2.2086    0.9112 C   0  0  0  0  0  0  0  0  0  0  0  0
   -1.2751   -2.8426    1.5112 O   0  0  0  0  0  0  0  0  0  0  0  0
   -1.9041   -1.0186    0.3602 N   0  0  0  0  0  0  0  0  0  0  0  0
   -2.6671   -0.5416   -0.0988 H   0  0  0  0  0  0  0  0  0  0  0  0
   -0.6131   -0.3236    0.3832 C   0  0  1  0  0  0  0  0  0  0  0  0
    0.1346   -0.9625   -0.0894 H   0  0  0  0  0  0  0  0  0  0  0  0
   -0.7253    0.9751   -0.4365 C   0  0  0  0  0  0  0  0  0  0  0  0
   -0.2242    0.8291   -1.3958 H   0  0  0  0  0  0  0  0  0  0  0  0
   -1.7775    1.1883   -0.6304 H   0  0  0  0  0  0  0  0  0  0  0  0
   -0.0982    2.1914    0.2544 C   0  0  0  0  0  0  0  0  0  0  0  0
   -0.5914    2.3518    1.2127 H   0  0  0  0  0  0  0  0  0  0  0  0
    0.9579    1.9867    0.4336 H   0  0  0  0  0  0  0  0  0  0  0  0
   -0.2289    3.7201   -0.7077 S   0  0  0  0  0  0  0  0  0  0  0  0
    0.9016    3.3277   -2.0677 C   0  0  0  0  0  0  0  0  0  0  0  0
    0.5458    2.4440   -2.5982 H   0  0  0  0  0  0  0  0  0  0  0  0
    0.9411    4.1698   -2.7592 H   0  0  0  0  0  0  0  0  0  0  0  0
    1.9006    3.1404   -1.6732 H   0  0  0  0  0  0  0  0  0  0  0  0
   -0.1711   -0.0594    1.8296 C   0  0  0  0  0  0  0  0  0  0  0  0
    0.9865   -0.2908    2.1726 O   0  0  0  0  0  0  0  0  0  0  0  0
   -1.0921    0.4156    2.6780 N   0  0  0  0  0  0  0  0  0  0  0  0
   -2.0168    0.5953    2.3206 H   0  0  0  0  0  0  0  0  0  0  0  0
   -0.8319    0.7034    4.0877 C   0  0  0  0  0  0  0  0  0  0  0  0
   -0.0192    1.4288    4.1710 H   0  0  0  0  0  0  0  0  0  0  0  0
   -1.7255    1.1088    4.5641 H   0  0  0  0  0  0  0  0  0  0  0  0
   -0.5319   -0.2118    4.6011 H   0  0  0  0  0  0  0  0  0  0  0  0
  5  6  2  0  0  0  0
  5  7  1  0  0  0  0
  2  3  1  0  0  0  0
  2  4  1  0  0  0  0
  2  5  1  0  0  0  0
  1  2  1  0  0  0  0
 22 23  2  0  0  0  0
 22 24  1  0  0  0  0
 18 19  1  0  0  0  0
 18 20  1  0  0  0  0
 18 21  1  0  0  0  0
 17 18  1  0  0  0  0
 14 15  1  0  0  0  0
 14 16  1  0  0  0  0
 14 17  1  0  0  0  0
 11 12  1  0  0  0  0
 11 13  1  0  0  0  0
 11 14  1  0  0  0  0
  9 10  1  0  0  0  0
  9 11  1  0  0  0  0
  9 22  1  0  0  0  0
  7  8  1  0  0  0  0
  7  9  1  0  0  0  0
 26 27  1  0  0  0  0
 26 28  1  0  0  0  0
 26 29  1  0  0  0  0
 24 25  1  0  0  0  0
 24 26  1  0  0  0  0
M  END
$$$$
default_name
  -OEChem-02102213163D

 29 28  0     1  0  0  0  0  0999 V2000
   -3.5781   -3.7296    1.2702 H   0  0  0  0  0  0  0  0  0  0  0  0
   -3.5311   -2.7616    0.7732 C   0  0  0  0  0  0  0  0  0  0  0  0
   -4.2371   -2.0766    1.2382 H   0  0  0  0  0  0  0  0  0  0  0  0
   -3.7681   -2.8816   -0.2818 H   0  0  0  0  0  0  0  0  0  0  0  0
   -2.1321   -2.2086    0.9112 C   0  0  0  0  0  0  0  0  0  0  0  0
   -1.2751   -2.8426    1.5112 O   0  0  0  0  0  0  0  0  0  0  0  0
   -1.9041   -1.0186    0.3602 N   0  0  0  0  0  0  0  0  0  0  0  0
   -2.6671   -0.5416   -0.0988 H   0  0  0  0  0  0  0  0  0  0  0  0
   -0.6131   -0.3236    0.3832 C   0  0  1  0  0  0  0  0  0  0  0  0
    0.1346   -0.9625   -0.0894 H   0  0  0  0  0  0  0  0  0  0  0  0
   -0.7253    0.9751   -0.4365 C   0  0  0  0  0  0  0  0  0  0  0  0
   -0.2242    0.8291   -1.3958 H   0  0  0  0  0  0  0  0  0  0  0  0
   -1.7775    1.1883   -0.6304 H   0  0  0  0  0  0  0  0  0  0  0  0
   -0.0982    2.1914    0.2544 C   0  0  0  0  0  0  0  0  0  0  0  0
   -0.3915    2.1971    1.3038 H   0  0  0  0  0  0  0  0  0  0  0  0
    0.9875    2.1073    0.1943 H   0  0  0  0  0  0  0  0  0  0  0  0
   -0.5902    3.7743   -0.4750 S   0  0  0  0  0  0  0  0  0  0  0  0
    0.2618    3.6586   -2.0696 C   0  0  0  0  0  0  0  0  0  0  0  0
   -0.1029    2.7903   -2.6191 H   0  0  0  0  0  0  0  0  0  0  0  0
    0.0649    4.5599   -2.6507 H   0  0  0  0  0  0  0  0  0  0  0  0
    1.3358    3.5642   -1.9067 H   0  0  0  0  0  0  0  0  0  0  0  0
   -0.1711   -0.0594    1.8296 C   0  0  0  0  0  0  0  0  0  0  0  0
    0.9865   -0.2908    2.1726 O   0  0  0  0  0  0  0  0  0  0  0  0
   -1.0921    0.4156    2.6780 N   0  0  0  0  0  0  0  0  0  0  0  0
   -2.0168    0.5953    2.3206 H   0  0  0  0  0  0  0  0  0  0  0  0
   -0.8319    0.7034    4.0877 C   0  0  0  0  0  0  0  0  0  0  0  0
   -0.0192    1.4288    4.1710 H   0  0  0  0  0  0  0  0  0  0  0  0
   -1.7255    1.1088    4.5641 H   0  0  0  0  0  0  0  0  0  0  0  0
   -0.5319   -0.2118    4.6011 H   0  0  0  0  0  0  0  0  0  0  0  0
  5  6  2  0  0  0  0
  5  7  1  0  0  0  0
  2  3  1  0  0  0  0
  2  4  1  0  0  0  0
  2  5  1  0  0  0  0
  1  2  1  0  0  0  0
 22 23  2  0  0  0  0
 22 24  1  0  0  0  0
 18 19  1  0  0  0  0
 18 20  1  0  0  0  0
 18 21  1  0  0  0  0
 17 18  1  0  0  0  0
 14 15  1  0  0  0  0
 14 16  1  0  0  0  0
 14 17  1  0  0  0  0
 11 12  1  0  0  0  0
 11 13  1  0  0  0  0
 11 14  1  0  0  0  0
  9 10  1  0  0  0  0
  9 11  1  0  0  0  0
  9 22  1  0  0  0  0
  7  8  1  0  0  0  0
  7  9  1  0  0  0  0
 26 27  1  0  0  0  0
 26 28  1  0  0  0  0
 26 29  1  0  0  0  0
 24 25  1  0  0  0  0
 24 26  1  0  0  0  0
M  END
$$$$
default_name
  -OEChem-02102213163D

 29 28  0     1  0  0  0  0  0999 V2000
   -3.5781   -3.7296    1.2702 H   0  0  0  0  0  0  0  0  0  0  0  0
   -3.5311   -2.7616    0.7732 C   0  0  0  0  0  0  0  0  0  0  0  0
   -4.2371   -2.0766    1.2382 H   0  0  0  0  0  0  0  0  0  0  0  0
   -3.7681   -2.8816   -0.2818 H   0  0  0  0  0  0  0  0  0  0  0  0
   -2.1321   -2.2086    0.9112 C   0  0  0  0  0  0  0  0  0  0  0  0
   -1.2751   -2.8426    1.5112 O   0  0  0  0  0  0  0  0  0  0  0  0
   -1.9041   -1.0186    0.3602 N   0  0  0  0  0  0  0  0  0  0  0  0
   -2.6671   -0.5416   -0.0988 H   0  0  0  0  0  0  0  0  0  0  0  0
   -0.6131   -0.3236    0.3832 C   0  0  1  0  0  0  0  0  0  0  0  0
    0.1346   -0.9625   -0.0894 H   0  0  0  0  0  0  0  0  0  0  0  0
   -0.7253    0.9751   -0.4365 C   0  0  0  0  0  0  0  0  0  0  0  0
   -0.2242    0.8291   -1.3958 H   0  0  0  0  0  0  0  0  0  0  0  0
   -1.7775    1.1883   -0.6304 H   0  0  0  0  0  0  0  0  0  0  0  0
   -0.0982    2.1914    0.2544 C   0  0  0  0  0  0  0  0  0  0  0  0
   -0.1617    2.0612    1.3343 H   0  0  0  0  0  0  0  0  0  0  0  0
    0.9528    2.2527   -0.0302 H   0  0  0  0  0  0  0  0  0  0  0  0
   -0.8978    3.7598   -0.1704 S   0  0  0  0  0  0  0  0  0  0  0  0
   -0.3952    3.9038   -1.9049 C   0  0  0  0  0  0  0  0  0  0  0  0
   -0.7741    3.0514   -2.4695 H   0  0  0  0  0  0  0  0  0  0  0  0
   -0.8046    4.8230   -2.3247 H   0  0  0  0  0  0  0  0  0  0  0  0
    0.6927    3.9325   -1.9715 H   0  0  0  0  0  0  0  0  0  0  0  0
   -0.1711   -0.0594    1.8296 C   0  0  0  0  0  0  0  0  0  0  0  0
    0.9865   -0.2908    2.1726 O   0  0  0  0  0  0  0  0  0  0  0  0
   -1.0921    0.4156    2.6780 N   0  0  0  0  0  0  0  0  0  0  0  0
   -2.0168    0.5953    2.3206 H   0  0  0  0  0  0  0  0  0  0  0  0
   -0.8319    0.7034    4.0877 C   0  0  0  0  0  0  0  0  0  0  0  0
   -0.0192    1.4288    4.1710 H   0  0  0  0  0  0  0  0  0  0  0  0
   -1.7255    1.1088    4.5641 H   0  0  0  0  0  0  0  0  0  0  0  0
   -0.5319   -0.2118    4.6011 H   0  0  0  0  0  0  0  0  0  0  0  0
  5  6  2  0  0  0  0
  5  7  1  0  0  0  0
  2  3  1  0  0  0  0
  2  4  1  0  0  0  0
  2  5  1  0  0  0  0
  1  2  1  0  0  0  0
 22 23  2  0  0  0  0
 22 24  1  0  0  0  0
 18 19  1  0  0  0  0
 18 20  1  0  0  0  0
 18 21  1  0  0  0  0
 17 18  1  0  0  0  0
 14 15  1  0  0  0  0
 14 16  1  0  0  0  0
 14 17  1  0  0  0  0
 11 12  1  0  0  0  0
 11 13  1  0  0  0  0
 11 14  1  0  0  0  0
  9 10  1  0  0  0  0
  9 11  1  0  0  0  0
  9 22  1  0  0  0  0
  7  8  1  0  0  0  0
  7  9  1  0  0  0  0
 26 27  1  0  0  0  0
 26 28  1  0  0  0  0
 26 29  1  0  0  0  0
 24 25  1  0  0  0  0
 24 26  1  0  0  0  0
M  END
$$$$
default_name
  -OEChem-02102213163D

 29 28  0     1  0  0  0  0  0999 V2000
   -3.5781   -3.7296    1.2702 H   0  0  0  0  0  0  0  0  0  0  0  0
   -3.5311   -2.7616    0.7732 C   0  0  0  0  0  0  0  0  0  0  0  0
   -4.2371   -2.0766    1.2382 H   0  0  0  0  0  0  0  0  0  0  0  0
   -3.7681   -2.8816   -0.2818 H   0  0  0  0  0  0  0  0  0  0  0  0
   -2.1321   -2.2086    0.9112 C   0  0  0  0  0  0  0  0  0  0  0  0
   -1.2751   -2.8426    1.5112 O   0  0  0  0  0  0  0  0  0  0  0  0
   -1.9041   -1.0186    0.3602 N   0  0  0  0  0  0  0  0  0  0  0  0
   -2.6671   -0.5416   -0.0988 H   0  0  0  0  0  0  0  0  0  0  0  0
   -0.6131   -0.3236    0.3832 C   0  0  1  0  0  0  0  0  0  0  0  0
    0.1346   -0.9625   -0.0894 H   0  0  0  0  0  0  0  0  0  0  0  0
   -0.7253    0.9751   -0.4365 C   0  0  0  0  0  0  0  0  0  0  0  0
   -0.2242    0.8291   -1.3958 H   0  0  0  0  0  0  0  0  0  0  0  0
   -1.7775    1.1883   -0.6304 H   0  0  0  0  0  0  0  0  0  0  0  0
   -0.0982    2.1914    0.2544 C   0  0  0  0  0  0  0  0  0  0  0  0
    0.0824    1.9536    1.3023 H   0  0  0  0  0  0  0  0  0  0  0  0
    0.8563    2.4128   -0.2244 H   0  0  0  0  0  0  0  0  0  0  0  0
   -1.1306    3.6777    0.1855 S   0  0  0  0  0  0  0  0  0  0  0  0
   -1.0246    4.0466   -1.5850 C   0  0  0  0  0  0  0  0  0  0  0  0
   -1.4222    3.2094   -2.1594 H   0  0  0  0  0  0  0  0  0  0  0  0
   -1.6083    4.9412   -1.8034 H   0  0  0  0  0  0  0  0  0  0  0  0
    0.0154    4.2201   -1.8629 H   0  0  0  0  0  0  0  0  0  0  0  0
   -0.1711   -0.0594    1.8296 C   0  0  0  0  0  0  0  0  0  0  0  0
    0.9865   -0.2908    2.1726 O   0  0  0  0  0  0  0  0  0  0  0  0
   -1.0921    0.4156    2.6780 N   0  0  0  0  0  0  0  0  0  0  0  0
   -2.0168    0.5953    2.3206 H   0  0  0  0  0  0  0  0  0  0  0  0
   -0.8319    0.7034    4.0877 C   0  0  0  0  0  0  0  0  0  0  0  0
   -0.0192    1.4288    4.1710 H   0  0  0  0  0  0  0  0  0  0  0  0
   -1.7255    1.1088    4.5641 H   0  0  0  0  0  0  0  0  0  0  0  0
   -0.5319   -0.2118    4.6011 H   0  0  0  0  0  0  0  0  0  0  0  0
  5  6  2  0  0  0  0
  5  7  1  0  0  0  0
  2  3  1  0  0  0  0
  2  4  1  0  0  0  0
  2  5  1  0  0  0  0
  1  2  1  0  0  0  0
 22 23  2  0  0  0  0
 22 24  1  0  0  0  0
 18 19  1  0  0  0  0
 18 20  1  0  0  0  0
 18 21  1  0  0  0  0
 17 18  1  0  0  0  0
 14 15  1  0  0  0  0
 14 16  1  0  0  0  0
 14 17  1  0  0  0  0
 11 12  1  0  0  0  0
 11 13  1  0  0  0  0
 11 14  1  0  0  0  0
  9 10  1  0  0  0  0
  9 11  1  0  0  0  0
  9 22  1  0  0  0  0
  7  8  1  0  0  0  0
  7  9  1  0  0  0  0
 26 27  1  0  0  0  0
 26 28  1  0  0  0  0
 26 29  1  0  0  0  0
 24 25  1  0  0  0  0
 24 26  1  0  0  0  0
M  END
$$$$
default_name
  -OEChem-02102213163D

 29 28  0     1  0  0  0  0  0999 V2000
   -3.5781   -3.7296    1.2702 H   0  0  0  0  0  0  0  0  0  0  0  0
   -3.5311   -2.7616    0.7732 C   0  0  0  0  0  0  0  0  0  0  0  0
   -4.2371   -2.0766    1.2382 H   0  0  0  0  0  0  0  0  0  0  0  0
   -3.7681   -2.8816   -0.2818 H   0  0  0  0  0  0  0  0  0  0  0  0
   -2.1321   -2.2086    0.9112 C   0  0  0  0  0  0  0  0  0  0  0  0
   -1.2751   -2.8426    1.5112 O   0  0  0  0  0  0  0  0  0  0  0  0
   -1.9041   -1.0186    0.3602 N   0  0  0  0  0  0  0  0  0  0  0  0
   -2.6671   -0.5416   -0.0988 H   0  0  0  0  0  0  0  0  0  0  0  0
   -0.6131   -0.3236    0.3832 C   0  0  1  0  0  0  0  0  0  0  0  0
    0.1346   -0.9625   -0.0894 H   0  0  0  0  0  0  0  0  0  0  0  0
   -0.7253    0.9751   -0.4365 C   0  0  0  0  0  0  0  0  0  0  0  0
   -0.2242    0.8291   -1.3958 H   0  0  0  0  0  0  0  0  0  0  0  0
   -1.7775    1.1883   -0.6304 H   0  0  0  0  0  0  0  0  0  0  0  0
   -0.0982    2.1914    0.2544 C   0  0  0  0  0  0  0  0  0  0  0  0
    0.3241    1.8815    1.2098 H   0  0  0  0  0  0  0  0  0  0  0  0
    0.7045    2.5768   -0.3753 H   0  0  0  0  0  0  0  0  0  0  0  0
   -1.2729    3.5336    0.5683 S   0  0  0  0  0  0  0  0  0  0  0  0
   -1.5835    4.0772   -1.1316 C   0  0  0  0  0  0  0  0  0  0  0  0
   -2.0030    3.2536   -1.7101 H   0  0  0  0  0  0  0  0  0  0  0  0
   -2.2913    4.9065   -1.1222 H   0  0  0  0  0  0  0  0  0  0  0  0
   -0.6502    4.4073   -1.5885 H   0  0  0  0  0  0  0  0  0  0  0  0
   -0.1711   -0.0594    1.8296 C   0  0  0  0  0  0  0  0  0  0  0  0
    0.9865   -0.2908    2.1726 O   0  0  0  0  0  0  0  0  0  0  0  0
   -1.0921    0.4156    2.6780 N   0  0  0  0  0  0  0  0  0  0  0  0
   -2.0168    0.5953    2.3206 H   0  0  0  0  0  0  0  0  0  0  0  0
   -0.8319    0.7034    4.0877 C   0  0  0  0  0  0  0  0  0  0  0  0
   -0.0192    1.4288    4.1710 H   0  0  0  0  0  0  0  0  0  0  0  0
   -1.7255    1.1088    4.5641 H   0  0  0  0  0  0  0  0  0  0  0  0
   -0.5319   -0.2118    4.6011 H   0  0  0  0  0  0  0  0  0  0  0  0
  5  6  2  0  0  0  0
  5  7  1  0  0  0  0
  2  3  1  0  0  0  0
  2  4  1  0  0  0  0
  2  5  1  0  0  0  0
  1  2  1  0  0  0  0
 22 23  2  0  0  0  0
 22 24  1  0  0  0  0
 18 19  1  0  0  0  0
 18 20  1  0  0  0  0
 18 21  1  0  0  0  0
 17 18  1  0  0  0  0
 14 15  1  0  0  0  0
 14 16  1  0  0  0  0
 14 17  1  0  0  0  0
 11 12  1  0  0  0  0
 11 13  1  0  0  0  0
 11 14  1  0  0  0  0
  9 10  1  0  0  0  0
  9 11  1  0  0  0  0
  9 22  1  0  0  0  0
  7  8  1  0  0  0  0
  7  9  1  0  0  0  0
 26 27  1  0  0  0  0
 26 28  1  0  0  0  0
 26 29  1  0  0  0  0
 24 25  1  0  0  0  0
 24 26  1  0  0  0  0
M  END
$$$$
default_name
  -OEChem-02102213163D

 29 28  0     1  0  0  0  0  0999 V2000
   -3.5781   -3.7296    1.2702 H   0  0  0  0  0  0  0  0  0  0  0  0
   -3.5311   -2.7616    0.7732 C   0  0  0  0  0  0  0  0  0  0  0  0
   -4.2371   -2.0766    1.2382 H   0  0  0  0  0  0  0  0  0  0  0  0
   -3.7681   -2.8816   -0.2818 H   0  0  0  0  0  0  0  0  0  0  0  0
   -2.1321   -2.2086    0.9112 C   0  0  0  0  0  0  0  0  0  0  0  0
   -1.2751   -2.8426    1.5112 O   0  0  0  0  0  0  0  0  0  0  0  0
   -1.9041   -1.0186    0.3602 N   0  0  0  0  0  0  0  0  0  0  0  0
   -2.6671   -0.5416   -0.0988 H   0  0  0  0  0  0  0  0  0  0  0  0
   -0.6131   -0.3236    0.3832 C   0  0  1  0  0  0  0  0  0  0  0  0
    0.1346   -0.9625   -0.0894 H   0  0  0  0  0  0  0  0  0  0  0  0
   -0.7253    0.9751   -0.4365 C   0  0  0  0  0  0  0  0  0  0  0  0
   -0.2242    0.8291   -1.3958 H   0  0  0  0  0  0  0  0  0  0  0  0
   -1.7775    1.1883   -0.6304 H   0  0  0  0  0  0  0  0  0  0  0  0
   -0.0982    2.1914    0.2544 C   0  0  0  0  0  0  0  0  0  0  0  0
    0.5471    1.8498    1.0632 H   0  0  0  0  0  0  0  0  0  0  0  0
    0.5077    2.7334   -0.4725 H   0  0  0  0  0  0  0  0  0  0  0  0
   -1.3148    3.3372    0.9521 S   0  0  0  0  0  0  0  0  0  0  0  0
   -2.0338    3.9935   -0.5757 C   0  0  0  0  0  0  0  0  0  0  0  0
   -2.4769    3.1810   -1.1522 H   0  0  0  0  0  0  0  0  0  0  0  0
   -2.8071    4.7211   -0.3277 H   0  0  0  0  0  0  0  0  0  0  0  0
   -1.2586    4.4815   -1.1670 H   0  0  0  0  0  0  0  0  0  0  0  0
   -0.1711   -0.0594    1.8296 C   0  0  0  0  0  0  0  0  0  0  0  0
    0.9865   -0.2908    2.1726 O   0  0  0  0  0  0  0  0  0  0  0  0
   -1.0921    0.4156    2.6780 N   0  0  0  0  0  0  0  0  0  0  0  0
   -2.0168    0.5953    2.3206 H   0  0  0  0  0  0  0  0  0  0  0  0
   -0.8319    0.7034    4.0877 C   0  0  0  0  0  0  0  0  0  0  0  0
   -0.0192    1.4288    4.1710 H   0  0  0  0  0  0  0  0  0  0  0  0
   -1.7255    1.1088    4.5641 H   0  0  0  0  0  0  0  0  0  0  0  0
   -0.5319   -0.2118    4.6011 H   0  0  0  0  0  0  0  0  0  0  0  0
  5  6  2  0  0  0  0
  5  7  1  0  0  0  0
  2  3  1  0  0  0  0
  2  4  1  0  0  0  0
  2  5  1  0  0  0  0
  1  2  1  0  0  0  0
 22 23  2  0  0  0  0
 22 24  1  0  0  0  0
 18 19  1  0  0  0  0
 18 20  1  0  0  0  0
 18 21  1  0  0  0  0
 17 18  1  0  0  0  0
 14 15  1  0  0  0  0
 14 16  1  0  0  0  0
 14 17  1  0  0  0  0
 11 12  1  0  0  0  0
 11 13  1  0  0  0  0
 11 14  1  0  0  0  0
  9 10  1  0  0  0  0
  9 11  1  0  0  0  0
  9 22  1  0  0  0  0
  7  8  1  0  0  0  0
  7  9  1  0  0  0  0
 26 27  1  0  0  0  0
 26 28  1  0  0  0  0
 26 29  1  0  0  0  0
 24 25  1  0  0  0  0
 24 26  1  0  0  0  0
M  END
$$$$
default_name
  -OEChem-02102213163D

 29 28  0     1  0  0  0  0  0999 V2000
   -3.5781   -3.7296    1.2702 H   0  0  0  0  0  0  0  0  0  0  0  0
   -3.5311   -2.7616    0.7732 C   0  0  0  0  0  0  0  0  0  0  0  0
   -4.2371   -2.0766    1.2382 H   0  0  0  0  0  0  0  0  0  0  0  0
   -3.7681   -2.8816   -0.2818 H   0  0  0  0  0  0  0  0  0  0  0  0
   -2.1321   -2.2086    0.9112 C   0  0  0  0  0  0  0  0  0  0  0  0
   -1.2751   -2.8426    1.5112 O   0  0  0  0  0  0  0  0  0  0  0  0
   -1.9041   -1.0186    0.3602 N   0  0  0  0  0  0  0  0  0  0  0  0
   -2.6671   -0.5416   -0.0988 H   0  0  0  0  0  0  0  0  0  0  0  0
   -0.6131   -0.3236    0.3832 C   0  0  1  0  0  0  0  0  0  0  0  0
    0.1346   -0.9625   -0.0894 H   0  0  0  0  0  0  0  0  0  0  0  0
   -0.7253    0.9751   -0.4365 C   0  0  0  0  0  0  0  0  0  0  0  0
   -0.2242    0.8291   -1.3958 H   0  0  0  0  0  0  0  0  0  0  0  0
   -1.7775    1.1883   -0.6304 H   0  0  0  0  0  0  0  0  0  0  0  0
   -0.0982    2.1914    0.2544 C   0  0  0  0  0  0  0  0  0  0  0  0
    0.7360    1.8608    0.8724 H   0  0  0  0  0  0  0  0  0  0  0  0
    0.2795    2.8721   -0.5094 H   0  0  0  0  0  0  0  0  0  0  0  0
   -1.2536    3.1020    1.3106 S   0  0  0  0  0  0  0  0  0  0  0  0
   -2.3449    3.8014    0.0449 C   0  0  0  0  0  0  0  0  0  0  0  0
   -2.8116    2.9965   -0.5236 H   0  0  0  0  0  0  0  0  0  0  0  0
   -3.1206    4.3977    0.5260 H   0  0  0  0  0  0  0  0  0  0  0  0
   -1.7683    4.4376   -0.6271 H   0  0  0  0  0  0  0  0  0  0  0  0
   -0.1711   -0.0594    1.8296 C   0  0  0  0  0  0  0  0  0  0  0  0
    0.9865   -0.2908    2.1726 O   0  0  0  0  0  0  0  0  0  0  0  0
   -1.0921    0.4156    2.6780 N   0  0  0  0  0  0  0  0  0  0  0  0
   -2.0168    0.5953    2.3206 H   0  0  0  0  0  0  0  0  0  0  0  0
   -0.8319    0.7034    4.0877 C   0  0  0  0  0  0  0  0  0  0  0  0
   -0.0192    1.4288    4.1710 H   0  0  0  0  0  0  0  0  0  0  0  0
   -1.7255    1.1088    4.5641 H   0  0  0  0  0  0  0  0  0  0  0  0
   -0.5319   -0.2118    4.6011 H   0  0  0  0  0  0  0  0  0  0  0  0
  5  6  2  0  0  0  0
  5  7  1  0  0  0  0
  2  3  1  0  0  0  0
  2  4  1  0  0  0  0
  2  5  1  0  0  0  0
  1  2  1  0  0  0  0
 22 23  2  0  0  0  0
 22 24  1  0  0  0  0
 18 19  1  0  0  0  0
 18 20  1  0  0  0  0
 18 21  1  0  0  0  0
 17 18  1  0  0  0  0
 14 15  1  0  0  0  0
 14 16  1  0  0  0  0
 14 17  1  0  0  0  0
 11 12  1  0  0  0  0
 11 13  1  0  0  0  0
 11 14  1  0  0  0  0
  9 10  1  0  0  0  0
  9 11  1  0  0  0  0
  9 22  1  0  0  0  0
  7  8  1  0  0  0  0
  7  9  1  0  0  0  0
 26 27  1  0  0  0  0
 26 28  1  0  0  0  0
 26 29  1  0  0  0  0
 24 25  1  0  0  0  0
 24 26  1  0  0  0  0
M  END
$$$$
default_name
  -OEChem-02102213163D

 29 28  0     1  0  0  0  0  0999 V2000
   -3.5781   -3.7296    1.2702 H   0  0  0  0  0  0  0  0  0  0  0  0
   -3.5311   -2.7616    0.7732 C   0  0  0  0  0  0  0  0  0  0  0  0
   -4.2371   -2.0766    1.2382 H   0  0  0  0  0  0  0  0  0  0  0  0
   -3.7681   -2.8816   -0.2818 H   0  0  0  0  0  0  0  0  0  0  0  0
   -2.1321   -2.2086    0.9112 C   0  0  0  0  0  0  0  0  0  0  0  0
   -1.2751   -2.8426    1.5112 O   0  0  0  0  0  0  0  0  0  0  0  0
   -1.9041   -1.0186    0.3602 N   0  0  0  0  0  0  0  0  0  0  0  0
   -2.6671   -0.5416   -0.0988 H   0  0  0  0  0  0  0  0  0  0  0  0
   -0.6131   -0.3236    0.3832 C   0  0  1  0  0  0  0  0  0  0  0  0
    0.1346   -0.9625   -0.0894 H   0  0  0  0  0  0  0  0  0  0  0  0
   -0.7253    0.9751   -0.4365 C   0  0  0  0  0  0  0  0  0  0  0  0
   -0.2242    0.8291   -1.3958 H   0  0  0  0  0  0  0  0  0  0  0  0
   -1.7775    1.1883   -0.6304 H   0  0  0  0  0  0  0  0  0  0  0  0
   -0.0982    2.1914    0.2544 C   0  0  0  0  0  0  0  0  0  0  0  0
    0.8780    1.9136    0.6506 H   0  0  0  0  0  0  0  0  0  0  0  0
    0.0352    2.9833   -0.4835 H   0  0  0  0  0  0  0  0  0  0  0  0
   -1.0935    2.8440    1.6195 S   0  0  0  0  0  0  0  0  0  0  0  0
   -2.4954    3.5138    0.6880 C   0  0  0  0  0  0  0  0  0  0  0  0
   -2.9843    2.7127    0.1327 H   0  0  0  0  0  0  0  0  0  0  0  0
   -3.2103    3.9585    1.3808 H   0  0  0  0  0  0  0  0  0  0  0  0
   -2.1446    4.2786   -0.0055 H   0  0  0  0  0  0  0  0  0  0  0  0
   -0.1711   -0.0594    1.8296 C   0  0  0  0  0  0  0  0  0  0  0  0
    0.9865   -0.2908    2.1726 O   0  0  0  0  0  0  0  0  0  0  0  0
   -1.0921    0.4156    2.6780 N   0  0  0  0  0  0  0  0  0  0  0  0
   -2.0168    0.5953    2.3206 H   0  0  0  0  0  0  0  0  0  0  0  0
   -0.8319    0.7034    4.0877 C   0  0  0  0  0  0  0  0  0  0  0  0
   -0.0192    1.4288    4.1710 H   0  0  0  0  0  0  0  0  0  0  0  0
   -1.7255    1.1088    4.5641 H   0  0  0  0  0  0  0  0  0  0  0  0
   -0.5319   -0.2118    4.6011 H   0  0  0  0  0  0  0  0  0  0  0  0
  5  6  2  0  0  0  0
  5  7  1  0  0  0  0
  2  3  1  0  0  0  0
  2  4  1  0  0  0  0
  2  5  1  0  0  0  0
  1  2  1  0  0  0  0
 22 23  2  0  0  0  0
 22 24  1  0  0  0  0
 18 19  1  0  0  0  0
 18 20  1  0  0  0  0
 18 21  1  0  0  0  0
 17 18  1  0  0  0  0
 14 15  1  0  0  0  0
 14 16  1  0  0  0  0
 14 17  1  0  0  0  0
 11 12  1  0  0  0  0
 11 13  1  0  0  0  0
 11 14  1  0  0  0  0
  9 10  1  0  0  0  0
  9 11  1  0  0  0  0
  9 22  1  0  0  0  0
  7  8  1  0  0  0  0
  7  9  1  0  0  0  0
 26 27  1  0  0  0  0
 26 28  1  0  0  0  0
 26 29  1  0  0  0  0
 24 25  1  0  0  0  0
 24 26  1  0  0  0  0
M  END
$$$$
default_name
  -OEChem-02102213163D

 29 28  0     1  0  0  0  0  0999 V2000
   -3.5781   -3.7296    1.2702 H   0  0  0  0  0  0  0  0  0  0  0  0
   -3.5311   -2.7616    0.7732 C   0  0  0  0  0  0  0  0  0  0  0  0
   -4.2371   -2.0766    1.2382 H   0  0  0  0  0  0  0  0  0  0  0  0
   -3.7681   -2.8816   -0.2818 H   0  0  0  0  0  0  0  0  0  0  0  0
   -2.1321   -2.2086    0.9112 C   0  0  0  0  0  0  0  0  0  0  0  0
   -1.2751   -2.8426    1.5112 O   0  0  0  0  0  0  0  0  0  0  0  0
   -1.9041   -1.0186    0.3602 N   0  0  0  0  0  0  0  0  0  0  0  0
   -2.6671   -0.5416   -0.0988 H   0  0  0  0  0  0  0  0  0  0  0  0
   -0.6131   -0.3236    0.3832 C   0  0  1  0  0  0  0  0  0  0  0  0
    0.1346   -0.9625   -0.0894 H   0  0  0  0  0  0  0  0  0  0  0  0
   -0.7253    0.9751   -0.4365 C   0  0  0  0  0  0  0  0  0  0  0  0
   -0.2242    0.8291   -1.3958 H   0  0  0  0  0  0  0  0  0  0  0  0
   -1.7775    1.1883   -0.6304 H   0  0  0  0  0  0  0  0  0  0  0  0
   -0.0982    2.1914    0.2544 C   0  0  0  0  0  0  0  0  0  0  0  0
    0.9635    2.0047    0.4127 H   0  0  0  0  0  0  0  0  0  0  0  0
   -0.2084    3.0594   -0.3966 H   0  0  0  0  0  0  0  0  0  0  0  0
   -0.8453    2.5808    1.8576 S   0  0  0  0  0  0  0  0  0  0  0  0
   -2.4753    3.1503    1.3095 C   0  0  0  0  0  0  0  0  0  0  0  0
   -2.9832    2.3489    0.7721 H   0  0  0  0  0  0  0  0  0  0  0  0
   -3.0702    3.4332    2.1783 H   0  0  0  0  0  0  0  0  0  0  0  0
   -2.3620    4.0152    0.6554 H   0  0  0  0  0  0  0  0  0  0  0  0
   -0.1711   -0.0594    1.8296 C   0  0  0  0  0  0  0  0  0  0  0  0
    0.9865   -0.2908    2.1726 O   0  0  0  0  0  0  0  0  0  0  0  0
   -1.0921    0.4156    2.6780 N   0  0  0  0  0  0  0  0  0  0  0  0
   -2.0168    0.5953    2.3206 H   0  0  0  0  0  0  0  0  0  0  0  0
   -0.8319    0.7034    4.0877 C   0  0  0  0  0  0  0  0  0  0  0  0
   -0.0192    1.4288    4.1710 H   0  0  0  0  0  0  0  0  0  0  0  0
   -1.7255    1.1088    4.5641 H   0  0  0  0  0  0  0  0  0  0  0  0
   -0.5319   -0.2118    4.6011 H   0  0  0  0  0  0  0  0  0  0  0  0
  5  6  2  0  0  0  0
  5  7  1  0  0  0  0
  2  3  1  0  0  0  0
  2  4  1  0  0  0  0
  2  5  1  0  0  0  0
  1  2  1  0  0  0  0
 22 23  2  0  0  0  0
 22 24  1  0  0  0  0
 18 19  1  0  0  0  0
 18 20  1  0  0  0  0
 18 21  1  0  0  0  0
 17 18  1  0  0  0  0
 14 15  1  0  0  0  0
 14 16  1  0  0  0  0
 14 17  1  0  0  0  0
 11 12  1  0  0  0  0
 11 13  1  0  0  0  0
 11 14  1  0  0  0  0
  9 10  1  0  0  0  0
  9 11  1  0  0  0  0
  9 22  1  0  0  0  0
  7  8  1  0  0  0  0
  7  9  1  0  0  0  0
 26 27  1  0  0  0  0
 26 28  1  0  0  0  0
 26 29  1  0  0  0  0
 24 25  1  0  0  0  0
 24 26  1  0  0  0  0
M  END
$$$$
default_name
  -OEChem-02102213163D

 29 28  0     1  0  0  0  0  0999 V2000
   -3.5781   -3.7296    1.2702 H   0  0  0  0  0  0  0  0  0  0  0  0
   -3.5311   -2.7616    0.7732 C   0  0  0  0  0  0  0  0  0  0  0  0
   -4.2371   -2.0766    1.2382 H   0  0  0  0  0  0  0  0  0  0  0  0
   -3.7681   -2.8816   -0.2818 H   0  0  0  0  0  0  0  0  0  0  0  0
   -2.1321   -2.2086    0.9112 C   0  0  0  0  0  0  0  0  0  0  0  0
   -1.2751   -2.8426    1.5112 O   0  0  0  0  0  0  0  0  0  0  0  0
   -1.9041   -1.0186    0.3602 N   0  0  0  0  0  0  0  0  0  0  0  0
   -2.6671   -0.5416   -0.0988 H   0  0  0  0  0  0  0  0  0  0  0  0
   -0.6131   -0.3236    0.3832 C   0  0  1  0  0  0  0  0  0  0  0  0
    0.1346   -0.9625   -0.0894 H   0  0  0  0  0  0  0  0  0  0  0  0
   -0.7253    0.9751   -0.4365 C   0  0  0  0  0  0  0  0  0  0  0  0
   -0.2242    0.8291   -1.3958 H   0  0  0  0  0  0  0  0  0  0  0  0
   -1.7775    1.1883   -0.6304 H   0  0  0  0  0  0  0  0  0  0  0  0
   -0.0982    2.1914    0.2544 C   0  0  0  0  0  0  0  0  0  0  0  0
    0.9866    2.1278    0.1750 H   0  0  0  0  0  0  0  0  0  0  0  0
   -0.4347    3.0954   -0.2545 H   0  0  0  0  0  0  0  0  0  0  0  0
   -0.5259    2.3303    2.0087 S   0  0  0  0  0  0  0  0  0  0  0  0
   -2.2858    2.7358    1.8673 C   0  0  0  0  0  0  0  0  0  0  0  0
   -2.8084    1.9300    1.3510 H   0  0  0  0  0  0  0  0  0  0  0  0
   -2.7099    2.8577    2.8644 H   0  0  0  0  0  0  0  0  0  0  0  0
   -2.4055    3.6656    1.3105 H   0  0  0  0  0  0  0  0  0  0  0  0
   -0.1711   -0.0594    1.8296 C   0  0  0  0  0  0  0  0  0  0  0  0
    0.9865   -0.2908    2.1726 O   0  0  0  0  0  0  0  0  0  0  0  0
   -1.0921    0.4156    2.6780 N   0  0  0  0  0  0  0  0  0  0  0  0
   -2.0168    0.5953    2.3206 H   0  0  0  0  0  0  0  0  0  0  0  0
   -0.8319    0.7034    4.0877 C   0  0  0  0  0  0  0  0  0  0  0  0
   -0.0192    1.4288    4.1710 H   0  0  0  0  0  0  0  0  0  0  0  0
   -1.7255    1.1088    4.5641 H   0  0  0  0  0  0  0  0  0  0  0  0
   -0.5319   -0.2118    4.6011 H   0  0  0  0  0  0  0  0  0  0  0  0
  5  6  2  0  0  0  0
  5  7  1  0  0  0  0
  2  3  1  0  0  0  0
  2  4  1  0  0  0  0
  2  5  1  0  0  0  0
  1  2  1  0  0  0  0
 22 23  2  0  0  0  0
 22 24  1  0  0  0  0
 18 19  1  0  0  0  0
 18 20  1  0  0  0  0
 18 21  1  0  0  0  0
 17 18  1  0  0  0  0
 14 15  1  0  0  0  0
 14 16  1  0  0  0  0
 14 17  1  0  0  0  0
 11 12  1  0  0  0  0
 11 13  1  0  0  0  0
 11 14  1  0  0  0  0
  9 10  1  0  0  0  0
  9 11  1  0  0  0  0
  9 22  1  0  0  0  0
  7  8  1  0  0  0  0
  7  9  1  0  0  0  0
 26 27  1  0  0  0  0
 26 28  1  0  0  0  0
 26 29  1  0  0  0  0
 24 25  1  0  0  0  0
 24 26  1  0  0  0  0
M  END
$$$$
default_name
  -OEChem-02102213163D

 29 28  0     1  0  0  0  0  0999 V2000
   -3.5781   -3.7296    1.2702 H   0  0  0  0  0  0  0  0  0  0  0  0
   -3.5311   -2.7616    0.7732 C   0  0  0  0  0  0  0  0  0  0  0  0
   -4.2371   -2.0766    1.2382 H   0  0  0  0  0  0  0  0  0  0  0  0
   -3.7681   -2.8816   -0.2818 H   0  0  0  0  0  0  0  0  0  0  0  0
   -2.1321   -2.2086    0.9112 C   0  0  0  0  0  0  0  0  0  0  0  0
   -1.2751   -2.8426    1.5112 O   0  0  0  0  0  0  0  0  0  0  0  0
   -1.9041   -1.0186    0.3602 N   0  0  0  0  0  0  0  0  0  0  0  0
   -2.6671   -0.5416   -0.0988 H   0  0  0  0  0  0  0  0  0  0  0  0
   -0.6131   -0.3236    0.3832 C   0  0  1  0  0  0  0  0  0  0  0  0
    0.1346   -0.9625   -0.0894 H   0  0  0  0  0  0  0  0  0  0  0  0
   -0.7253    0.9751   -0.4365 C   0  0  0  0  0  0  0  0  0  0  0  0
   -0.2242    0.8291   -1.3958 H   0  0  0  0  0  0  0  0  0  0  0  0
   -1.7775    1.1883   -0.6304 H   0  0  0  0  0  0  0  0  0  0  0  0
   -0.0982    2.1914    0.2544 C   0  0  0  0  0  0  0  0  0  0  0  0
    0.9457    2.2746   -0.0464 H   0  0  0  0  0  0  0  0  0  0  0  0
   -0.6283    3.0887   -0.0670 H   0  0  0  0  0  0  0  0  0  0  0  0
   -0.1571    2.1095    2.0626 S   0  0  0  0  0  0  0  0  0  0  0  0
   -1.9399    2.2984    2.3233 C   0  0  0  0  0  0  0  0  0  0  0  0
   -2.4719    1.4845    1.8299 H   0  0  0  0  0  0  0  0  0  0  0  0
   -2.1538    2.2713    3.3921 H   0  0  0  0  0  0  0  0  0  0  0  0
   -2.2722    3.2534    1.9151 H   0  0  0  0  0  0  0  0  0  0  0  0
   -0.1711   -0.0594    1.8296 C   0  0  0  0  0  0  0  0  0  0  0  0
    0.9865   -0.2908    2.1726 O   0  0  0  0  0  0  0  0  0  0  0  0
   -1.0921    0.4156    2.6780 N   0  0  0  0  0  0  0  0  0  0  0  0
   -2.0168    0.5953    2.3206 H   0  0  0  0  0  0  0  0  0  0  0  0
   -0.8319    0.7034    4.0877 C   0  0  0  0  0  0  0  0  0  0  0  0
   -0.0192    1.4288    4.1710 H   0  0  0  0  0  0  0  0  0  0  0  0
   -1.7255    1.1088    4.5641 H   0  0  0  0  0  0  0  0  0  0  0  0
   -0.5319   -0.2118    4.6011 H   0  0  0  0  0  0  0  0  0  0  0  0
  5  6  2  0  0  0  0
  5  7  1  0  0  0  0
  2  3  1  0  0  0  0
  2  4  1  0  0  0  0
  2  5  1  0  0  0  0
  1  2  1  0  0  0  0
 22 23  2  0  0  0  0
 22 24  1  0  0  0  0
 18 19  1  0  0  0  0
 18 20  1  0  0  0  0
 18 21  1  0  0  0  0
 17 18  1  0  0  0  0
 14 15  1  0  0  0  0
 14 16  1  0  0  0  0
 14 17  1  0  0  0  0
 11 12  1  0  0  0  0
 11 13  1  0  0  0  0
 11 14  1  0  0  0  0
  9 10  1  0  0  0  0
  9 11  1  0  0  0  0
  9 22  1  0  0  0  0
  7  8  1  0  0  0  0
  7  9  1  0  0  0  0
 26 27  1  0  0  0  0
 26 28  1  0  0  0  0
 26 29  1  0  0  0  0
 24 25  1  0  0  0  0
 24 26  1  0  0  0  0
M  END
$$$$
default_name
  -OEChem-02102213163D

 29 28  0     1  0  0  0  0  0999 V2000
   -3.5781   -3.7296    1.2702 H   0  0  0  0  0  0  0  0  0  0  0  0
   -3.5311   -2.7616    0.7732 C   0  0  0  0  0  0  0  0  0  0  0  0
   -4.2371   -2.0766    1.2382 H   0  0  0  0  0  0  0  0  0  0  0  0
   -3.7681   -2.8816   -0.2818 H   0  0  0  0  0  0  0  0  0  0  0  0
   -2.1321   -2.2086    0.9112 C   0  0  0  0  0  0  0  0  0  0  0  0
   -1.2751   -2.8426    1.5112 O   0  0  0  0  0  0  0  0  0  0  0  0
   -1.9041   -1.0186    0.3602 N   0  0  0  0  0  0  0  0  0  0  0  0
   -2.6671   -0.5416   -0.0988 H   0  0  0  0  0  0  0  0  0  0  0  0
   -0.6131   -0.3236    0.3832 C   0  0  1  0  0  0  0  0  0  0  0  0
    0.1346   -0.9625   -0.0894 H   0  0  0  0  0  0  0  0  0  0  0  0
   -0.7253    0.9751   -0.4365 C   0  0  0  0  0  0  0  0  0  0  0  0
   -0.2242    0.8291   -1.3958 H   0  0  0  0  0  0  0  0  0  0  0  0
   -1.7775    1.1883   -0.6304 H   0  0  0  0  0  0  0  0  0  0  0  0
   -0.0982    2.1914    0.2544 C   0  0  0  0  0  0  0  0  0  0  0  0
    0.8436    2.4350   -0.2362 H   0  0  0  0  0  0  0  0  0  0  0  0
   -0.7760    3.0398    0.1532 H   0  0  0  0  0  0  0  0  0  0  0  0
    0.2359    1.9336    2.0156 S   0  0  0  0  0  0  0  0  0  0  0  0
   -1.4611    1.8681    2.6464 C   0  0  0  0  0  0  0  0  0  0  0  0
   -1.9964    1.0427    2.1762 H   0  0  0  0  0  0  0  0  0  0  0  0
   -1.4398    1.7138    3.7255 H   0  0  0  0  0  0  0  0  0  0  0  0
   -1.9711    2.8067    2.4282 H   0  0  0  0  0  0  0  0  0  0  0  0
   -0.1711   -0.0594    1.8296 C   0  0  0  0  0  0  0  0  0  0  0  0
    0.9865   -0.2908    2.1726 O   0  0  0  0  0  0  0  0  0  0  0  0
   -1.0921    0.4156    2.6780 N   0  0  0  0  0  0  0  0  0  0  0  0
   -2.0168    0.5953    2.3206 H   0  0  0  0  0  0  0  0  0  0  0  0
   -0.8319    0.7034    4.0877 C   0  0  0  0  0  0  0  0  0  0  0  0
   -0.0192    1.4288    4.1710 H   0  0  0  0  0  0  0  0  0  0  0  0
   -1.7255    1.1088    4.5641 H   0  0  0  0  0  0  0  0  0  0  0  0
   -0.5319   -0.2118    4.6011 H   0  0  0  0  0  0  0  0  0  0  0  0
  5  6  2  0  0  0  0
  5  7  1  0  0  0  0
  2  3  1  0  0  0  0
  2  4  1  0  0  0  0
  2  5  1  0  0  0  0
  1  2  1  0  0  0  0
 22 23  2  0  0  0  0
 22 24  1  0  0  0  0
 18 19  1  0  0  0  0
 18 20  1  0  0  0  0
 18 21  1  0  0  0  0
 17 18  1  0  0  0  0
 14 15  1  0  0  0  0
 14 16  1  0  0  0  0
 14 17  1  0  0  0  0
 11 12  1  0  0  0  0
 11 13  1  0  0  0  0
 11 14  1  0  0  0  0
  9 10  1  0  0  0  0
  9 11  1  0  0  0  0
  9 22  1  0  0  0  0
  7  8  1  0  0  0  0
  7  9  1  0  0  0  0
 26 27  1  0  0  0  0
 26 28  1  0  0  0  0
 26 29  1  0  0  0  0
 24 25  1  0  0  0  0
 24 26  1  0  0  0  0
M  END
$$$$
default_name
  -OEChem-02102213163D

 29 28  0     1  0  0  0  0  0999 V2000
   -3.5781   -3.7296    1.2702 H   0  0  0  0  0  0  0  0  0  0  0  0
   -3.5311   -2.7616    0.7732 C   0  0  0  0  0  0  0  0  0  0  0  0
   -4.2371   -2.0766    1.2382 H   0  0  0  0  0  0  0  0  0  0  0  0
   -3.7681   -2.8816   -0.2818 H   0  0  0  0  0  0  0  0  0  0  0  0
   -2.1321   -2.2086    0.9112 C   0  0  0  0  0  0  0  0  0  0  0  0
   -1.2751   -2.8426    1.5112 O   0  0  0  0  0  0  0  0  0  0  0  0
   -1.9041   -1.0186    0.3602 N   0  0  0  0  0  0  0  0  0  0  0  0
   -2.6671   -0.5416   -0.0988 H   0  0  0  0  0  0  0  0  0  0  0  0
   -0.6131   -0.3236    0.3832 C   0  0  1  0  0  0  0  0  0  0  0  0
    0.1346   -0.9625   -0.0894 H   0  0  0  0  0  0  0  0  0  0  0  0
   -0.7253    0.9751   -0.4365 C   0  0  0  0  0  0  0  0  0  0  0  0
   -0.2242    0.8291   -1.3958 H   0  0  0  0  0  0  0  0  0  0  0  0
   -1.7775    1.1883   -0.6304 H   0  0  0  0  0  0  0  0  0  0  0  0
   -0.0982    2.1914    0.2544 C   0  0  0  0  0  0  0  0  0  0  0  0
    0.6874    2.5982   -0.3816 H   0  0  0  0  0  0  0  0  0  0  0  0
   -0.8678    2.9520    0.3911 H   0  0  0  0  0  0  0  0  0  0  0  0
    0.6263    1.8146    1.8708 S   0  0  0  0  0  0  0  0  0  0  0  0
   -0.8820    1.4740    2.8145 C   0  0  0  0  0  0  0  0  0  0  0  0
   -1.4146    0.6347    2.3663 H   0  0  0  0  0  0  0  0  0  0  0  0
   -0.6167    1.2233    3.8420 H   0  0  0  0  0  0  0  0  0  0  0  0
   -1.5229    2.3561    2.8147 H   0  0  0  0  0  0  0  0  0  0  0  0
   -0.1711   -0.0594    1.8296 C   0  0  0  0  0  0  0  0  0  0  0  0
    0.9865   -0.2908    2.1726 O   0  0  0  0  0  0  0  0  0  0  0  0
   -1.0921    0.4156    2.6780 N   0  0  0  0  0  0  0  0  0  0  0  0
   -2.0168    0.5953    2.3206 H   0  0  0  0  0  0  0  0  0  0  0  0
   -0.8319    0.7034    4.0877 C   0  0  0  0  0  0  0  0  0  0  0  0
   -0.0192    1.4288    4.1710 H   0  0  0  0  0  0  0  0  0  0  0  0
   -1.7255    1.1088    4.5641 H   0  0  0  0  0  0  0  0  0  0  0  0
   -0.5319   -0.2118    4.6011 H   0  0  0  0  0  0  0  0  0  0  0  0
  5  6  2  0  0  0  0
  5  7  1  0  0  0  0
  2  3  1  0  0  0  0
  2  4  1  0  0  0  0
  2  5  1  0  0  0  0
  1  2  1  0  0  0  0
 22 23  2  0  0  0  0
 22 24  1  0  0  0  0
 18 19  1  0  0  0  0
 18 20  1  0  0  0  0
 18 21  1  0  0  0  0
 17 18  1  0  0  0  0
 14 15  1  0  0  0  0
 14 16  1  0  0  0  0
 14 17  1  0  0  0  0
 11 12  1  0  0  0  0
 11 13  1  0  0  0  0
 11 14  1  0  0  0  0
  9 10  1  0  0  0  0
  9 11  1  0  0  0  0
  9 22  1  0  0  0  0
  7  8  1  0  0  0  0
  7  9  1  0  0  0  0
 26 27  1  0  0  0  0
 26 28  1  0  0  0  0
 26 29  1  0  0  0  0
 24 25  1  0  0  0  0
 24 26  1  0  0  0  0
M  END
$$$$
default_name
  -OEChem-02102213163D

 29 28  0     1  0  0  0  0  0999 V2000
   -3.5781   -3.7296    1.2702 H   0  0  0  0  0  0  0  0  0  0  0  0
   -3.5311   -2.7616    0.7732 C   0  0  0  0  0  0  0  0  0  0  0  0
   -4.2371   -2.0766    1.2382 H   0  0  0  0  0  0  0  0  0  0  0  0
   -3.7681   -2.8816   -0.2818 H   0  0  0  0  0  0  0  0  0  0  0  0
   -2.1321   -2.2086    0.9112 C   0  0  0  0  0  0  0  0  0  0  0  0
   -1.2751   -2.8426    1.5112 O   0  0  0  0  0  0  0  0  0  0  0  0
   -1.9041   -1.0186    0.3602 N   0  0  0  0  0  0  0  0  0  0  0  0
   -2.6671   -0.5416   -0.0988 H   0  0  0  0  0  0  0  0  0  0  0  0
   -0.6131   -0.3236    0.3832 C   0  0  1  0  0  0  0  0  0  0  0  0
    0.1346   -0.9625   -0.0894 H   0  0  0  0  0  0  0  0  0  0  0  0
   -0.7253    0.9751   -0.4365 C   0  0  0  0  0  0  0  0  0  0  0  0
   -0.2242    0.8291   -1.3958 H   0  0  0  0  0  0  0  0  0  0  0  0
   -1.7775    1.1883   -0.6304 H   0  0  0  0  0  0  0  0  0  0  0  0
   -0.0982    2.1914    0.2544 C   0  0  0  0  0  0  0  0  0  0  0  0
    0.4875    2.7530   -0.4727 H   0  0  0  0  0  0  0  0  0  0  0  0
   -0.8973    2.8313    0.6303 H   0  0  0  0  0  0  0  0  0  0  0  0
    0.9877    1.7604    1.6382 S   0  0  0  0  0  0  0  0  0  0  0  0
   -0.2422    1.1431    2.8164 C   0  0  0  0  0  0  0  0  0  0  0  0
   -0.7659    0.2884    2.3872 H   0  0  0  0  0  0  0  0  0  0  0  0
    0.2595    0.8332    3.7335 H   0  0  0  0  0  0  0  0  0  0  0  0
   -0.9580    1.9323    3.0482 H   0  0  0  0  0  0  0  0  0  0  0  0
   -0.1711   -0.0594    1.8296 C   0  0  0  0  0  0  0  0  0  0  0  0
    0.9865   -0.2908    2.1726 O   0  0  0  0  0  0  0  0  0  0  0  0
   -1.0921    0.4156    2.6780 N   0  0  0  0  0  0  0  0  0  0  0  0
   -2.0168    0.5953    2.3206 H   0  0  0  0  0  0  0  0  0  0  0  0
   -0.8319    0.7034    4.0877 C   0  0  0  0  0  0  0  0  0  0  0  0
   -0.0192    1.4288    4.1710 H   0  0  0  0  0  0  0  0  0  0  0  0
   -1.7255    1.1088    4.5641 H   0  0  0  0  0  0  0  0  0  0  0  0
   -0.5319   -0.2118    4.6011 H   0  0  0  0  0  0  0  0  0  0  0  0
  5  6  2  0  0  0  0
  5  7  1  0  0  0  0
  2  3  1  0  0  0  0
  2  4  1  0  0  0  0
  2  5  1  0  0  0  0
  1  2  1  0  0  0  0
 22 23  2  0  0  0  0
 22 24  1  0  0  0  0
 18 19  1  0  0  0  0
 18 20  1  0  0  0  0
 18 21  1  0  0  0  0
 17 18  1  0  0  0  0
 14 15  1  0  0  0  0
 14 16  1  0  0  0  0
 14 17  1  0  0  0  0
 11 12  1  0  0  0  0
 11 13  1  0  0  0  0
 11 14  1  0  0  0  0
  9 10  1  0  0  0  0
  9 11  1  0  0  0  0
  9 22  1  0  0  0  0
  7  8  1  0  0  0  0
  7  9  1  0  0  0  0
 26 27  1  0  0  0  0
 26 28  1  0  0  0  0
 26 29  1  0  0  0  0
 24 25  1  0  0  0  0
 24 26  1  0  0  0  0
M  END
$$$$
default_name
  -OEChem-02102213163D

 29 28  0     1  0  0  0  0  0999 V2000
   -3.5781   -3.7296    1.2702 H   0  0  0  0  0  0  0  0  0  0  0  0
   -3.5311   -2.7616    0.7732 C   0  0  0  0  0  0  0  0  0  0  0  0
   -4.2371   -2.0766    1.2382 H   0  0  0  0  0  0  0  0  0  0  0  0
   -3.7681   -2.8816   -0.2818 H   0  0  0  0  0  0  0  0  0  0  0  0
   -2.1321   -2.2086    0.9112 C   0  0  0  0  0  0  0  0  0  0  0  0
   -1.2751   -2.8426    1.5112 O   0  0  0  0  0  0  0  0  0  0  0  0
   -1.9041   -1.0186    0.3602 N   0  0  0  0  0  0  0  0  0  0  0  0
   -2.6671   -0.5416   -0.0988 H   0  0  0  0  0  0  0  0  0  0  0  0
   -0.6131   -0.3236    0.3832 C   0  0  1  0  0  0  0  0  0  0  0  0
    0.1346   -0.9625   -0.0894 H   0  0  0  0  0  0  0  0  0  0  0  0
   -0.7253    0.9751   -0.4365 C   0  0  0  0  0  0  0  0  0  0  0  0
   -0.2242    0.8291   -1.3958 H   0  0  0  0  0  0  0  0  0  0  0  0
   -1.7775    1.1883   -0.6304 H   0  0  0  0  0  0  0  0  0  0  0  0
   -0.0982    2.1914    0.2544 C   0  0  0  0  0  0  0  0  0  0  0  0
    0.2577    2.8888   -0.5033 H   0  0  0  0  0  0  0  0  0  0  0  0
   -0.8627    2.6860    0.8548 H   0  0  0  0  0  0  0  0  0  0  0  0
    1.2952    1.7749    1.3336 S   0  0  0  0  0  0  0  0  0  0  0  0
    0.4147    0.8979    2.6517 C   0  0  0  0  0  0  0  0  0  0  0  0
   -0.0946    0.0273    2.2376 H   0  0  0  0  0  0  0  0  0  0  0  0
    1.1291    0.5701    3.4075 H   0  0  0  0  0  0  0  0  0  0  0  0
   -0.3150    1.5640    3.1129 H   0  0  0  0  0  0  0  0  0  0  0  0
   -0.1711   -0.0594    1.8296 C   0  0  0  0  0  0  0  0  0  0  0  0
    0.9865   -0.2908    2.1726 O   0  0  0  0  0  0  0  0  0  0  0  0
   -1.0921    0.4156    2.6780 N   0  0  0  0  0  0  0  0  0  0  0  0
   -2.0168    0.5953    2.3206 H   0  0  0  0  0  0  0  0  0  0  0  0
   -0.8319    0.7034    4.0877 C   0  0  0  0  0  0  0  0  0  0  0  0
   -0.0192    1.4288    4.1710 H   0  0  0  0  0  0  0  0  0  0  0  0
   -1.7255    1.1088    4.5641 H   0  0  0  0  0  0  0  0  0  0  0  0
   -0.5319   -0.2118    4.6011 H   0  0  0  0  0  0  0  0  0  0  0  0
  5  6  2  0  0  0  0
  5  7  1  0  0  0  0
  2  3  1  0  0  0  0
  2  4  1  0  0  0  0
  2  5  1  0  0  0  0
  1  2  1  0  0  0  0
 22 23  2  0  0  0  0
 22 24  1  0  0  0  0
 18 19  1  0  0  0  0
 18 20  1  0  0  0  0
 18 21  1  0  0  0  0
 17 18  1  0  0  0  0
 14 15  1  0  0  0  0
 14 16  1  0  0  0  0
 14 17  1  0  0  0  0
 11 12  1  0  0  0  0
 11 13  1  0  0  0  0
 11 14  1  0  0  0  0
  9 10  1  0  0  0  0
  9 11  1  0  0  0  0
  9 22  1  0  0  0  0
  7  8  1  0  0  0  0
  7  9  1  0  0  0  0
 26 27  1  0  0  0  0
 26 28  1  0  0  0  0
 26 29  1  0  0  0  0
 24 25  1  0  0  0  0
 24 26  1  0  0  0  0
M  END
$$$$
default_name
  -OEChem-02102213163D

 29 28  0     1  0  0  0  0  0999 V2000
   -3.5781   -3.7296    1.2702 H   0  0  0  0  0  0  0  0  0  0  0  0
   -3.5311   -2.7616    0.7732 C   0  0  0  0  0  0  0  0  0  0  0  0
   -4.2371   -2.0766    1.2382 H   0  0  0  0  0  0  0  0  0  0  0  0
   -3.7681   -2.8816   -0.2818 H   0  0  0  0  0  0  0  0  0  0  0  0
   -2.1321   -2.2086    0.9112 C   0  0  0  0  0  0  0  0  0  0  0  0
   -1.2751   -2.8426    1.5112 O   0  0  0  0  0  0  0  0  0  0  0  0
   -1.9041   -1.0186    0.3602 N   0  0  0  0  0  0  0  0  0  0  0  0
   -2.6671   -0.5416   -0.0988 H   0  0  0  0  0  0  0  0  0  0  0  0
   -0.6131   -0.3236    0.3832 C   0  0  1  0  0  0  0  0  0  0  0  0
    0.1346   -0.9625   -0.0894 H   0  0  0  0  0  0  0  0  0  0  0  0
   -0.7253    0.9751   -0.4365 C   0  0  0  0  0  0  0  0  0  0  0  0
   -0.2242    0.8291   -1.3958 H   0  0  0  0  0  0  0  0  0  0  0  0
   -1.7775    1.1883   -0.6304 H   0  0  0  0  0  0  0  0  0  0  0  0
   -0.0982    2.1914    0.2544 C   0  0  0  0  0  0  0  0  0  0  0  0
    0.0136    2.9964   -0.4712 H   0  0  0  0  0  0  0  0  0  0  0  0
   -0.7662    2.5259    1.0490 H   0  0  0  0  0  0  0  0  0  0  0  0
    1.5281    1.8570    0.9777 S   0  0  0  0  0  0  0  0  0  0  0  0
    1.0441    0.7552    2.3318 C   0  0  0  0  0  0  0  0  0  0  0  0
    0.5535   -0.1307    1.9275 H   0  0  0  0  0  0  0  0  0  0  0  0
    1.9327    0.4519    2.8861 H   0  0  0  0  0  0  0  0  0  0  0  0
    0.3624    1.2764    3.0044 H   0  0  0  0  0  0  0  0  0  0  0  0
   -0.1711   -0.0594    1.8296 C   0  0  0  0  0  0  0  0  0  0  0  0
    0.9865   -0.2908    2.1726 O   0  0  0  0  0  0  0  0  0  0  0  0
   -1.0921    0.4156    2.6780 N   0  0  0  0  0  0  0  0  0  0  0  0
   -2.0168    0.5953    2.3206 H   0  0  0  0  0  0  0  0  0  0  0  0
   -0.8319    0.7034    4.0877 C   0  0  0  0  0  0  0  0  0  0  0  0
   -0.0192    1.4288    4.1710 H   0  0  0  0  0  0  0  0  0  0  0  0
   -1.7255    1.1088    4.5641 H   0  0  0  0  0  0  0  0  0  0  0  0
   -0.5319   -0.2118    4.6011 H   0  0  0  0  0  0  0  0  0  0  0  0
  5  6  2  0  0  0  0
  5  7  1  0  0  0  0
  2  3  1  0  0  0  0
  2  4  1  0  0  0  0
  2  5  1  0  0  0  0
  1  2  1  0  0  0  0
 22 23  2  0  0  0  0
 22 24  1  0  0  0  0
 18 19  1  0  0  0  0
 18 20  1  0  0  0  0
 18 21  1  0  0  0  0
 17 18  1  0  0  0  0
 14 15  1  0  0  0  0
 14 16  1  0  0  0  0
 14 17  1  0  0  0  0
 11 12  1  0  0  0  0
 11 13  1  0  0  0  0
 11 14  1  0  0  0  0
  9 10  1  0  0  0  0
  9 11  1  0  0  0  0
  9 22  1  0  0  0  0
  7  8  1  0  0  0  0
  7  9  1  0  0  0  0
 26 27  1  0  0  0  0
 26 28  1  0  0  0  0
 26 29  1  0  0  0  0
 24 25  1  0  0  0  0
 24 26  1  0  0  0  0
M  END
$$$$
default_name
  -OEChem-02102213163D

 29 28  0     1  0  0  0  0  0999 V2000
   -3.5781   -3.7296    1.2702 H   0  0  0  0  0  0  0  0  0  0  0  0
   -3.5311   -2.7616    0.7732 C   0  0  0  0  0  0  0  0  0  0  0  0
   -4.2371   -2.0766    1.2382 H   0  0  0  0  0  0  0  0  0  0  0  0
   -3.7681   -2.8816   -0.2818 H   0  0  0  0  0  0  0  0  0  0  0  0
   -2.1321   -2.2086    0.9112 C   0  0  0  0  0  0  0  0  0  0  0  0
   -1.2751   -2.8426    1.5112 O   0  0  0  0  0  0  0  0  0  0  0  0
   -1.9041   -1.0186    0.3602 N   0  0  0  0  0  0  0  0  0  0  0  0
   -2.6671   -0.5416   -0.0988 H   0  0  0  0  0  0  0  0  0  0  0  0
   -0.6131   -0.3236    0.3832 C   0  0  1  0  0  0  0  0  0  0  0  0
    0.1346   -0.9625   -0.0894 H   0  0  0  0  0  0  0  0  0  0  0  0
   -0.7253    0.9751   -0.4365 C   0  0  0  0  0  0  0  0  0  0  0  0
   -0.2242    0.8291   -1.3958 H   0  0  0  0  0  0  0  0  0  0  0  0
   -1.7775    1.1883   -0.6304 H   0  0  0  0  0  0  0  0  0  0  0  0
   -0.0982    2.1914    0.2544 C   0  0  0  0  0  0  0  0  0  0  0  0
   -0.2281    3.0685   -0.3787 H   0  0  0  0  0  0  0  0  0  0  0  0
   -0.6144    2.3619    1.1999 H   0  0  0  0  0  0  0  0  0  0  0  0
    1.6703    2.0012    0.5948 S   0  0  0  0  0  0  0  0  0  0  0  0
    1.6030    0.7246    1.8784 C   0  0  0  0  0  0  0  0  0  0  0  0
    1.1343   -0.1749    1.4782 H   0  0  0  0  0  0  0  0  0  0  0  0
    2.6158    0.4867    2.2050 H   0  0  0  0  0  0  0  0  0  0  0  0
    1.0279    1.0892    2.7300 H   0  0  0  0  0  0  0  0  0  0  0  0
   -0.1711   -0.0594    1.8296 C   0  0  0  0  0  0  0  0  0  0  0  0
    0.9865   -0.2908    2.1726 O   0  0  0  0  0  0  0  0  0  0  0  0
   -1.0921    0.4156    2.6780 N   0  0  0  0  0  0  0  0  0  0  0  0
   -2.0168    0.5953    2.3206 H   0  0  0  0  0  0  0  0  0  0  0  0
   -0.8319    0.7034    4.0877 C   0  0  0  0  0  0  0  0  0  0  0  0
   -0.0192    1.4288    4.1710 H   0  0  0  0  0  0  0  0  0  0  0  0
   -1.7255    1.1088    4.5641 H   0  0  0  0  0  0  0  0  0  0  0  0
   -0.5319   -0.2118    4.6011 H   0  0  0  0  0  0  0  0  0  0  0  0
  5  6  2  0  0  0  0
  5  7  1  0  0  0  0
  2  3  1  0  0  0  0
  2  4  1  0  0  0  0
  2  5  1  0  0  0  0
  1  2  1  0  0  0  0
 22 23  2  0  0  0  0
 22 24  1  0  0  0  0
 18 19  1  0  0  0  0
 18 20  1  0  0  0  0
 18 21  1  0  0  0  0
 17 18  1  0  0  0  0
 14 15  1  0  0  0  0
 14 16  1  0  0  0  0
 14 17  1  0  0  0  0
 11 12  1  0  0  0  0
 11 13  1  0  0  0  0
 11 14  1  0  0  0  0
  9 10  1  0  0  0  0
  9 11  1  0  0  0  0
  9 22  1  0  0  0  0
  7  8  1  0  0  0  0
  7  9  1  0  0  0  0
 26 27  1  0  0  0  0
 26 28  1  0  0  0  0
 26 29  1  0  0  0  0
 24 25  1  0  0  0  0
 24 26  1  0  0  0  0
M  END
$$$$
default_name
  -OEChem-02102213163D

 29 28  0     1  0  0  0  0  0999 V2000
   -3.5781   -3.7296    1.2702 H   0  0  0  0  0  0  0  0  0  0  0  0
   -3.5311   -2.7616    0.7732 C   0  0  0  0  0  0  0  0  0  0  0  0
   -4.2371   -2.0766    1.2382 H   0  0  0  0  0  0  0  0  0  0  0  0
   -3.7681   -2.8816   -0.2818 H   0  0  0  0  0  0  0  0  0  0  0  0
   -2.1321   -2.2086    0.9112 C   0  0  0  0  0  0  0  0  0  0  0  0
   -1.2751   -2.8426    1.5112 O   0  0  0  0  0  0  0  0  0  0  0  0
   -1.9041   -1.0186    0.3602 N   0  0  0  0  0  0  0  0  0  0  0  0
   -2.6671   -0.5416   -0.0988 H   0  0  0  0  0  0  0  0  0  0  0  0
   -0.6131   -0.3236    0.3832 C   0  0  1  0  0  0  0  0  0  0  0  0
    0.1346   -0.9625   -0.0894 H   0  0  0  0  0  0  0  0  0  0  0  0
   -0.7253    0.9751   -0.4365 C   0  0  0  0  0  0  0  0  0  0  0  0
   -0.2242    0.8291   -1.3958 H   0  0  0  0  0  0  0  0  0  0  0  0
   -1.7775    1.1883   -0.6304 H   0  0  0  0  0  0  0  0  0  0  0  0
   -0.0982    2.1914    0.2544 C   0  0  0  0  0  0  0  0  0  0  0  0
   -0.4511    3.1002   -0.2321 H   0  0  0  0  0  0  0  0  0  0  0  0
   -0.4176    2.2053    1.2971 H   0  0  0  0  0  0  0  0  0  0  0  0
    1.7122    2.1975    0.2111 S   0  0  0  0  0  0  0  0  0  0  0  0
    2.0533    0.8082    1.3225 C   0  0  0  0  0  0  0  0  0  0  0  0
    1.6081   -0.1023    0.9203 H   0  0  0  0  0  0  0  0  0  0  0  0
    3.1316    0.6720    1.4105 H   0  0  0  0  0  0  0  0  0  0  0  0
    1.6363    1.0150    2.3085 H   0  0  0  0  0  0  0  0  0  0  0  0
   -0.1711   -0.0594    1.8296 C   0  0  0  0  0  0  0  0  0  0  0  0
    0.9865   -0.2908    2.1726 O   0  0  0  0  0  0  0  0  0  0  0  0
   -1.0921    0.4156    2.6780 N   0  0  0  0  0  0  0  0  0  0  0  0
   -2.0168    0.5953    2.3206 H   0  0  0  0  0  0  0  0  0  0  0  0
   -0.8319    0.7034    4.0877 C   0  0  0  0  0  0  0  0  0  0  0  0
   -0.0192    1.4288    4.1710 H   0  0  0  0  0  0  0  0  0  0  0  0
   -1.7255    1.1088    4.5641 H   0  0  0  0  0  0  0  0  0  0  0  0
   -0.5319   -0.2118    4.6011 H   0  0  0  0  0  0  0  0  0  0  0  0
  5  6  2  0  0  0  0
  5  7  1  0  0  0  0
  2  3  1  0  0  0  0
  2  4  1  0  0  0  0
  2  5  1  0  0  0  0
  1  2  1  0  0  0  0
 22 23  2  0  0  0  0
 22 24  1  0  0  0  0
 18 19  1  0  0  0  0
 18 20  1  0  0  0  0
 18 21  1  0  0  0  0
 17 18  1  0  0  0  0
 14 15  1  0  0  0  0
 14 16  1  0  0  0  0
 14 17  1  0  0  0  0
 11 12  1  0  0  0  0
 11 13  1  0  0  0  0
 11 14  1  0  0  0  0
  9 10  1  0  0  0  0
  9 11  1  0  0  0  0
  9 22  1  0  0  0  0
  7  8  1  0  0  0  0
  7  9  1  0  0  0  0
 26 27  1  0  0  0  0
 26 28  1  0  0  0  0
 26 29  1  0  0  0  0
 24 25  1  0  0  0  0
 24 26  1  0  0  0  0
M  END
$$$$
default_name
  -OEChem-02102213163D

 29 28  0     1  0  0  0  0  0999 V2000
   -3.5781   -3.7296    1.2702 H   0  0  0  0  0  0  0  0  0  0  0  0
   -3.5311   -2.7616    0.7732 C   0  0  0  0  0  0  0  0  0  0  0  0
   -4.2371   -2.0766    1.2382 H   0  0  0  0  0  0  0  0  0  0  0  0
   -3.7681   -2.8816   -0.2818 H   0  0  0  0  0  0  0  0  0  0  0  0
   -2.1321   -2.2086    0.9112 C   0  0  0  0  0  0  0  0  0  0  0  0
   -1.2751   -2.8426    1.5112 O   0  0  0  0  0  0  0  0  0  0  0  0
   -1.9041   -1.0186    0.3602 N   0  0  0  0  0  0  0  0  0  0  0  0
   -2.6671   -0.5416   -0.0988 H   0  0  0  0  0  0  0  0  0  0  0  0
   -0.6131   -0.3236    0.3832 C   0  0  1  0  0  0  0  0  0  0  0  0
    0.1346   -0.9625   -0.0894 H   0  0  0  0  0  0  0  0  0  0  0  0
   -0.7253    0.9751   -0.4365 C   0  0  0  0  0  0  0  0  0  0  0  0
   -0.2242    0.8291   -1.3958 H   0  0  0  0  0  0  0  0  0  0  0  0
   -1.7775    1.1883   -0.6304 H   0  0  0  0  0  0  0  0  0  0  0  0
   -0.0982    2.1914    0.2544 C   0  0  0  0  0  0  0  0  0  0  0  0
   -0.6400    3.0892   -0.0414 H   0  0  0  0  0  0  0  0  0  0  0  0
   -0.1893    2.0666    1.3340 H   0  0  0  0  0  0  0  0  0  0  0  0
    1.6511    2.4327   -0.1475 S   0  0  0  0  0  0  0  0  0  0  0  0
    2.3644    1.0004    0.7019 C   0  0  0  0  0  0  0  0  0  0  0  0
    1.9428    0.0822    0.2917 H   0  0  0  0  0  0  0  0  0  0  0  0
    3.4450    0.9954    0.5568 H   0  0  0  0  0  0  0  0  0  0  0  0
    2.1460    1.0589    1.7685 H   0  0  0  0  0  0  0  0  0  0  0  0
   -0.1711   -0.0594    1.8296 C   0  0  0  0  0  0  0  0  0  0  0  0
    0.9865   -0.2908    2.1726 O   0  0  0  0  0  0  0  0  0  0  0  0
   -1.0921    0.4156    2.6780 N   0  0  0  0  0  0  0  0  0  0  0  0
   -2.0168    0.5953    2.3206 H   0  0  0  0  0  0  0  0  0  0  0  0
   -0.8319    0.7034    4.0877 C   0  0  0  0  0  0  0  0  0  0  0  0
   -0.0192    1.4288    4.1710 H   0  0  0  0  0  0  0  0  0  0  0  0
   -1.7255    1.1088    4.5641 H   0  0  0  0  0  0  0  0  0  0  0  0
   -0.5319   -0.2118    4.6011 H   0  0  0  0  0  0  0  0  0  0  0  0
  5  6  2  0  0  0  0
  5  7  1  0  0  0  0
  2  3  1  0  0  0  0
  2  4  1  0  0  0  0
  2  5  1  0  0  0  0
  1  2  1  0  0  0  0
 22 23  2  0  0  0  0
 22 24  1  0  0  0  0
 18 19  1  0  0  0  0
 18 20  1  0  0  0  0
 18 21  1  0  0  0  0
 17 18  1  0  0  0  0
 14 15  1  0  0  0  0
 14 16  1  0  0  0  0
 14 17  1  0  0  0  0
 11 12  1  0  0  0  0
 11 13  1  0  0  0  0
 11 14  1  0  0  0  0
  9 10  1  0  0  0  0
  9 11  1  0  0  0  0
  9 22  1  0  0  0  0
  7  8  1  0  0  0  0
  7  9  1  0  0  0  0
 26 27  1  0  0  0  0
 26 28  1  0  0  0  0
 26 29  1  0  0  0  0
 24 25  1  0  0  0  0
 24 26  1  0  0  0  0
M  END
$$$$
default_name
  -OEChem-02102213163D

 29 28  0     1  0  0  0  0  0999 V2000
   -3.5781   -3.7296    1.2702 H   0  0  0  0  0  0  0  0  0  0  0  0
   -3.5311   -2.7616    0.7732 C   0  0  0  0  0  0  0  0  0  0  0  0
   -4.2371   -2.0766    1.2382 H   0  0  0  0  0  0  0  0  0  0  0  0
   -3.7681   -2.8816   -0.2818 H   0  0  0  0  0  0  0  0  0  0  0  0
   -2.1321   -2.2086    0.9112 C   0  0  0  0  0  0  0  0  0  0  0  0
   -1.2751   -2.8426    1.5112 O   0  0  0  0  0  0  0  0  0  0  0  0
   -1.9041   -1.0186    0.3602 N   0  0  0  0  0  0  0  0  0  0  0  0
   -2.6671   -0.5416   -0.0988 H   0  0  0  0  0  0  0  0  0  0  0  0
   -0.6131   -0.3236    0.3832 C   0  0  1  0  0  0  0  0  0  0  0  0
    0.1346   -0.9625   -0.0894 H   0  0  0  0  0  0  0  0  0  0  0  0
   -0.7253    0.9751   -0.4365 C   0  0  0  0  0  0  0  0  0  0  0  0
   -0.2242    0.8291   -1.3958 H   0  0  0  0  0  0  0  0  0  0  0  0
   -1.7775    1.1883   -0.6304 H   0  0  0  0  0  0  0  0  0  0  0  0
   -0.0982    2.1914    0.2544 C   0  0  0  0  0  0  0  0  0  0  0  0
   -0.7820    3.0364    0.1805 H   0  0  0  0  0  0  0  0  0  0  0  0
    0.0549    1.9554    1.3081 H   0  0  0  0  0  0  0  0  0  0  0  0
    1.4909    2.6907   -0.4563 S   0  0  0  0  0  0  0  0  0  0  0  0
    2.5150    1.2880    0.0589 C   0  0  0  0  0  0  0  0  0  0  0  0
    2.1155    0.3660   -0.3646 H   0  0  0  0  0  0  0  0  0  0  0  0
    3.5348    1.4347   -0.2980 H   0  0  0  0  0  0  0  0  0  0  0  0
    2.5224    1.2179    1.1469 H   0  0  0  0  0  0  0  0  0  0  0  0
   -0.1711   -0.0594    1.8296 C   0  0  0  0  0  0  0  0  0  0  0  0
    0.9865   -0.2908    2.1726 O   0  0  0  0  0  0  0  0  0  0  0  0
   -1.0921    0.4156    2.6780 N   0  0  0  0  0  0  0  0  0  0  0  0
   -2.0168    0.5953    2.3206 H   0  0  0  0  0  0  0  0  0  0  0  0
   -0.8319    0.7034    4.0877 C   0  0  0  0  0  0  0  0  0  0  0  0
   -0.0192    1.4288    4.1710 H   0  0  0  0  0  0  0  0  0  0  0  0
   -1.7255    1.1088    4.5641 H   0  0  0  0  0  0  0  0  0  0  0  0
   -0.5319   -0.2118    4.6011 H   0  0  0  0  0  0  0  0  0  0  0  0
  5  6  2  0  0  0  0
  5  7  1  0  0  0  0
  2  3  1  0  0  0  0
  2  4  1  0  0  0  0
  2  5  1  0  0  0  0
  1  2  1  0  0  0  0
 22 23  2  0  0  0  0
 22 24  1  0  0  0  0
 18 19  1  0  0  0  0
 18 20  1  0  0  0  0
 18 21  1  0  0  0  0
 17 18  1  0  0  0  0
 14 15  1  0  0  0  0
 14 16  1  0  0  0  0
 14 17  1  0  0  0  0
 11 12  1  0  0  0  0
 11 13  1  0  0  0  0
 11 14  1  0  0  0  0
  9 10  1  0  0  0  0
  9 11  1  0  0  0  0
  9 22  1  0  0  0  0
  7  8  1  0  0  0  0
  7  9  1  0  0  0  0
 26 27  1  0  0  0  0
 26 28  1  0  0  0  0
 26 29  1  0  0  0  0
 24 25  1  0  0  0  0
 24 26  1  0  0  0  0
M  END
$$$$
default_name
  -OEChem-02102213163D

 29 28  0     1  0  0  0  0  0999 V2000
   -3.5781   -3.7296    1.2702 H   0  0  0  0  0  0  0  0  0  0  0  0
   -3.5311   -2.7616    0.7732 C   0  0  0  0  0  0  0  0  0  0  0  0
   -4.2371   -2.0766    1.2382 H   0  0  0  0  0  0  0  0  0  0  0  0
   -3.7681   -2.8816   -0.2818 H   0  0  0  0  0  0  0  0  0  0  0  0
   -2.1321   -2.2086    0.9112 C   0  0  0  0  0  0  0  0  0  0  0  0
   -1.2751   -2.8426    1.5112 O   0  0  0  0  0  0  0  0  0  0  0  0
   -1.9041   -1.0186    0.3602 N   0  0  0  0  0  0  0  0  0  0  0  0
   -2.6671   -0.5416   -0.0988 H   0  0  0  0  0  0  0  0  0  0  0  0
   -0.6131   -0.3236    0.3832 C   0  0  1  0  0  0  0  0  0  0  0  0
    0.1346   -0.9625   -0.0894 H   0  0  0  0  0  0  0  0  0  0  0  0
   -0.7253    0.9751   -0.4365 C   0  0  0  0  0  0  0  0  0  0  0  0
   -0.2242    0.8291   -1.3958 H   0  0  0  0  0  0  0  0  0  0  0  0
   -1.7775    1.1883   -0.6304 H   0  0  0  0  0  0  0  0  0  0  0  0
   -0.0982    2.1914    0.2544 C   0  0  0  0  0  0  0  0  0  0  0  0
   -0.8675    2.9454    0.4184 H   0  0  0  0  0  0  0  0  0  0  0  0
    0.2985    1.8792    1.2212 H   0  0  0  0  0  0  0  0  0  0  0  0
    1.2427    2.9539   -0.6944 S   0  0  0  0  0  0  0  0  0  0  0  0
    2.4948    1.6514   -0.5627 C   0  0  0  0  0  0  0  0  0  0  0  0
    2.1144    0.7297   -1.0040 H   0  0  0  0  0  0  0  0  0  0  0  0
    3.3947    1.9599   -1.0956 H   0  0  0  0  0  0  0  0  0  0  0  0
    2.7397    1.4813    0.4861 H   0  0  0  0  0  0  0  0  0  0  0  0
   -0.1711   -0.0594    1.8296 C   0  0  0  0  0  0  0  0  0  0  0  0
    0.9865   -0.2908    2.1726 O   0  0  0  0  0  0  0  0  0  0  0  0
   -1.0921    0.4156    2.6780 N   0  0  0  0  0  0  0  0  0  0  0  0
   -2.0168    0.5953    2.3206 H   0  0  0  0  0  0  0  0  0  0  0  0
   -0.8319    0.7034    4.0877 C   0  0  0  0  0  0  0  0  0  0  0  0
   -0.0192    1.4288    4.1710 H   0  0  0  0  0  0  0  0  0  0  0  0
   -1.7255    1.1088    4.5641 H   0  0  0  0  0  0  0  0  0  0  0  0
   -0.5319   -0.2118    4.6011 H   0  0  0  0  0  0  0  0  0  0  0  0
  5  6  2  0  0  0  0
  5  7  1  0  0  0  0
  2  3  1  0  0  0  0
  2  4  1  0  0  0  0
  2  5  1  0  0  0  0
  1  2  1  0  0  0  0
 22 23  2  0  0  0  0
 22 24  1  0  0  0  0
 18 19  1  0  0  0  0
 18 20  1  0  0  0  0
 18 21  1  0  0  0  0
 17 18  1  0  0  0  0
 14 15  1  0  0  0  0
 14 16  1  0  0  0  0
 14 17  1  0  0  0  0
 11 12  1  0  0  0  0
 11 13  1  0  0  0  0
 11 14  1  0  0  0  0
  9 10  1  0  0  0  0
  9 11  1  0  0  0  0
  9 22  1  0  0  0  0
  7  8  1  0  0  0  0
  7  9  1  0  0  0  0
 26 27  1  0  0  0  0
 26 28  1  0  0  0  0
 26 29  1  0  0  0  0
 24 25  1  0  0  0  0
 24 26  1  0  0  0  0
M  END
$$$$
default_name
  -OEChem-02102213163D

 29 28  0     1  0  0  0  0  0999 V2000
   -3.5781   -3.7296    1.2702 H   0  0  0  0  0  0  0  0  0  0  0  0
   -3.5311   -2.7616    0.7732 C   0  0  0  0  0  0  0  0  0  0  0  0
   -4.2371   -2.0766    1.2382 H   0  0  0  0  0  0  0  0  0  0  0  0
   -3.7681   -2.8816   -0.2818 H   0  0  0  0  0  0  0  0  0  0  0  0
   -2.1321   -2.2086    0.9112 C   0  0  0  0  0  0  0  0  0  0  0  0
   -1.2751   -2.8426    1.5112 O   0  0  0  0  0  0  0  0  0  0  0  0
   -1.9041   -1.0186    0.3602 N   0  0  0  0  0  0  0  0  0  0  0  0
   -2.6671   -0.5416   -0.0988 H   0  0  0  0  0  0  0  0  0  0  0  0
   -0.6131   -0.3236    0.3832 C   0  0  1  0  0  0  0  0  0  0  0  0
    0.1346   -0.9625   -0.0894 H   0  0  0  0  0  0  0  0  0  0  0  0
   -0.7253    0.9751   -0.4365 C   0  0  0  0  0  0  0  0  0  0  0  0
   -0.2242    0.8291   -1.3958 H   0  0  0  0  0  0  0  0  0  0  0  0
   -1.7775    1.1883   -0.6304 H   0  0  0  0  0  0  0  0  0  0  0  0
   -0.0982    2.1914    0.2544 C   0  0  0  0  0  0  0  0  0  0  0  0
   -0.8906    2.8222    0.6561 H   0  0  0  0  0  0  0  0  0  0  0  0
    0.5248    1.8433    1.0791 H   0  0  0  0  0  0  0  0  0  0  0  0
    0.9233    3.2044   -0.8456 S   0  0  0  0  0  0  0  0  0  0  0  0
    2.3053    2.0660   -1.1205 C   0  0  0  0  0  0  0  0  0  0  0  0
    1.9397    1.1487   -1.5829 H   0  0  0  0  0  0  0  0  0  0  0  0
    3.0343    2.5354   -1.7816 H   0  0  0  0  0  0  0  0  0  0  0  0
    2.7832    1.8309   -0.1690 H   0  0  0  0  0  0  0  0  0  0  0  0
   -0.1711   -0.0594    1.8296 C   0  0  0  0  0  0  0  0  0  0  0  0
    0.9865   -0.2908    2.1726 O   0  0  0  0  0  0  0  0  0  0  0  0
   -1.0921    0.4156    2.6780 N   0  0  0  0  0  0  0  0  0  0  0  0
   -2.0168    0.5953    2.3206 H   0  0  0  0  0  0  0  0  0  0  0  0
   -0.8319    0.7034    4.0877 C   0  0  0  0  0  0  0  0  0  0  0  0
   -0.0192    1.4288    4.1710 H   0  0  0  0  0  0  0  0  0  0  0  0
   -1.7255    1.1088    4.5641 H   0  0  0  0  0  0  0  0  0  0  0  0
   -0.5319   -0.2118    4.6011 H   0  0  0  0  0  0  0  0  0  0  0  0
  5  6  2  0  0  0  0
  5  7  1  0  0  0  0
  2  3  1  0  0  0  0
  2  4  1  0  0  0  0
  2  5  1  0  0  0  0
  1  2  1  0  0  0  0
 22 23  2  0  0  0  0
 22 24  1  0  0  0  0
 18 19  1  0  0  0  0
 18 20  1  0  0  0  0
 18 21  1  0  0  0  0
 17 18  1  0  0  0  0
 14 15  1  0  0  0  0
 14 16  1  0  0  0  0
 14 17  1  0  0  0  0
 11 12  1  0  0  0  0
 11 13  1  0  0  0  0
 11 14  1  0  0  0  0
  9 10  1  0  0  0  0
  9 11  1  0  0  0  0
  9 22  1  0  0  0  0
  7  8  1  0  0  0  0
  7  9  1  0  0  0  0
 26 27  1  0  0  0  0
 26 28  1  0  0  0  0
 26 29  1  0  0  0  0
 24 25  1  0  0  0  0
 24 26  1  0  0  0  0
M  END
$$$$
default_name
  -OEChem-02102213163D

 29 28  0     1  0  0  0  0  0999 V2000
   -3.5781   -3.7296    1.2702 H   0  0  0  0  0  0  0  0  0  0  0  0
   -3.5311   -2.7616    0.7732 C   0  0  0  0  0  0  0  0  0  0  0  0
   -4.2371   -2.0766    1.2382 H   0  0  0  0  0  0  0  0  0  0  0  0
   -3.7681   -2.8816   -0.2818 H   0  0  0  0  0  0  0  0  0  0  0  0
   -2.1321   -2.2086    0.9112 C   0  0  0  0  0  0  0  0  0  0  0  0
   -1.2751   -2.8426    1.5112 O   0  0  0  0  0  0  0  0  0  0  0  0
   -1.9041   -1.0186    0.3602 N   0  0  0  0  0  0  0  0  0  0  0  0
   -2.6671   -0.5416   -0.0988 H   0  0  0  0  0  0  0  0  0  0  0  0
   -0.6131   -0.3236    0.3832 C   0  0  1  0  0  0  0  0  0  0  0  0
    0.1346   -0.9625   -0.0894 H   0  0  0  0  0  0  0  0  0  0  0  0
   -0.7253    0.9751   -0.4365 C   0  0  0  0  0  0  0  0  0  0  0  0
   -0.2242    0.8291   -1.3958 H   0  0  0  0  0  0  0  0  0  0  0  0
   -1.7775    1.1883   -0.6304 H   0  0  0  0  0  0  0  0  0  0  0  0
   -0.0982    2.1914    0.2544 C   0  0  0  0  0  0  0  0  0  0  0  0
   -0.8497    2.6755    0.8774 H   0  0  0  0  0  0  0  0  0  0  0  0
    0.7184    1.8500    0.8916 H   0  0  0  0  0  0  0  0  0  0  0  0
    0.5545    3.4252   -0.8994 S   0  0  0  0  0  0  0  0  0  0  0  0
    1.9594    2.5033   -1.5764 C   0  0  0  0  0  0  0  0  0  0  0  0
    1.6031    1.5942   -2.0618 H   0  0  0  0  0  0  0  0  0  0  0  0
    2.4782    3.1218   -2.3093 H   0  0  0  0  0  0  0  0  0  0  0  0
    2.6499    2.2431   -0.7737 H   0  0  0  0  0  0  0  0  0  0  0  0
   -0.1711   -0.0594    1.8296 C   0  0  0  0  0  0  0  0  0  0  0  0
    0.9865   -0.2908    2.1726 O   0  0  0  0  0  0  0  0  0  0  0  0
   -1.0921    0.4156    2.6780 N   0  0  0  0  0  0  0  0  0  0  0  0
   -2.0168    0.5953    2.3206 H   0  0  0  0  0  0  0  0  0  0  0  0
   -0.8319    0.7034    4.0877 C   0  0  0  0  0  0  0  0  0  0  0  0
   -0.0192    1.4288    4.1710 H   0  0  0  0  0  0  0  0  0  0  0  0
   -1.7255    1.1088    4.5641 H   0  0  0  0  0  0  0  0  0  0  0  0
   -0.5319   -0.2118    4.6011 H   0  0  0  0  0  0  0  0  0  0  0  0
  5  6  2  0  0  0  0
  5  7  1  0  0  0  0
  2  3  1  0  0  0  0
  2  4  1  0  0  0  0
  2  5  1  0  0  0  0
  1  2  1  0  0  0  0
 22 23  2  0  0  0  0
 22 24  1  0  0  0  0
 18 19  1  0  0  0  0
 18 20  1  0  0  0  0
 18 21  1  0  0  0  0
 17 18  1  0  0  0  0
 14 15  1  0  0  0  0
 14 16  1  0  0  0  0
 14 17  1  0  0  0  0
 11 12  1  0  0  0  0
 11 13  1  0  0  0  0
 11 14  1  0  0  0  0
  9 10  1  0  0  0  0
  9 11  1  0  0  0  0
  9 22  1  0  0  0  0
  7  8  1  0  0  0  0
  7  9  1  0  0  0  0
 26 27  1  0  0  0  0
 26 28  1  0  0  0  0
 26 29  1  0  0  0  0
 24 25  1  0  0  0  0
 24 26  1  0  0  0  0
M  END
$$$$
default_name
  -OEChem-02102213163D

 29 28  0     1  0  0  0  0  0999 V2000
   -3.5781   -3.7296    1.2702 H   0  0  0  0  0  0  0  0  0  0  0  0
   -3.5311   -2.7616    0.7732 C   0  0  0  0  0  0  0  0  0  0  0  0
   -4.2371   -2.0766    1.2382 H   0  0  0  0  0  0  0  0  0  0  0  0
   -3.7681   -2.8816   -0.2818 H   0  0  0  0  0  0  0  0  0  0  0  0
   -2.1321   -2.2086    0.9112 C   0  0  0  0  0  0  0  0  0  0  0  0
   -1.2751   -2.8426    1.5112 O   0  0  0  0  0  0  0  0  0  0  0  0
   -1.9041   -1.0186    0.3602 N   0  0  0  0  0  0  0  0  0  0  0  0
   -2.6671   -0.5416   -0.0988 H   0  0  0  0  0  0  0  0  0  0  0  0
   -0.6131   -0.3236    0.3832 C   0  0  1  0  0  0  0  0  0  0  0  0
    0.1346   -0.9625   -0.0894 H   0  0  0  0  0  0  0  0  0  0  0  0
   -0.7253    0.9751   -0.4365 C   0  0  0  0  0  0  0  0  0  0  0  0
   -0.2242    0.8291   -1.3958 H   0  0  0  0  0  0  0  0  0  0  0  0
   -1.7775    1.1883   -0.6304 H   0  0  0  0  0  0  0  0  0  0  0  0
   -0.0982    2.1914    0.2544 C   0  0  0  0  0  0  0  0  0  0  0  0
   -0.7477    2.5150    1.0673 H   0  0  0  0  0  0  0  0  0  0  0  0
    0.8661    1.8989    0.6714 H   0  0  0  0  0  0  0  0  0  0  0  0
    0.1615    3.6011   -0.8524 S   0  0  0  0  0  0  0  0  0  0  0  0
    1.4806    2.9337   -1.8995 C   0  0  0  0  0  0  0  0  0  0  0  0
    1.1277    2.0360   -2.4081 H   0  0  0  0  0  0  0  0  0  0  0  0
    1.7642    3.6793   -2.6428 H   0  0  0  0  0  0  0  0  0  0  0  0
    2.3489    2.6898   -1.2867 H   0  0  0  0  0  0  0  0  0  0  0  0
   -0.1711   -0.0594    1.8296 C   0  0  0  0  0  0  0  0  0  0  0  0
    0.9865   -0.2908    2.1726 O   0  0  0  0  0  0  0  0  0  0  0  0
   -1.0921    0.4156    2.6780 N   0  0  0  0  0  0  0  0  0  0  0  0
   -2.0168    0.5953    2.3206 H   0  0  0  0  0  0  0  0  0  0  0  0
   -0.8319    0.7034    4.0877 C   0  0  0  0  0  0  0  0  0  0  0  0
   -0.0192    1.4288    4.1710 H   0  0  0  0  0  0  0  0  0  0  0  0
   -1.7255    1.1088    4.5641 H   0  0  0  0  0  0  0  0  0  0  0  0
   -0.5319   -0.2118    4.6011 H   0  0  0  0  0  0  0  0  0  0  0  0
  5  6  2  0  0  0  0
  5  7  1  0  0  0  0
  2  3  1  0  0  0  0
  2  4  1  0  0  0  0
  2  5  1  0  0  0  0
  1  2  1  0  0  0  0
 22 23  2  0  0  0  0
 22 24  1  0  0  0  0
 18 19  1  0  0  0  0
 18 20  1  0  0  0  0
 18 21  1  0  0  0  0
 17 18  1  0  0  0  0
 14 15  1  0  0  0  0
 14 16  1  0  0  0  0
 14 17  1  0  0  0  0
 11 12  1  0  0  0  0
 11 13  1  0  0  0  0
 11 14  1  0  0  0  0
  9 10  1  0  0  0  0
  9 11  1  0  0  0  0
  9 22  1  0  0  0  0
  7  8  1  0  0  0  0
  7  9  1  0  0  0  0
 26 27  1  0  0  0  0
 26 28  1  0  0  0  0
 26 29  1  0  0  0  0
 24 25  1  0  0  0  0
 24 26  1  0  0  0  0
M  END
$$$$
default_name
  -OEChem-02102213163D

 29 28  0     1  0  0  0  0  0999 V2000
   -3.5781   -3.7296    1.2702 H   0  0  0  0  0  0  0  0  0  0  0  0
   -3.5311   -2.7616    0.7732 C   0  0  0  0  0  0  0  0  0  0  0  0
   -4.2371   -2.0766    1.2382 H   0  0  0  0  0  0  0  0  0  0  0  0
   -3.7681   -2.8816   -0.2818 H   0  0  0  0  0  0  0  0  0  0  0  0
   -2.1321   -2.2086    0.9112 C   0  0  0  0  0  0  0  0  0  0  0  0
   -1.2751   -2.8426    1.5112 O   0  0  0  0  0  0  0  0  0  0  0  0
   -1.9041   -1.0186    0.3602 N   0  0  0  0  0  0  0  0  0  0  0  0
   -2.6671   -0.5416   -0.0988 H   0  0  0  0  0  0  0  0  0  0  0  0
   -0.6131   -0.3236    0.3832 C   0  0  1  0  0  0  0  0  0  0  0  0
    0.1346   -0.9625   -0.0894 H   0  0  0  0  0  0  0  0  0  0  0  0
   -0.7253    0.9751   -0.4365 C   0  0  0  0  0  0  0  0  0  0  0  0
   -0.4717    0.7570   -1.4761 H   0  0  0  0  0  0  0  0  0  0  0  0
   -1.7555    1.3327   -0.4047 H   0  0  0  0  0  0  0  0  0  0  0  0
    0.1973    2.0942    0.0600 C   0  0  0  0  0  0  0  0  0  0  0  0
   -0.0469    2.3254    1.0963 H   0  0  0  0  0  0  0  0  0  0  0  0
    1.2292    1.7444    0.0126 H   0  0  0  0  0  0  0  0  0  0  0  0
    0.0672    3.6227   -0.9025 S   0  0  0  0  0  0  0  0  0  0  0  0
    0.8074    3.0712   -2.4612 C   0  0  0  0  0  0  0  0  0  0  0  0
    0.2273    2.2440   -2.8714 H   0  0  0  0  0  0  0  0  0  0  0  0
    0.8080    3.8970   -3.1732 H   0  0  0  0  0  0  0  0  0  0  0  0
    1.8338    2.7473   -2.2867 H   0  0  0  0  0  0  0  0  0  0  0  0
   -0.1711   -0.0594    1.8296 C   0  0  0  0  0  0  0  0  0  0  0  0
    0.9865   -0.2908    2.1726 O   0  0  0  0  0  0  0  0  0  0  0  0
   -1.0921    0.4156    2.6780 N   0  0  0  0  0  0  0  0  0  0  0  0
   -2.0168    0.5953    2.3206 H   0  0  0  0  0  0  0  0  0  0  0  0
   -0.8319    0.7034    4.0877 C   0  0  0  0  0  0  0  0  0  0  0  0
   -0.0192    1.4288    4.1710 H   0  0  0  0  0  0  0  0  0  0  0  0
   -1.7255    1.1088    4.5641 H   0  0  0  0  0  0  0  0  0  0  0  0
   -0.5319   -0.2118    4.6011 H   0  0  0  0  0  0  0  0  0  0  0  0
  5  6  2  0  0  0  0
  5  7  1  0  0  0  0
  2  3  1  0  0  0  0
  2  4  1  0  0  0  0
  2  5  1  0  0  0  0
  1  2  1  0  0  0  0
 22 23  2  0  0  0  0
 22 24  1  0  0  0  0
 18 19  1  0  0  0  0
 18 20  1  0  0  0  0
 18 21  1  0  0  0  0
 17 18  1  0  0  0  0
 14 15  1  0  0  0  0
 14 16  1  0  0  0  0
 14 17  1  0  0  0  0
 11 12  1  0  0  0  0
 11 13  1  0  0  0  0
 11 14  1  0  0  0  0
  9 10  1  0  0  0  0
  9 11  1  0  0  0  0
  9 22  1  0  0  0  0
  7  8  1  0  0  0  0
  7  9  1  0  0  0  0
 26 27  1  0  0  0  0
 26 28  1  0  0  0  0
 26 29  1  0  0  0  0
 24 25  1  0  0  0  0
 24 26  1  0  0  0  0
M  END
$$$$
default_name
  -OEChem-02102213163D

 29 28  0     1  0  0  0  0  0999 V2000
   -3.5781   -3.7296    1.2702 H   0  0  0  0  0  0  0  0  0  0  0  0
   -3.5311   -2.7616    0.7732 C   0  0  0  0  0  0  0  0  0  0  0  0
   -4.2371   -2.0766    1.2382 H   0  0  0  0  0  0  0  0  0  0  0  0
   -3.7681   -2.8816   -0.2818 H   0  0  0  0  0  0  0  0  0  0  0  0
   -2.1321   -2.2086    0.9112 C   0  0  0  0  0  0  0  0  0  0  0  0
   -1.2751   -2.8426    1.5112 O   0  0  0  0  0  0  0  0  0  0  0  0
   -1.9041   -1.0186    0.3602 N   0  0  0  0  0  0  0  0  0  0  0  0
   -2.6671   -0.5416   -0.0988 H   0  0  0  0  0  0  0  0  0  0  0  0
   -0.6131   -0.3236    0.3832 C   0  0  1  0  0  0  0  0  0  0  0  0
    0.1346   -0.9625   -0.0894 H   0  0  0  0  0  0  0  0  0  0  0  0
   -0.7253    0.9751   -0.4365 C   0  0  0  0  0  0  0  0  0  0  0  0
   -0.4717    0.7570   -1.4761 H   0  0  0  0  0  0  0  0  0  0  0  0
   -1.7555    1.3327   -0.4047 H   0  0  0  0  0  0  0  0  0  0  0  0
    0.1973    2.0942    0.0600 C   0  0  0  0  0  0  0  0  0  0  0  0
    0.1451    2.1446    1.1471 H   0  0  0  0  0  0  0  0  0  0  0  0
    1.2216    1.8589   -0.2314 H   0  0  0  0  0  0  0  0  0  0  0  0
   -0.2235    3.7277   -0.5990 S   0  0  0  0  0  0  0  0  0  0  0  0
    0.2338    3.4883   -2.3355 C   0  0  0  0  0  0  0  0  0  0  0  0
   -0.3570    2.6776   -2.7629 H   0  0  0  0  0  0  0  0  0  0  0  0
    0.0383    4.4062   -2.8906 H   0  0  0  0  0  0  0  0  0  0  0  0
    1.2943    3.2452   -2.4065 H   0  0  0  0  0  0  0  0  0  0  0  0
   -0.1711   -0.0594    1.8296 C   0  0  0  0  0  0  0  0  0  0  0  0
    0.9865   -0.2908    2.1726 O   0  0  0  0  0  0  0  0  0  0  0  0
   -1.0921    0.4156    2.6780 N   0  0  0  0  0  0  0  0  0  0  0  0
   -2.0168    0.5953    2.3206 H   0  0  0  0  0  0  0  0  0  0  0  0
   -0.8319    0.7034    4.0877 C   0  0  0  0  0  0  0  0  0  0  0  0
   -0.0192    1.4288    4.1710 H   0  0  0  0  0  0  0  0  0  0  0  0
   -1.7255    1.1088    4.5641 H   0  0  0  0  0  0  0  0  0  0  0  0
   -0.5319   -0.2118    4.6011 H   0  0  0  0  0  0  0  0  0  0  0  0
  5  6  2  0  0  0  0
  5  7  1  0  0  0  0
  2  3  1  0  0  0  0
  2  4  1  0  0  0  0
  2  5  1  0  0  0  0
  1  2  1  0  0  0  0
 22 23  2  0  0  0  0
 22 24  1  0  0  0  0
 18 19  1  0  0  0  0
 18 20  1  0  0  0  0
 18 21  1  0  0  0  0
 17 18  1  0  0  0  0
 14 15  1  0  0  0  0
 14 16  1  0  0  0  0
 14 17  1  0  0  0  0
 11 12  1  0  0  0  0
 11 13  1  0  0  0  0
 11 14  1  0  0  0  0
  9 10  1  0  0  0  0
  9 11  1  0  0  0  0
  9 22  1  0  0  0  0
  7  8  1  0  0  0  0
  7  9  1  0  0  0  0
 26 27  1  0  0  0  0
 26 28  1  0  0  0  0
 26 29  1  0  0  0  0
 24 25  1  0  0  0  0
 24 26  1  0  0  0  0
M  END
$$$$
default_name
  -OEChem-02102213163D

 29 28  0     1  0  0  0  0  0999 V2000
   -3.5781   -3.7296    1.2702 H   0  0  0  0  0  0  0  0  0  0  0  0
   -3.5311   -2.7616    0.7732 C   0  0  0  0  0  0  0  0  0  0  0  0
   -4.2371   -2.0766    1.2382 H   0  0  0  0  0  0  0  0  0  0  0  0
   -3.7681   -2.8816   -0.2818 H   0  0  0  0  0  0  0  0  0  0  0  0
   -2.1321   -2.2086    0.9112 C   0  0  0  0  0  0  0  0  0  0  0  0
   -1.2751   -2.8426    1.5112 O   0  0  0  0  0  0  0  0  0  0  0  0
   -1.9041   -1.0186    0.3602 N   0  0  0  0  0  0  0  0  0  0  0  0
   -2.6671   -0.5416   -0.0988 H   0  0  0  0  0  0  0  0  0  0  0  0
   -0.6131   -0.3236    0.3832 C   0  0  1  0  0  0  0  0  0  0  0  0
    0.1346   -0.9625   -0.0894 H   0  0  0  0  0  0  0  0  0  0  0  0
   -0.7253    0.9751   -0.4365 C   0  0  0  0  0  0  0  0  0  0  0  0
   -0.4717    0.7570   -1.4761 H   0  0  0  0  0  0  0  0  0  0  0  0
   -1.7555    1.3327   -0.4047 H   0  0  0  0  0  0  0  0  0  0  0  0
    0.1973    2.0942    0.0600 C   0  0  0  0  0  0  0  0  0  0  0  0
    0.3554    1.9780    1.1317 H   0  0  0  0  0  0  0  0  0  0  0  0
    1.1585    2.0068   -0.4478 H   0  0  0  0  0  0  0  0  0  0  0  0
   -0.4557    3.7575   -0.2346 S   0  0  0  0  0  0  0  0  0  0  0  0
   -0.3315    3.8236   -2.0407 C   0  0  0  0  0  0  0  0  0  0  0  0
   -0.9372    3.0305   -2.4802 H   0  0  0  0  0  0  0  0  0  0  0  0
   -0.6945    4.7895   -2.3929 H   0  0  0  0  0  0  0  0  0  0  0  0
    0.7089    3.6996   -2.3427 H   0  0  0  0  0  0  0  0  0  0  0  0
   -0.1711   -0.0594    1.8296 C   0  0  0  0  0  0  0  0  0  0  0  0
    0.9865   -0.2908    2.1726 O   0  0  0  0  0  0  0  0  0  0  0  0
   -1.0921    0.4156    2.6780 N   0  0  0  0  0  0  0  0  0  0  0  0
   -2.0168    0.5953    2.3206 H   0  0  0  0  0  0  0  0  0  0  0  0
   -0.8319    0.7034    4.0877 C   0  0  0  0  0  0  0  0  0  0  0  0
   -0.0192    1.4288    4.1710 H   0  0  0  0  0  0  0  0  0  0  0  0
   -1.7255    1.1088    4.5641 H   0  0  0  0  0  0  0  0  0  0  0  0
   -0.5319   -0.2118    4.6011 H   0  0  0  0  0  0  0  0  0  0  0  0
  5  6  2  0  0  0  0
  5  7  1  0  0  0  0
  2  3  1  0  0  0  0
  2  4  1  0  0  0  0
  2  5  1  0  0  0  0
  1  2  1  0  0  0  0
 22 23  2  0  0  0  0
 22 24  1  0  0  0  0
 18 19  1  0  0  0  0
 18 20  1  0  0  0  0
 18 21  1  0  0  0  0
 17 18  1  0  0  0  0
 14 15  1  0  0  0  0
 14 16  1  0  0  0  0
 14 17  1  0  0  0  0
 11 12  1  0  0  0  0
 11 13  1  0  0  0  0
 11 14  1  0  0  0  0
  9 10  1  0  0  0  0
  9 11  1  0  0  0  0
  9 22  1  0  0  0  0
  7  8  1  0  0  0  0
  7  9  1  0  0  0  0
 26 27  1  0  0  0  0
 26 28  1  0  0  0  0
 26 29  1  0  0  0  0
 24 25  1  0  0  0  0
 24 26  1  0  0  0  0
M  END
$$$$
default_name
  -OEChem-02102213163D

 29 28  0     1  0  0  0  0  0999 V2000
   -3.5781   -3.7296    1.2702 H   0  0  0  0  0  0  0  0  0  0  0  0
   -3.5311   -2.7616    0.7732 C   0  0  0  0  0  0  0  0  0  0  0  0
   -4.2371   -2.0766    1.2382 H   0  0  0  0  0  0  0  0  0  0  0  0
   -3.7681   -2.8816   -0.2818 H   0  0  0  0  0  0  0  0  0  0  0  0
   -2.1321   -2.2086    0.9112 C   0  0  0  0  0  0  0  0  0  0  0  0
   -1.2751   -2.8426    1.5112 O   0  0  0  0  0  0  0  0  0  0  0  0
   -1.9041   -1.0186    0.3602 N   0  0  0  0  0  0  0  0  0  0  0  0
   -2.6671   -0.5416   -0.0988 H   0  0  0  0  0  0  0  0  0  0  0  0
   -0.6131   -0.3236    0.3832 C   0  0  1  0  0  0  0  0  0  0  0  0
    0.1346   -0.9625   -0.0894 H   0  0  0  0  0  0  0  0  0  0  0  0
   -0.7253    0.9751   -0.4365 C   0  0  0  0  0  0  0  0  0  0  0  0
   -0.4717    0.7570   -1.4761 H   0  0  0  0  0  0  0  0  0  0  0  0
   -1.7555    1.3327   -0.4047 H   0  0  0  0  0  0  0  0  0  0  0  0
    0.1973    2.0942    0.0600 C   0  0  0  0  0  0  0  0  0  0  0  0
    0.5696    1.8372    1.0512 H   0  0  0  0  0  0  0  0  0  0  0  0
    1.0443    2.1782   -0.6219 H   0  0  0  0  0  0  0  0  0  0  0  0
   -0.6136    3.7100    0.1659 S   0  0  0  0  0  0  0  0  0  0  0  0
   -0.8499    4.0541   -1.5969 C   0  0  0  0  0  0  0  0  0  0  0  0
   -1.4738    3.2787   -2.0425 H   0  0  0  0  0  0  0  0  0  0  0  0
   -1.3404    5.0208   -1.7139 H   0  0  0  0  0  0  0  0  0  0  0  0
    0.1173    4.0795   -2.0997 H   0  0  0  0  0  0  0  0  0  0  0  0
   -0.1711   -0.0594    1.8296 C   0  0  0  0  0  0  0  0  0  0  0  0
    0.9865   -0.2908    2.1726 O   0  0  0  0  0  0  0  0  0  0  0  0
   -1.0921    0.4156    2.6780 N   0  0  0  0  0  0  0  0  0  0  0  0
   -2.0168    0.5953    2.3206 H   0  0  0  0  0  0  0  0  0  0  0  0
   -0.8319    0.7034    4.0877 C   0  0  0  0  0  0  0  0  0  0  0  0
   -0.0192    1.4288    4.1710 H   0  0  0  0  0  0  0  0  0  0  0  0
   -1.7255    1.1088    4.5641 H   0  0  0  0  0  0  0  0  0  0  0  0
   -0.5319   -0.2118    4.6011 H   0  0  0  0  0  0  0  0  0  0  0  0
  5  6  2  0  0  0  0
  5  7  1  0  0  0  0
  2  3  1  0  0  0  0
  2  4  1  0  0  0  0
  2  5  1  0  0  0  0
  1  2  1  0  0  0  0
 22 23  2  0  0  0  0
 22 24  1  0  0  0  0
 18 19  1  0  0  0  0
 18 20  1  0  0  0  0
 18 21  1  0  0  0  0
 17 18  1  0  0  0  0
 14 15  1  0  0  0  0
 14 16  1  0  0  0  0
 14 17  1  0  0  0  0
 11 12  1  0  0  0  0
 11 13  1  0  0  0  0
 11 14  1  0  0  0  0
  9 10  1  0  0  0  0
  9 11  1  0  0  0  0
  9 22  1  0  0  0  0
  7  8  1  0  0  0  0
  7  9  1  0  0  0  0
 26 27  1  0  0  0  0
 26 28  1  0  0  0  0
 26 29  1  0  0  0  0
 24 25  1  0  0  0  0
 24 26  1  0  0  0  0
M  END
$$$$
default_name
  -OEChem-02102213163D

 29 28  0     1  0  0  0  0  0999 V2000
   -3.5781   -3.7296    1.2702 H   0  0  0  0  0  0  0  0  0  0  0  0
   -3.5311   -2.7616    0.7732 C   0  0  0  0  0  0  0  0  0  0  0  0
   -4.2371   -2.0766    1.2382 H   0  0  0  0  0  0  0  0  0  0  0  0
   -3.7681   -2.8816   -0.2818 H   0  0  0  0  0  0  0  0  0  0  0  0
   -2.1321   -2.2086    0.9112 C   0  0  0  0  0  0  0  0  0  0  0  0
   -1.2751   -2.8426    1.5112 O   0  0  0  0  0  0  0  0  0  0  0  0
   -1.9041   -1.0186    0.3602 N   0  0  0  0  0  0  0  0  0  0  0  0
   -2.6671   -0.5416   -0.0988 H   0  0  0  0  0  0  0  0  0  0  0  0
   -0.6131   -0.3236    0.3832 C   0  0  1  0  0  0  0  0  0  0  0  0
    0.1346   -0.9625   -0.0894 H   0  0  0  0  0  0  0  0  0  0  0  0
   -0.7253    0.9751   -0.4365 C   0  0  0  0  0  0  0  0  0  0  0  0
   -0.4717    0.7570   -1.4761 H   0  0  0  0  0  0  0  0  0  0  0  0
   -1.7555    1.3327   -0.4047 H   0  0  0  0  0  0  0  0  0  0  0  0
    0.1973    2.0942    0.0600 C   0  0  0  0  0  0  0  0  0  0  0  0
    0.7731    1.7316    0.9110 H   0  0  0  0  0  0  0  0  0  0  0  0
    0.8868    2.3612   -0.7417 H   0  0  0  0  0  0  0  0  0  0  0  0
   -0.6865    3.5886    0.5752 S   0  0  0  0  0  0  0  0  0  0  0  0
   -1.2862    4.1642   -1.0344 C   0  0  0  0  0  0  0  0  0  0  0  0
   -1.9303    3.4053   -1.4797 H   0  0  0  0  0  0  0  0  0  0  0  0
   -1.8554    5.0844   -0.9000 H   0  0  0  0  0  0  0  0  0  0  0  0
   -0.4400    4.3590   -1.6940 H   0  0  0  0  0  0  0  0  0  0  0  0
   -0.1711   -0.0594    1.8296 C   0  0  0  0  0  0  0  0  0  0  0  0
    0.9865   -0.2908    2.1726 O   0  0  0  0  0  0  0  0  0  0  0  0
   -1.0921    0.4156    2.6780 N   0  0  0  0  0  0  0  0  0  0  0  0
   -2.0168    0.5953    2.3206 H   0  0  0  0  0  0  0  0  0  0  0  0
   -0.8319    0.7034    4.0877 C   0  0  0  0  0  0  0  0  0  0  0  0
   -0.0192    1.4288    4.1710 H   0  0  0  0  0  0  0  0  0  0  0  0
   -1.7255    1.1088    4.5641 H   0  0  0  0  0  0  0  0  0  0  0  0
   -0.5319   -0.2118    4.6011 H   0  0  0  0  0  0  0  0  0  0  0  0
  5  6  2  0  0  0  0
  5  7  1  0  0  0  0
  2  3  1  0  0  0  0
  2  4  1  0  0  0  0
  2  5  1  0  0  0  0
  1  2  1  0  0  0  0
 22 23  2  0  0  0  0
 22 24  1  0  0  0  0
 18 19  1  0  0  0  0
 18 20  1  0  0  0  0
 18 21  1  0  0  0  0
 17 18  1  0  0  0  0
 14 15  1  0  0  0  0
 14 16  1  0  0  0  0
 14 17  1  0  0  0  0
 11 12  1  0  0  0  0
 11 13  1  0  0  0  0
 11 14  1  0  0  0  0
  9 10  1  0  0  0  0
  9 11  1  0  0  0  0
  9 22  1  0  0  0  0
  7  8  1  0  0  0  0
  7  9  1  0  0  0  0
 26 27  1  0  0  0  0
 26 28  1  0  0  0  0
 26 29  1  0  0  0  0
 24 25  1  0  0  0  0
 24 26  1  0  0  0  0
M  END
$$$$
default_name
  -OEChem-02102213163D

 29 28  0     1  0  0  0  0  0999 V2000
   -3.5781   -3.7296    1.2702 H   0  0  0  0  0  0  0  0  0  0  0  0
   -3.5311   -2.7616    0.7732 C   0  0  0  0  0  0  0  0  0  0  0  0
   -4.2371   -2.0766    1.2382 H   0  0  0  0  0  0  0  0  0  0  0  0
   -3.7681   -2.8816   -0.2818 H   0  0  0  0  0  0  0  0  0  0  0  0
   -2.1321   -2.2086    0.9112 C   0  0  0  0  0  0  0  0  0  0  0  0
   -1.2751   -2.8426    1.5112 O   0  0  0  0  0  0  0  0  0  0  0  0
   -1.9041   -1.0186    0.3602 N   0  0  0  0  0  0  0  0  0  0  0  0
   -2.6671   -0.5416   -0.0988 H   0  0  0  0  0  0  0  0  0  0  0  0
   -0.6131   -0.3236    0.3832 C   0  0  1  0  0  0  0  0  0  0  0  0
    0.1346   -0.9625   -0.0894 H   0  0  0  0  0  0  0  0  0  0  0  0
   -0.7253    0.9751   -0.4365 C   0  0  0  0  0  0  0  0  0  0  0  0
   -0.4717    0.7570   -1.4761 H   0  0  0  0  0  0  0  0  0  0  0  0
   -1.7555    1.3327   -0.4047 H   0  0  0  0  0  0  0  0  0  0  0  0
    0.1973    2.0942    0.0600 C   0  0  0  0  0  0  0  0  0  0  0  0
    0.9520    1.6686    0.7206 H   0  0  0  0  0  0  0  0  0  0  0  0
    0.6966    2.5435   -0.7992 H   0  0  0  0  0  0  0  0  0  0  0  0
   -0.6694    3.4014    0.9654 S   0  0  0  0  0  0  0  0  0  0  0  0
   -1.6105    4.1464   -0.3915 C   0  0  0  0  0  0  0  0  0  0  0  0
   -2.2754    3.4017   -0.8300 H   0  0  0  0  0  0  0  0  0  0  0  0
   -2.2044    4.9758   -0.0067 H   0  0  0  0  0  0  0  0  0  0  0  0
   -0.9251    4.5190   -1.1533 H   0  0  0  0  0  0  0  0  0  0  0  0
   -0.1711   -0.0594    1.8296 C   0  0  0  0  0  0  0  0  0  0  0  0
    0.9865   -0.2908    2.1726 O   0  0  0  0  0  0  0  0  0  0  0  0
   -1.0921    0.4156    2.6780 N   0  0  0  0  0  0  0  0  0  0  0  0
   -2.0168    0.5953    2.3206 H   0  0  0  0  0  0  0  0  0  0  0  0
   -0.8319    0.7034    4.0877 C   0  0  0  0  0  0  0  0  0  0  0  0
   -0.0192    1.4288    4.1710 H   0  0  0  0  0  0  0  0  0  0  0  0
   -1.7255    1.1088    4.5641 H   0  0  0  0  0  0  0  0  0  0  0  0
   -0.5319   -0.2118    4.6011 H   0  0  0  0  0  0  0  0  0  0  0  0
  5  6  2  0  0  0  0
  5  7  1  0  0  0  0
  2  3  1  0  0  0  0
  2  4  1  0  0  0  0
  2  5  1  0  0  0  0
  1  2  1  0  0  0  0
 22 23  2  0  0  0  0
 22 24  1  0  0  0  0
 18 19  1  0  0  0  0
 18 20  1  0  0  0  0
 18 21  1  0  0  0  0
 17 18  1  0  0  0  0
 14 15  1  0  0  0  0
 14 16  1  0  0  0  0
 14 17  1  0  0  0  0
 11 12  1  0  0  0  0
 11 13  1  0  0  0  0
 11 14  1  0  0  0  0
  9 10  1  0  0  0  0
  9 11  1  0  0  0  0
  9 22  1  0  0  0  0
  7  8  1  0  0  0  0
  7  9  1  0  0  0  0
 26 27  1  0  0  0  0
 26 28  1  0  0  0  0
 26 29  1  0  0  0  0
 24 25  1  0  0  0  0
 24 26  1  0  0  0  0
M  END
$$$$
default_name
  -OEChem-02102213163D

 29 28  0     1  0  0  0  0  0999 V2000
   -3.5781   -3.7296    1.2702 H   0  0  0  0  0  0  0  0  0  0  0  0
   -3.5311   -2.7616    0.7732 C   0  0  0  0  0  0  0  0  0  0  0  0
   -4.2371   -2.0766    1.2382 H   0  0  0  0  0  0  0  0  0  0  0  0
   -3.7681   -2.8816   -0.2818 H   0  0  0  0  0  0  0  0  0  0  0  0
   -2.1321   -2.2086    0.9112 C   0  0  0  0  0  0  0  0  0  0  0  0
   -1.2751   -2.8426    1.5112 O   0  0  0  0  0  0  0  0  0  0  0  0
   -1.9041   -1.0186    0.3602 N   0  0  0  0  0  0  0  0  0  0  0  0
   -2.6671   -0.5416   -0.0988 H   0  0  0  0  0  0  0  0  0  0  0  0
   -0.6131   -0.3236    0.3832 C   0  0  1  0  0  0  0  0  0  0  0  0
    0.1346   -0.9625   -0.0894 H   0  0  0  0  0  0  0  0  0  0  0  0
   -0.7253    0.9751   -0.4365 C   0  0  0  0  0  0  0  0  0  0  0  0
   -0.4717    0.7570   -1.4761 H   0  0  0  0  0  0  0  0  0  0  0  0
   -1.7555    1.3327   -0.4047 H   0  0  0  0  0  0  0  0  0  0  0  0
    0.1973    2.0942    0.0600 C   0  0  0  0  0  0  0  0  0  0  0  0
    1.0941    1.6523    0.4932 H   0  0  0  0  0  0  0  0  0  0  0  0
    0.4868    2.7126   -0.7905 H   0  0  0  0  0  0  0  0  0  0  0  0
   -0.5635    3.1612    1.3099 S   0  0  0  0  0  0  0  0  0  0  0  0
   -1.8008    4.0018    0.2880 C   0  0  0  0  0  0  0  0  0  0  0  0
   -2.4858    3.2681   -0.1379 H   0  0  0  0  0  0  0  0  0  0  0  0
   -2.3636    4.7025    0.9052 H   0  0  0  0  0  0  0  0  0  0  0  0
   -1.3050    4.5488   -0.5144 H   0  0  0  0  0  0  0  0  0  0  0  0
   -0.1711   -0.0594    1.8296 C   0  0  0  0  0  0  0  0  0  0  0  0
    0.9865   -0.2908    2.1726 O   0  0  0  0  0  0  0  0  0  0  0  0
   -1.0921    0.4156    2.6780 N   0  0  0  0  0  0  0  0  0  0  0  0
   -2.0168    0.5953    2.3206 H   0  0  0  0  0  0  0  0  0  0  0  0
   -0.8319    0.7034    4.0877 C   0  0  0  0  0  0  0  0  0  0  0  0
   -0.0192    1.4288    4.1710 H   0  0  0  0  0  0  0  0  0  0  0  0
   -1.7255    1.1088    4.5641 H   0  0  0  0  0  0  0  0  0  0  0  0
   -0.5319   -0.2118    4.6011 H   0  0  0  0  0  0  0  0  0  0  0  0
  5  6  2  0  0  0  0
  5  7  1  0  0  0  0
  2  3  1  0  0  0  0
  2  4  1  0  0  0  0
  2  5  1  0  0  0  0
  1  2  1  0  0  0  0
 22 23  2  0  0  0  0
 22 24  1  0  0  0  0
 18 19  1  0  0  0  0
 18 20  1  0  0  0  0
 18 21  1  0  0  0  0
 17 18  1  0  0  0  0
 14 15  1  0  0  0  0
 14 16  1  0  0  0  0
 14 17  1  0  0  0  0
 11 12  1  0  0  0  0
 11 13  1  0  0  0  0
 11 14  1  0  0  0  0
  9 10  1  0  0  0  0
  9 11  1  0  0  0  0
  9 22  1  0  0  0  0
  7  8  1  0  0  0  0
  7  9  1  0  0  0  0
 26 27  1  0  0  0  0
 26 28  1  0  0  0  0
 26 29  1  0  0  0  0
 24 25  1  0  0  0  0
 24 26  1  0  0  0  0
M  END
$$$$
default_name
  -OEChem-02102213163D

 29 28  0     1  0  0  0  0  0999 V2000
   -3.5781   -3.7296    1.2702 H   0  0  0  0  0  0  0  0  0  0  0  0
   -3.5311   -2.7616    0.7732 C   0  0  0  0  0  0  0  0  0  0  0  0
   -4.2371   -2.0766    1.2382 H   0  0  0  0  0  0  0  0  0  0  0  0
   -3.7681   -2.8816   -0.2818 H   0  0  0  0  0  0  0  0  0  0  0  0
   -2.1321   -2.2086    0.9112 C   0  0  0  0  0  0  0  0  0  0  0  0
   -1.2751   -2.8426    1.5112 O   0  0  0  0  0  0  0  0  0  0  0  0
   -1.9041   -1.0186    0.3602 N   0  0  0  0  0  0  0  0  0  0  0  0
   -2.6671   -0.5416   -0.0988 H   0  0  0  0  0  0  0  0  0  0  0  0
   -0.6131   -0.3236    0.3832 C   0  0  1  0  0  0  0  0  0  0  0  0
    0.1346   -0.9625   -0.0894 H   0  0  0  0  0  0  0  0  0  0  0  0
   -0.7253    0.9751   -0.4365 C   0  0  0  0  0  0  0  0  0  0  0  0
   -0.4717    0.7570   -1.4761 H   0  0  0  0  0  0  0  0  0  0  0  0
   -1.7555    1.3327   -0.4047 H   0  0  0  0  0  0  0  0  0  0  0  0
    0.1973    2.0942    0.0600 C   0  0  0  0  0  0  0  0  0  0  0  0
    1.1898    1.6840    0.2441 H   0  0  0  0  0  0  0  0  0  0  0  0
    0.2716    2.8570   -0.7160 H   0  0  0  0  0  0  0  0  0  0  0  0
   -0.3759    2.8844    1.5853 S   0  0  0  0  0  0  0  0  0  0  0  0
   -1.8441    3.7404    0.9578 C   0  0  0  0  0  0  0  0  0  0  0  0
   -2.5470    3.0136    0.5496 H   0  0  0  0  0  0  0  0  0  0  0  0
   -2.3222    4.2832    1.7736 H   0  0  0  0  0  0  0  0  0  0  0  0
   -1.5536    4.4461    0.1791 H   0  0  0  0  0  0  0  0  0  0  0  0
   -0.1711   -0.0594    1.8296 C   0  0  0  0  0  0  0  0  0  0  0  0
    0.9865   -0.2908    2.1726 O   0  0  0  0  0  0  0  0  0  0  0  0
   -1.0921    0.4156    2.6780 N   0  0  0  0  0  0  0  0  0  0  0  0
   -2.0168    0.5953    2.3206 H   0  0  0  0  0  0  0  0  0  0  0  0
   -0.8319    0.7034    4.0877 C   0  0  0  0  0  0  0  0  0  0  0  0
   -0.0192    1.4288    4.1710 H   0  0  0  0  0  0  0  0  0  0  0  0
   -1.7255    1.1088    4.5641 H   0  0  0  0  0  0  0  0  0  0  0  0
   -0.5319   -0.2118    4.6011 H   0  0  0  0  0  0  0  0  0  0  0  0
  5  6  2  0  0  0  0
  5  7  1  0  0  0  0
  2  3  1  0  0  0  0
  2  4  1  0  0  0  0
  2  5  1  0  0  0  0
  1  2  1  0  0  0  0
 22 23  2  0  0  0  0
 22 24  1  0  0  0  0
 18 19  1  0  0  0  0
 18 20  1  0  0  0  0
 18 21  1  0  0  0  0
 17 18  1  0  0  0  0
 14 15  1  0  0  0  0
 14 16  1  0  0  0  0
 14 17  1  0  0  0  0
 11 12  1  0  0  0  0
 11 13  1  0  0  0  0
 11 14  1  0  0  0  0
  9 10  1  0  0  0  0
  9 11  1  0  0  0  0
  9 22  1  0  0  0  0
  7  8  1  0  0  0  0
  7  9  1  0  0  0  0
 26 27  1  0  0  0  0
 26 28  1  0  0  0  0
 26 29  1  0  0  0  0
 24 25  1  0  0  0  0
 24 26  1  0  0  0  0
M  END
$$$$
default_name
  -OEChem-02102213163D

 29 28  0     1  0  0  0  0  0999 V2000
   -3.5781   -3.7296    1.2702 H   0  0  0  0  0  0  0  0  0  0  0  0
   -3.5311   -2.7616    0.7732 C   0  0  0  0  0  0  0  0  0  0  0  0
   -4.2371   -2.0766    1.2382 H   0  0  0  0  0  0  0  0  0  0  0  0
   -3.7681   -2.8816   -0.2818 H   0  0  0  0  0  0  0  0  0  0  0  0
   -2.1321   -2.2086    0.9112 C   0  0  0  0  0  0  0  0  0  0  0  0
   -1.2751   -2.8426    1.5112 O   0  0  0  0  0  0  0  0  0  0  0  0
   -1.9041   -1.0186    0.3602 N   0  0  0  0  0  0  0  0  0  0  0  0
   -2.6671   -0.5416   -0.0988 H   0  0  0  0  0  0  0  0  0  0  0  0
   -0.6131   -0.3236    0.3832 C   0  0  1  0  0  0  0  0  0  0  0  0
    0.1346   -0.9625   -0.0894 H   0  0  0  0  0  0  0  0  0  0  0  0
   -0.7253    0.9751   -0.4365 C   0  0  0  0  0  0  0  0  0  0  0  0
   -0.4717    0.7570   -1.4761 H   0  0  0  0  0  0  0  0  0  0  0  0
   -1.7555    1.3327   -0.4047 H   0  0  0  0  0  0  0  0  0  0  0  0
    0.1973    2.0942    0.0600 C   0  0  0  0  0  0  0  0  0  0  0  0
    1.2324    1.7613   -0.0097 H   0  0  0  0  0  0  0  0  0  0  0  0
    0.0657    2.9668   -0.5809 H   0  0  0  0  0  0  0  0  0  0  0  0
   -0.1195    2.5899    1.7727 S   0  0  0  0  0  0  0  0  0  0  0  0
   -1.7374    3.3799    1.5723 C   0  0  0  0  0  0  0  0  0  0  0  0
   -2.4549    2.6556    1.1855 H   0  0  0  0  0  0  0  0  0  0  0  0
   -2.0830    3.7463    2.5393 H   0  0  0  0  0  0  0  0  0  0  0  0
   -1.6542    4.2182    0.8799 H   0  0  0  0  0  0  0  0  0  0  0  0
   -0.1711   -0.0594    1.8296 C   0  0  0  0  0  0  0  0  0  0  0  0
    0.9865   -0.2908    2.1726 O   0  0  0  0  0  0  0  0  0  0  0  0
   -1.0921    0.4156    2.6780 N   0  0  0  0  0  0  0  0  0  0  0  0
   -2.0168    0.5953    2.3206 H   0  0  0  0  0  0  0  0  0  0  0  0
   -0.8319    0.7034    4.0877 C   0  0  0  0  0  0  0  0  0  0  0  0
   -0.0192    1.4288    4.1710 H   0  0  0  0  0  0  0  0  0  0  0  0
   -1.7255    1.1088    4.5641 H   0  0  0  0  0  0  0  0  0  0  0  0
   -0.5319   -0.2118    4.6011 H   0  0  0  0  0  0  0  0  0  0  0  0
  5  6  2  0  0  0  0
  5  7  1  0  0  0  0
  2  3  1  0  0  0  0
  2  4  1  0  0  0  0
  2  5  1  0  0  0  0
  1  2  1  0  0  0  0
 22 23  2  0  0  0  0
 22 24  1  0  0  0  0
 18 19  1  0  0  0  0
 18 20  1  0  0  0  0
 18 21  1  0  0  0  0
 17 18  1  0  0  0  0
 14 15  1  0  0  0  0
 14 16  1  0  0  0  0
 14 17  1  0  0  0  0
 11 12  1  0  0  0  0
 11 13  1  0  0  0  0
 11 14  1  0  0  0  0
  9 10  1  0  0  0  0
  9 11  1  0  0  0  0
  9 22  1  0  0  0  0
  7  8  1  0  0  0  0
  7  9  1  0  0  0  0
 26 27  1  0  0  0  0
 26 28  1  0  0  0  0
 26 29  1  0  0  0  0
 24 25  1  0  0  0  0
 24 26  1  0  0  0  0
M  END
$$$$
default_name
  -OEChem-02102213163D

 29 28  0     1  0  0  0  0  0999 V2000
   -3.5781   -3.7296    1.2702 H   0  0  0  0  0  0  0  0  0  0  0  0
   -3.5311   -2.7616    0.7732 C   0  0  0  0  0  0  0  0  0  0  0  0
   -4.2371   -2.0766    1.2382 H   0  0  0  0  0  0  0  0  0  0  0  0
   -3.7681   -2.8816   -0.2818 H   0  0  0  0  0  0  0  0  0  0  0  0
   -2.1321   -2.2086    0.9112 C   0  0  0  0  0  0  0  0  0  0  0  0
   -1.2751   -2.8426    1.5112 O   0  0  0  0  0  0  0  0  0  0  0  0
   -1.9041   -1.0186    0.3602 N   0  0  0  0  0  0  0  0  0  0  0  0
   -2.6671   -0.5416   -0.0988 H   0  0  0  0  0  0  0  0  0  0  0  0
   -0.6131   -0.3236    0.3832 C   0  0  1  0  0  0  0  0  0  0  0  0
    0.1346   -0.9625   -0.0894 H   0  0  0  0  0  0  0  0  0  0  0  0
   -0.7253    0.9751   -0.4365 C   0  0  0  0  0  0  0  0  0  0  0  0
   -0.4717    0.7570   -1.4761 H   0  0  0  0  0  0  0  0  0  0  0  0
   -1.7555    1.3327   -0.4047 H   0  0  0  0  0  0  0  0  0  0  0  0
    0.1973    2.0942    0.0600 C   0  0  0  0  0  0  0  0  0  0  0  0
    1.2192    1.8792   -0.2508 H   0  0  0  0  0  0  0  0  0  0  0  0
   -0.1168    3.0346   -0.3944 H   0  0  0  0  0  0  0  0  0  0  0  0
    0.1882    2.2978    1.8595 S   0  0  0  0  0  0  0  0  0  0  0  0
   -1.4881    2.9450    2.0895 C   0  0  0  0  0  0  0  0  0  0  0  0
   -2.2157    2.2184    1.7267 H   0  0  0  0  0  0  0  0  0  0  0  0
   -1.6623    3.1286    3.1500 H   0  0  0  0  0  0  0  0  0  0  0  0
   -1.5998    3.8803    1.5404 H   0  0  0  0  0  0  0  0  0  0  0  0
   -0.1711   -0.0594    1.8296 C   0  0  0  0  0  0  0  0  0  0  0  0
    0.9865   -0.2908    2.1726 O   0  0  0  0  0  0  0  0  0  0  0  0
   -1.0921    0.4156    2.6780 N   0  0  0  0  0  0  0  0  0  0  0  0
   -2.0168    0.5953    2.3206 H   0  0  0  0  0  0  0  0  0  0  0  0
   -0.8319    0.7034    4.0877 C   0  0  0  0  0  0  0  0  0  0  0  0
   -0.0192    1.4288    4.1710 H   0  0  0  0  0  0  0  0  0  0  0  0
   -1.7255    1.1088    4.5641 H   0  0  0  0  0  0  0  0  0  0  0  0
   -0.5319   -0.2118    4.6011 H   0  0  0  0  0  0  0  0  0  0  0  0
  5  6  2  0  0  0  0
  5  7  1  0  0  0  0
  2  3  1  0  0  0  0
  2  4  1  0  0  0  0
  2  5  1  0  0  0  0
  1  2  1  0  0  0  0
 22 23  2  0  0  0  0
 22 24  1  0  0  0  0
 18 19  1  0  0  0  0
 18 20  1  0  0  0  0
 18 21  1  0  0  0  0
 17 18  1  0  0  0  0
 14 15  1  0  0  0  0
 14 16  1  0  0  0  0
 14 17  1  0  0  0  0
 11 12  1  0  0  0  0
 11 13  1  0  0  0  0
 11 14  1  0  0  0  0
  9 10  1  0  0  0  0
  9 11  1  0  0  0  0
  9 22  1  0  0  0  0
  7  8  1  0  0  0  0
  7  9  1  0  0  0  0
 26 27  1  0  0  0  0
 26 28  1  0  0  0  0
 26 29  1  0  0  0  0
 24 25  1  0  0  0  0
 24 26  1  0  0  0  0
M  END
$$$$
default_name
  -OEChem-02102213163D

 29 28  0     1  0  0  0  0  0999 V2000
   -3.5781   -3.7296    1.2702 H   0  0  0  0  0  0  0  0  0  0  0  0
   -3.5311   -2.7616    0.7732 C   0  0  0  0  0  0  0  0  0  0  0  0
   -4.2371   -2.0766    1.2382 H   0  0  0  0  0  0  0  0  0  0  0  0
   -3.7681   -2.8816   -0.2818 H   0  0  0  0  0  0  0  0  0  0  0  0
   -2.1321   -2.2086    0.9112 C   0  0  0  0  0  0  0  0  0  0  0  0
   -1.2751   -2.8426    1.5112 O   0  0  0  0  0  0  0  0  0  0  0  0
   -1.9041   -1.0186    0.3602 N   0  0  0  0  0  0  0  0  0  0  0  0
   -2.6671   -0.5416   -0.0988 H   0  0  0  0  0  0  0  0  0  0  0  0
   -0.6131   -0.3236    0.3832 C   0  0  1  0  0  0  0  0  0  0  0  0
    0.1346   -0.9625   -0.0894 H   0  0  0  0  0  0  0  0  0  0  0  0
   -0.7253    0.9751   -0.4365 C   0  0  0  0  0  0  0  0  0  0  0  0
   -0.4717    0.7570   -1.4761 H   0  0  0  0  0  0  0  0  0  0  0  0
   -1.7555    1.3327   -0.4047 H   0  0  0  0  0  0  0  0  0  0  0  0
    0.1973    2.0942    0.0600 C   0  0  0  0  0  0  0  0  0  0  0  0
    1.1511    2.0294   -0.4628 H   0  0  0  0  0  0  0  0  0  0  0  0
   -0.2636    3.0557   -0.1693 H   0  0  0  0  0  0  0  0  0  0  0  0
    0.5264    2.0278    1.8396 S   0  0  0  0  0  0  0  0  0  0  0  0
   -1.1131    2.4651    2.4742 C   0  0  0  0  0  0  0  0  0  0  0  0
   -1.8458    1.7318    2.1361 H   0  0  0  0  0  0  0  0  0  0  0  0
   -1.0887    2.4720    3.5642 H   0  0  0  0  0  0  0  0  0  0  0  0
   -1.3942    3.4557    2.1155 H   0  0  0  0  0  0  0  0  0  0  0  0
   -0.1711   -0.0594    1.8296 C   0  0  0  0  0  0  0  0  0  0  0  0
    0.9865   -0.2908    2.1726 O   0  0  0  0  0  0  0  0  0  0  0  0
   -1.0921    0.4156    2.6780 N   0  0  0  0  0  0  0  0  0  0  0  0
   -2.0168    0.5953    2.3206 H   0  0  0  0  0  0  0  0  0  0  0  0
   -0.8319    0.7034    4.0877 C   0  0  0  0  0  0  0  0  0  0  0  0
   -0.0192    1.4288    4.1710 H   0  0  0  0  0  0  0  0  0  0  0  0
   -1.7255    1.1088    4.5641 H   0  0  0  0  0  0  0  0  0  0  0  0
   -0.5319   -0.2118    4.6011 H   0  0  0  0  0  0  0  0  0  0  0  0
  5  6  2  0  0  0  0
  5  7  1  0  0  0  0
  2  3  1  0  0  0  0
  2  4  1  0  0  0  0
  2  5  1  0  0  0  0
  1  2  1  0  0  0  0
 22 23  2  0  0  0  0
 22 24  1  0  0  0  0
 18 19  1  0  0  0  0
 18 20  1  0  0  0  0
 18 21  1  0  0  0  0
 17 18  1  0  0  0  0
 14 15  1  0  0  0  0
 14 16  1  0  0  0  0
 14 17  1  0  0  0  0
 11 12  1  0  0  0  0
 11 13  1  0  0  0  0
 11 14  1  0  0  0  0
  9 10  1  0  0  0  0
  9 11  1  0  0  0  0
  9 22  1  0  0  0  0
  7  8  1  0  0  0  0
  7  9  1  0  0  0  0
 26 27  1  0  0  0  0
 26 28  1  0  0  0  0
 26 29  1  0  0  0  0
 24 25  1  0  0  0  0
 24 26  1  0  0  0  0
M  END
$$$$
default_name
  -OEChem-02102213163D

 29 28  0     1  0  0  0  0  0999 V2000
   -3.5781   -3.7296    1.2702 H   0  0  0  0  0  0  0  0  0  0  0  0
   -3.5311   -2.7616    0.7732 C   0  0  0  0  0  0  0  0  0  0  0  0
   -4.2371   -2.0766    1.2382 H   0  0  0  0  0  0  0  0  0  0  0  0
   -3.7681   -2.8816   -0.2818 H   0  0  0  0  0  0  0  0  0  0  0  0
   -2.1321   -2.2086    0.9112 C   0  0  0  0  0  0  0  0  0  0  0  0
   -1.2751   -2.8426    1.5112 O   0  0  0  0  0  0  0  0  0  0  0  0
   -1.9041   -1.0186    0.3602 N   0  0  0  0  0  0  0  0  0  0  0  0
   -2.6671   -0.5416   -0.0988 H   0  0  0  0  0  0  0  0  0  0  0  0
   -0.6131   -0.3236    0.3832 C   0  0  1  0  0  0  0  0  0  0  0  0
    0.1346   -0.9625   -0.0894 H   0  0  0  0  0  0  0  0  0  0  0  0
   -0.7253    0.9751   -0.4365 C   0  0  0  0  0  0  0  0  0  0  0  0
   -0.4717    0.7570   -1.4761 H   0  0  0  0  0  0  0  0  0  0  0  0
   -1.7555    1.3327   -0.4047 H   0  0  0  0  0  0  0  0  0  0  0  0
    0.1973    2.0942    0.0600 C   0  0  0  0  0  0  0  0  0  0  0  0
    1.0325    2.2019   -0.6314 H   0  0  0  0  0  0  0  0  0  0  0  0
   -0.3646    3.0287    0.0793 H   0  0  0  0  0  0  0  0  0  0  0  0
    0.8718    1.7985    1.7144 S   0  0  0  0  0  0  0  0  0  0  0  0
   -0.6380    1.9732    2.7002 C   0  0  0  0  0  0  0  0  0  0  0  0
   -1.3704    1.2291    2.3859 H   0  0  0  0  0  0  0  0  0  0  0  0
   -0.4014    1.8213    3.7537 H   0  0  0  0  0  0  0  0  0  0  0  0
   -1.0513    2.9732    2.5660 H   0  0  0  0  0  0  0  0  0  0  0  0
   -0.1711   -0.0594    1.8296 C   0  0  0  0  0  0  0  0  0  0  0  0
    0.9865   -0.2908    2.1726 O   0  0  0  0  0  0  0  0  0  0  0  0
   -1.0921    0.4156    2.6780 N   0  0  0  0  0  0  0  0  0  0  0  0
   -2.0168    0.5953    2.3206 H   0  0  0  0  0  0  0  0  0  0  0  0
   -0.8319    0.7034    4.0877 C   0  0  0  0  0  0  0  0  0  0  0  0
   -0.0192    1.4288    4.1710 H   0  0  0  0  0  0  0  0  0  0  0  0
   -1.7255    1.1088    4.5641 H   0  0  0  0  0  0  0  0  0  0  0  0
   -0.5319   -0.2118    4.6011 H   0  0  0  0  0  0  0  0  0  0  0  0
  5  6  2  0  0  0  0
  5  7  1  0  0  0  0
  2  3  1  0  0  0  0
  2  4  1  0  0  0  0
  2  5  1  0  0  0  0
  1  2  1  0  0  0  0
 22 23  2  0  0  0  0
 22 24  1  0  0  0  0
 18 19  1  0  0  0  0
 18 20  1  0  0  0  0
 18 21  1  0  0  0  0
 17 18  1  0  0  0  0
 14 15  1  0  0  0  0
 14 16  1  0  0  0  0
 14 17  1  0  0  0  0
 11 12  1  0  0  0  0
 11 13  1  0  0  0  0
 11 14  1  0  0  0  0
  9 10  1  0  0  0  0
  9 11  1  0  0  0  0
  9 22  1  0  0  0  0
  7  8  1  0  0  0  0
  7  9  1  0  0  0  0
 26 27  1  0  0  0  0
 26 28  1  0  0  0  0
 26 29  1  0  0  0  0
 24 25  1  0  0  0  0
 24 26  1  0  0  0  0
M  END
$$$$
default_name
  -OEChem-02102213163D

 29 28  0     1  0  0  0  0  0999 V2000
   -3.5781   -3.7296    1.2702 H   0  0  0  0  0  0  0  0  0  0  0  0
   -3.5311   -2.7616    0.7732 C   0  0  0  0  0  0  0  0  0  0  0  0
   -4.2371   -2.0766    1.2382 H   0  0  0  0  0  0  0  0  0  0  0  0
   -3.7681   -2.8816   -0.2818 H   0  0  0  0  0  0  0  0  0  0  0  0
   -2.1321   -2.2086    0.9112 C   0  0  0  0  0  0  0  0  0  0  0  0
   -1.2751   -2.8426    1.5112 O   0  0  0  0  0  0  0  0  0  0  0  0
   -1.9041   -1.0186    0.3602 N   0  0  0  0  0  0  0  0  0  0  0  0
   -2.6671   -0.5416   -0.0988 H   0  0  0  0  0  0  0  0  0  0  0  0
   -0.6131   -0.3236    0.3832 C   0  0  1  0  0  0  0  0  0  0  0  0
    0.1346   -0.9625   -0.0894 H   0  0  0  0  0  0  0  0  0  0  0  0
   -0.7253    0.9751   -0.4365 C   0  0  0  0  0  0  0  0  0  0  0  0
   -0.4717    0.7570   -1.4761 H   0  0  0  0  0  0  0  0  0  0  0  0
   -1.7555    1.3327   -0.4047 H   0  0  0  0  0  0  0  0  0  0  0  0
    0.1973    2.0942    0.0600 C   0  0  0  0  0  0  0  0  0  0  0  0
    0.8718    2.3848   -0.7449 H   0  0  0  0  0  0  0  0  0  0  0  0
   -0.4130    2.9555    0.3342 H   0  0  0  0  0  0  0  0  0  0  0  0
    1.2011    1.6255    1.4926 S   0  0  0  0  0  0  0  0  0  0  0  0
   -0.0951    1.5026    2.7521 C   0  0  0  0  0  0  0  0  0  0  0  0
   -0.8219    0.7445    2.4590 H   0  0  0  0  0  0  0  0  0  0  0  0
    0.3529    1.2209    3.7055 H   0  0  0  0  0  0  0  0  0  0  0  0
   -0.5945    2.4657    2.8611 H   0  0  0  0  0  0  0  0  0  0  0  0
   -0.1711   -0.0594    1.8296 C   0  0  0  0  0  0  0  0  0  0  0  0
    0.9865   -0.2908    2.1726 O   0  0  0  0  0  0  0  0  0  0  0  0
   -1.0921    0.4156    2.6780 N   0  0  0  0  0  0  0  0  0  0  0  0
   -2.0168    0.5953    2.3206 H   0  0  0  0  0  0  0  0  0  0  0  0
   -0.8319    0.7034    4.0877 C   0  0  0  0  0  0  0  0  0  0  0  0
   -0.0192    1.4288    4.1710 H   0  0  0  0  0  0  0  0  0  0  0  0
   -1.7255    1.1088    4.5641 H   0  0  0  0  0  0  0  0  0  0  0  0
   -0.5319   -0.2118    4.6011 H   0  0  0  0  0  0  0  0  0  0  0  0
  5  6  2  0  0  0  0
  5  7  1  0  0  0  0
  2  3  1  0  0  0  0
  2  4  1  0  0  0  0
  2  5  1  0  0  0  0
  1  2  1  0  0  0  0
 22 23  2  0  0  0  0
 22 24  1  0  0  0  0
 18 19  1  0  0  0  0
 18 20  1  0  0  0  0
 18 21  1  0  0  0  0
 17 18  1  0  0  0  0
 14 15  1  0  0  0  0
 14 16  1  0  0  0  0
 14 17  1  0  0  0  0
 11 12  1  0  0  0  0
 11 13  1  0  0  0  0
 11 14  1  0  0  0  0
  9 10  1  0  0  0  0
  9 11  1  0  0  0  0
  9 22  1  0  0  0  0
  7  8  1  0  0  0  0
  7  9  1  0  0  0  0
 26 27  1  0  0  0  0
 26 28  1  0  0  0  0
 26 29  1  0  0  0  0
 24 25  1  0  0  0  0
 24 26  1  0  0  0  0
M  END
$$$$
default_name
  -OEChem-02102213163D

 29 28  0     1  0  0  0  0  0999 V2000
   -3.5781   -3.7296    1.2702 H   0  0  0  0  0  0  0  0  0  0  0  0
   -3.5311   -2.7616    0.7732 C   0  0  0  0  0  0  0  0  0  0  0  0
   -4.2371   -2.0766    1.2382 H   0  0  0  0  0  0  0  0  0  0  0  0
   -3.7681   -2.8816   -0.2818 H   0  0  0  0  0  0  0  0  0  0  0  0
   -2.1321   -2.2086    0.9112 C   0  0  0  0  0  0  0  0  0  0  0  0
   -1.2751   -2.8426    1.5112 O   0  0  0  0  0  0  0  0  0  0  0  0
   -1.9041   -1.0186    0.3602 N   0  0  0  0  0  0  0  0  0  0  0  0
   -2.6671   -0.5416   -0.0988 H   0  0  0  0  0  0  0  0  0  0  0  0
   -0.6131   -0.3236    0.3832 C   0  0  1  0  0  0  0  0  0  0  0  0
    0.1346   -0.9625   -0.0894 H   0  0  0  0  0  0  0  0  0  0  0  0
   -0.7253    0.9751   -0.4365 C   0  0  0  0  0  0  0  0  0  0  0  0
   -0.4717    0.7570   -1.4761 H   0  0  0  0  0  0  0  0  0  0  0  0
   -1.7555    1.3327   -0.4047 H   0  0  0  0  0  0  0  0  0  0  0  0
    0.1973    2.0942    0.0600 C   0  0  0  0  0  0  0  0  0  0  0  0
    0.6797    2.5657   -0.7957 H   0  0  0  0  0  0  0  0  0  0  0  0
   -0.4054    2.8410    0.5782 H   0  0  0  0  0  0  0  0  0  0  0  0
    1.4918    1.5205    1.1891 S   0  0  0  0  0  0  0  0  0  0  0  0
    0.4785    1.0855    2.6264 C   0  0  0  0  0  0  0  0  0  0  0  0
   -0.2376    0.3109    2.3505 H   0  0  0  0  0  0  0  0  0  0  0  0
    1.1226    0.7117    3.4228 H   0  0  0  0  0  0  0  0  0  0  0  0
   -0.0550    1.9678    2.9809 H   0  0  0  0  0  0  0  0  0  0  0  0
   -0.1711   -0.0594    1.8296 C   0  0  0  0  0  0  0  0  0  0  0  0
    0.9865   -0.2908    2.1726 O   0  0  0  0  0  0  0  0  0  0  0  0
   -1.0921    0.4156    2.6780 N   0  0  0  0  0  0  0  0  0  0  0  0
   -2.0168    0.5953    2.3206 H   0  0  0  0  0  0  0  0  0  0  0  0
   -0.8319    0.7034    4.0877 C   0  0  0  0  0  0  0  0  0  0  0  0
   -0.0192    1.4288    4.1710 H   0  0  0  0  0  0  0  0  0  0  0  0
   -1.7255    1.1088    4.5641 H   0  0  0  0  0  0  0  0  0  0  0  0
   -0.5319   -0.2118    4.6011 H   0  0  0  0  0  0  0  0  0  0  0  0
  5  6  2  0  0  0  0
  5  7  1  0  0  0  0
  2  3  1  0  0  0  0
  2  4  1  0  0  0  0
  2  5  1  0  0  0  0
  1  2  1  0  0  0  0
 22 23  2  0  0  0  0
 22 24  1  0  0  0  0
 18 19  1  0  0  0  0
 18 20  1  0  0  0  0
 18 21  1  0  0  0  0
 17 18  1  0  0  0  0
 14 15  1  0  0  0  0
 14 16  1  0  0  0  0
 14 17  1  0  0  0  0
 11 12  1  0  0  0  0
 11 13  1  0  0  0  0
 11 14  1  0  0  0  0
  9 10  1  0  0  0  0
  9 11  1  0  0  0  0
  9 22  1  0  0  0  0
  7  8  1  0  0  0  0
  7  9  1  0  0  0  0
 26 27  1  0  0  0  0
 26 28  1  0  0  0  0
 26 29  1  0  0  0  0
 24 25  1  0  0  0  0
 24 26  1  0  0  0  0
M  END
$$$$
default_name
  -OEChem-02102213163D

 29 28  0     1  0  0  0  0  0999 V2000
   -3.5781   -3.7296    1.2702 H   0  0  0  0  0  0  0  0  0  0  0  0
   -3.5311   -2.7616    0.7732 C   0  0  0  0  0  0  0  0  0  0  0  0
   -4.2371   -2.0766    1.2382 H   0  0  0  0  0  0  0  0  0  0  0  0
   -3.7681   -2.8816   -0.2818 H   0  0  0  0  0  0  0  0  0  0  0  0
   -2.1321   -2.2086    0.9112 C   0  0  0  0  0  0  0  0  0  0  0  0
   -1.2751   -2.8426    1.5112 O   0  0  0  0  0  0  0  0  0  0  0  0
   -1.9041   -1.0186    0.3602 N   0  0  0  0  0  0  0  0  0  0  0  0
   -2.6671   -0.5416   -0.0988 H   0  0  0  0  0  0  0  0  0  0  0  0
   -0.6131   -0.3236    0.3832 C   0  0  1  0  0  0  0  0  0  0  0  0
    0.1346   -0.9625   -0.0894 H   0  0  0  0  0  0  0  0  0  0  0  0
   -0.7253    0.9751   -0.4365 C   0  0  0  0  0  0  0  0  0  0  0  0
   -0.4717    0.7570   -1.4761 H   0  0  0  0  0  0  0  0  0  0  0  0
   -1.7555    1.3327   -0.4047 H   0  0  0  0  0  0  0  0  0  0  0  0
    0.1973    2.0942    0.0600 C   0  0  0  0  0  0  0  0  0  0  0  0
    0.4694    2.7322   -0.7803 H   0  0  0  0  0  0  0  0  0  0  0  0
   -0.3423    2.6930    0.7946 H   0  0  0  0  0  0  0  0  0  0  0  0
    1.7240    1.4907    0.8247 S   0  0  0  0  0  0  0  0  0  0  0  0
    1.0438    0.7503    2.3316 C   0  0  0  0  0  0  0  0  0  0  0  0
    0.3426   -0.0420    2.0678 H   0  0  0  0  0  0  0  0  0  0  0  0
    1.8554    0.3284    2.9251 H   0  0  0  0  0  0  0  0  0  0  0  0
    0.5305    1.5135    2.9171 H   0  0  0  0  0  0  0  0  0  0  0  0
   -0.1711   -0.0594    1.8296 C   0  0  0  0  0  0  0  0  0  0  0  0
    0.9865   -0.2908    2.1726 O   0  0  0  0  0  0  0  0  0  0  0  0
   -1.0921    0.4156    2.6780 N   0  0  0  0  0  0  0  0  0  0  0  0
   -2.0168    0.5953    2.3206 H   0  0  0  0  0  0  0  0  0  0  0  0
   -0.8319    0.7034    4.0877 C   0  0  0  0  0  0  0  0  0  0  0  0
   -0.0192    1.4288    4.1710 H   0  0  0  0  0  0  0  0  0  0  0  0
   -1.7255    1.1088    4.5641 H   0  0  0  0  0  0  0  0  0  0  0  0
   -0.5319   -0.2118    4.6011 H   0  0  0  0  0  0  0  0  0  0  0  0
  5  6  2  0  0  0  0
  5  7  1  0  0  0  0
  2  3  1  0  0  0  0
  2  4  1  0  0  0  0
  2  5  1  0  0  0  0
  1  2  1  0  0  0  0
 22 23  2  0  0  0  0
 22 24  1  0  0  0  0
 18 19  1  0  0  0  0
 18 20  1  0  0  0  0
 18 21  1  0  0  0  0
 17 18  1  0  0  0  0
 14 15  1  0  0  0  0
 14 16  1  0  0  0  0
 14 17  1  0  0  0  0
 11 12  1  0  0  0  0
 11 13  1  0  0  0  0
 11 14  1  0  0  0  0
  9 10  1  0  0  0  0
  9 11  1  0  0  0  0
  9 22  1  0  0  0  0
  7  8  1  0  0  0  0
  7  9  1  0  0  0  0
 26 27  1  0  0  0  0
 26 28  1  0  0  0  0
 26 29  1  0  0  0  0
 24 25  1  0  0  0  0
 24 26  1  0  0  0  0
M  END
$$$$
default_name
  -OEChem-02102213163D

 29 28  0     1  0  0  0  0  0999 V2000
   -3.5781   -3.7296    1.2702 H   0  0  0  0  0  0  0  0  0  0  0  0
   -3.5311   -2.7616    0.7732 C   0  0  0  0  0  0  0  0  0  0  0  0
   -4.2371   -2.0766    1.2382 H   0  0  0  0  0  0  0  0  0  0  0  0
   -3.7681   -2.8816   -0.2818 H   0  0  0  0  0  0  0  0  0  0  0  0
   -2.1321   -2.2086    0.9112 C   0  0  0  0  0  0  0  0  0  0  0  0
   -1.2751   -2.8426    1.5112 O   0  0  0  0  0  0  0  0  0  0  0  0
   -1.9041   -1.0186    0.3602 N   0  0  0  0  0  0  0  0  0  0  0  0
   -2.6671   -0.5416   -0.0988 H   0  0  0  0  0  0  0  0  0  0  0  0
   -0.6131   -0.3236    0.3832 C   0  0  1  0  0  0  0  0  0  0  0  0
    0.1346   -0.9625   -0.0894 H   0  0  0  0  0  0  0  0  0  0  0  0
   -0.7253    0.9751   -0.4365 C   0  0  0  0  0  0  0  0  0  0  0  0
   -0.4717    0.7570   -1.4761 H   0  0  0  0  0  0  0  0  0  0  0  0
   -1.7555    1.3327   -0.4047 H   0  0  0  0  0  0  0  0  0  0  0  0
    0.1973    2.0942    0.0600 C   0  0  0  0  0  0  0  0  0  0  0  0
    0.2552    2.8731   -0.6998 H   0  0  0  0  0  0  0  0  0  0  0  0
   -0.2281    2.5216    0.9686 H   0  0  0  0  0  0  0  0  0  0  0  0
    1.8819    1.5382    0.4242 S   0  0  0  0  0  0  0  0  0  0  0  0
    1.5623    0.5197    1.8878 C   0  0  0  0  0  0  0  0  0  0  0  0
    0.8792   -0.2902    1.6301 H   0  0  0  0  0  0  0  0  0  0  0  0
    2.5013    0.0971    2.2462 H   0  0  0  0  0  0  0  0  0  0  0  0
    1.1220    1.1336    2.6741 H   0  0  0  0  0  0  0  0  0  0  0  0
   -0.1711   -0.0594    1.8296 C   0  0  0  0  0  0  0  0  0  0  0  0
    0.9865   -0.2908    2.1726 O   0  0  0  0  0  0  0  0  0  0  0  0
   -1.0921    0.4156    2.6780 N   0  0  0  0  0  0  0  0  0  0  0  0
   -2.0168    0.5953    2.3206 H   0  0  0  0  0  0  0  0  0  0  0  0
   -0.8319    0.7034    4.0877 C   0  0  0  0  0  0  0  0  0  0  0  0
   -0.0192    1.4288    4.1710 H   0  0  0  0  0  0  0  0  0  0  0  0
   -1.7255    1.1088    4.5641 H   0  0  0  0  0  0  0  0  0  0  0  0
   -0.5319   -0.2118    4.6011 H   0  0  0  0  0  0  0  0  0  0  0  0
  5  6  2  0  0  0  0
  5  7  1  0  0  0  0
  2  3  1  0  0  0  0
  2  4  1  0  0  0  0
  2  5  1  0  0  0  0
  1  2  1  0  0  0  0
 22 23  2  0  0  0  0
 22 24  1  0  0  0  0
 18 19  1  0  0  0  0
 18 20  1  0  0  0  0
 18 21  1  0  0  0  0
 17 18  1  0  0  0  0
 14 15  1  0  0  0  0
 14 16  1  0  0  0  0
 14 17  1  0  0  0  0
 11 12  1  0  0  0  0
 11 13  1  0  0  0  0
 11 14  1  0  0  0  0
  9 10  1  0  0  0  0
  9 11  1  0  0  0  0
  9 22  1  0  0  0  0
  7  8  1  0  0  0  0
  7  9  1  0  0  0  0
 26 27  1  0  0  0  0
 26 28  1  0  0  0  0
 26 29  1  0  0  0  0
 24 25  1  0  0  0  0
 24 26  1  0  0  0  0
M  END
$$$$
default_name
  -OEChem-02102213163D

 29 28  0     1  0  0  0  0  0999 V2000
   -3.5781   -3.7296    1.2702 H   0  0  0  0  0  0  0  0  0  0  0  0
   -3.5311   -2.7616    0.7732 C   0  0  0  0  0  0  0  0  0  0  0  0
   -4.2371   -2.0766    1.2382 H   0  0  0  0  0  0  0  0  0  0  0  0
   -3.7681   -2.8816   -0.2818 H   0  0  0  0  0  0  0  0  0  0  0  0
   -2.1321   -2.2086    0.9112 C   0  0  0  0  0  0  0  0  0  0  0  0
   -1.2751   -2.8426    1.5112 O   0  0  0  0  0  0  0  0  0  0  0  0
   -1.9041   -1.0186    0.3602 N   0  0  0  0  0  0  0  0  0  0  0  0
   -2.6671   -0.5416   -0.0988 H   0  0  0  0  0  0  0  0  0  0  0  0
   -0.6131   -0.3236    0.3832 C   0  0  1  0  0  0  0  0  0  0  0  0
    0.1346   -0.9625   -0.0894 H   0  0  0  0  0  0  0  0  0  0  0  0
   -0.7253    0.9751   -0.4365 C   0  0  0  0  0  0  0  0  0  0  0  0
   -0.4717    0.7570   -1.4761 H   0  0  0  0  0  0  0  0  0  0  0  0
   -1.7555    1.3327   -0.4047 H   0  0  0  0  0  0  0  0  0  0  0  0
    0.1973    2.0942    0.0600 C   0  0  0  0  0  0  0  0  0  0  0  0
    0.0517    2.9786   -0.5595 H   0  0  0  0  0  0  0  0  0  0  0  0
   -0.0706    2.3386    1.0885 H   0  0  0  0  0  0  0  0  0  0  0  0
    1.9548    1.6597    0.0148 S   0  0  0  0  0  0  0  0  0  0  0  0
    1.9985    0.4096    1.3253 C   0  0  0  0  0  0  0  0  0  0  0  0
    1.3357   -0.4169    1.0673 H   0  0  0  0  0  0  0  0  0  0  0  0
    3.0163    0.0336    1.4323 H   0  0  0  0  0  0  0  0  0  0  0  0
    1.6794    0.8541    2.2684 H   0  0  0  0  0  0  0  0  0  0  0  0
   -0.1711   -0.0594    1.8296 C   0  0  0  0  0  0  0  0  0  0  0  0
    0.9865   -0.2908    2.1726 O   0  0  0  0  0  0  0  0  0  0  0  0
   -1.0921    0.4156    2.6780 N   0  0  0  0  0  0  0  0  0  0  0  0
   -2.0168    0.5953    2.3206 H   0  0  0  0  0  0  0  0  0  0  0  0
   -0.8319    0.7034    4.0877 C   0  0  0  0  0  0  0  0  0  0  0  0
   -0.0192    1.4288    4.1710 H   0  0  0  0  0  0  0  0  0  0  0  0
   -1.7255    1.1088    4.5641 H   0  0  0  0  0  0  0  0  0  0  0  0
   -0.5319   -0.2118    4.6011 H   0  0  0  0  0  0  0  0  0  0  0  0
  5  6  2  0  0  0  0
  5  7  1  0  0  0  0
  2  3  1  0  0  0  0
  2  4  1  0  0  0  0
  2  5  1  0  0  0  0
  1  2  1  0  0  0  0
 22 23  2  0  0  0  0
 22 24  1  0  0  0  0
 18 19  1  0  0  0  0
 18 20  1  0  0  0  0
 18 21  1  0  0  0  0
 17 18  1  0  0  0  0
 14 15  1  0  0  0  0
 14 16  1  0  0  0  0
 14 17  1  0  0  0  0
 11 12  1  0  0  0  0
 11 13  1  0  0  0  0
 11 14  1  0  0  0  0
  9 10  1  0  0  0  0
  9 11  1  0  0  0  0
  9 22  1  0  0  0  0
  7  8  1  0  0  0  0
  7  9  1  0  0  0  0
 26 27  1  0  0  0  0
 26 28  1  0  0  0  0
 26 29  1  0  0  0  0
 24 25  1  0  0  0  0
 24 26  1  0  0  0  0
M  END
$$$$
default_name
  -OEChem-02102213163D

 29 28  0     1  0  0  0  0  0999 V2000
   -3.5781   -3.7296    1.2702 H   0  0  0  0  0  0  0  0  0  0  0  0
   -3.5311   -2.7616    0.7732 C   0  0  0  0  0  0  0  0  0  0  0  0
   -4.2371   -2.0766    1.2382 H   0  0  0  0  0  0  0  0  0  0  0  0
   -3.7681   -2.8816   -0.2818 H   0  0  0  0  0  0  0  0  0  0  0  0
   -2.1321   -2.2086    0.9112 C   0  0  0  0  0  0  0  0  0  0  0  0
   -1.2751   -2.8426    1.5112 O   0  0  0  0  0  0  0  0  0  0  0  0
   -1.9041   -1.0186    0.3602 N   0  0  0  0  0  0  0  0  0  0  0  0
   -2.6671   -0.5416   -0.0988 H   0  0  0  0  0  0  0  0  0  0  0  0
   -0.6131   -0.3236    0.3832 C   0  0  1  0  0  0  0  0  0  0  0  0
    0.1346   -0.9625   -0.0894 H   0  0  0  0  0  0  0  0  0  0  0  0
   -0.7253    0.9751   -0.4365 C   0  0  0  0  0  0  0  0  0  0  0  0
   -0.4717    0.7570   -1.4761 H   0  0  0  0  0  0  0  0  0  0  0  0
   -1.7555    1.3327   -0.4047 H   0  0  0  0  0  0  0  0  0  0  0  0
    0.1973    2.0942    0.0600 C   0  0  0  0  0  0  0  0  0  0  0  0
   -0.1272    3.0417   -0.3692 H   0  0  0  0  0  0  0  0  0  0  0  0
    0.1196    2.1563    1.1460 H   0  0  0  0  0  0  0  0  0  0  0  0
    1.9377    1.8468   -0.3754 S   0  0  0  0  0  0  0  0  0  0  0  0
    2.3228    0.4275    0.6824 C   0  0  0  0  0  0  0  0  0  0  0  0
    1.6808   -0.4132    0.4177 H   0  0  0  0  0  0  0  0  0  0  0  0
    3.3653    0.1421    0.5390 H   0  0  0  0  0  0  0  0  0  0  0  0
    2.1645    0.6940    1.7277 H   0  0  0  0  0  0  0  0  0  0  0  0
   -0.1711   -0.0594    1.8296 C   0  0  0  0  0  0  0  0  0  0  0  0
    0.9865   -0.2908    2.1726 O   0  0  0  0  0  0  0  0  0  0  0  0
   -1.0921    0.4156    2.6780 N   0  0  0  0  0  0  0  0  0  0  0  0
   -2.0168    0.5953    2.3206 H   0  0  0  0  0  0  0  0  0  0  0  0
   -0.8319    0.7034    4.0877 C   0  0  0  0  0  0  0  0  0  0  0  0
   -0.0192    1.4288    4.1710 H   0  0  0  0  0  0  0  0  0  0  0  0
   -1.7255    1.1088    4.5641 H   0  0  0  0  0  0  0  0  0  0  0  0
   -0.5319   -0.2118    4.6011 H   0  0  0  0  0  0  0  0  0  0  0  0
  5  6  2  0  0  0  0
  5  7  1  0  0  0  0
  2  3  1  0  0  0  0
  2  4  1  0  0  0  0
  2  5  1  0  0  0  0
  1  2  1  0  0  0  0
 22 23  2  0  0  0  0
 22 24  1  0  0  0  0
 18 19  1  0  0  0  0
 18 20  1  0  0  0  0
 18 21  1  0  0  0  0
 17 18  1  0  0  0  0
 14 15  1  0  0  0  0
 14 16  1  0  0  0  0
 14 17  1  0  0  0  0
 11 12  1  0  0  0  0
 11 13  1  0  0  0  0
 11 14  1  0  0  0  0
  9 10  1  0  0  0  0
  9 11  1  0  0  0  0
  9 22  1  0  0  0  0
  7  8  1  0  0  0  0
  7  9  1  0  0  0  0
 26 27  1  0  0  0  0
 26 28  1  0  0  0  0
 26 29  1  0  0  0  0
 24 25  1  0  0  0  0
 24 26  1  0  0  0  0
M  END
$$$$
default_name
  -OEChem-02102213163D

 29 28  0     1  0  0  0  0  0999 V2000
   -3.5781   -3.7296    1.2702 H   0  0  0  0  0  0  0  0  0  0  0  0
   -3.5311   -2.7616    0.7732 C   0  0  0  0  0  0  0  0  0  0  0  0
   -4.2371   -2.0766    1.2382 H   0  0  0  0  0  0  0  0  0  0  0  0
   -3.7681   -2.8816   -0.2818 H   0  0  0  0  0  0  0  0  0  0  0  0
   -2.1321   -2.2086    0.9112 C   0  0  0  0  0  0  0  0  0  0  0  0
   -1.2751   -2.8426    1.5112 O   0  0  0  0  0  0  0  0  0  0  0  0
   -1.9041   -1.0186    0.3602 N   0  0  0  0  0  0  0  0  0  0  0  0
   -2.6671   -0.5416   -0.0988 H   0  0  0  0  0  0  0  0  0  0  0  0
   -0.6131   -0.3236    0.3832 C   0  0  1  0  0  0  0  0  0  0  0  0
    0.1346   -0.9625   -0.0894 H   0  0  0  0  0  0  0  0  0  0  0  0
   -0.7253    0.9751   -0.4365 C   0  0  0  0  0  0  0  0  0  0  0  0
   -0.4717    0.7570   -1.4761 H   0  0  0  0  0  0  0  0  0  0  0  0
   -1.7555    1.3327   -0.4047 H   0  0  0  0  0  0  0  0  0  0  0  0
    0.1973    2.0942    0.0600 C   0  0  0  0  0  0  0  0  0  0  0  0
   -0.2693    3.0579   -0.1418 H   0  0  0  0  0  0  0  0  0  0  0  0
    0.3294    1.9872    1.1372 H   0  0  0  0  0  0  0  0  0  0  0  0
    1.8318    2.0870   -0.7199 S   0  0  0  0  0  0  0  0  0  0  0  0
    2.5131    0.5720    0.0029 C   0  0  0  0  0  0  0  0  0  0  0  0
    1.8912   -0.2796   -0.2744 H   0  0  0  0  0  0  0  0  0  0  0  0
    3.5246    0.4154   -0.3730 H   0  0  0  0  0  0  0  0  0  0  0  0
    2.5443    0.6643    1.0889 H   0  0  0  0  0  0  0  0  0  0  0  0
   -0.1711   -0.0594    1.8296 C   0  0  0  0  0  0  0  0  0  0  0  0
    0.9865   -0.2908    2.1726 O   0  0  0  0  0  0  0  0  0  0  0  0
   -1.0921    0.4156    2.6780 N   0  0  0  0  0  0  0  0  0  0  0  0
   -2.0168    0.5953    2.3206 H   0  0  0  0  0  0  0  0  0  0  0  0
   -0.8319    0.7034    4.0877 C   0  0  0  0  0  0  0  0  0  0  0  0
   -0.0192    1.4288    4.1710 H   0  0  0  0  0  0  0  0  0  0  0  0
   -1.7255    1.1088    4.5641 H   0  0  0  0  0  0  0  0  0  0  0  0
   -0.5319   -0.2118    4.6011 H   0  0  0  0  0  0  0  0  0  0  0  0
  5  6  2  0  0  0  0
  5  7  1  0  0  0  0
  2  3  1  0  0  0  0
  2  4  1  0  0  0  0
  2  5  1  0  0  0  0
  1  2  1  0  0  0  0
 22 23  2  0  0  0  0
 22 24  1  0  0  0  0
 18 19  1  0  0  0  0
 18 20  1  0  0  0  0
 18 21  1  0  0  0  0
 17 18  1  0  0  0  0
 14 15  1  0  0  0  0
 14 16  1  0  0  0  0
 14 17  1  0  0  0  0
 11 12  1  0  0  0  0
 11 13  1  0  0  0  0
 11 14  1  0  0  0  0
  9 10  1  0  0  0  0
  9 11  1  0  0  0  0
  9 22  1  0  0  0  0
  7  8  1  0  0  0  0
  7  9  1  0  0  0  0
 26 27  1  0  0  0  0
 26 28  1  0  0  0  0
 26 29  1  0  0  0  0
 24 25  1  0  0  0  0
 24 26  1  0  0  0  0
M  END
$$$$
default_name
  -OEChem-02102213163D

 29 28  0     1  0  0  0  0  0999 V2000
   -3.5781   -3.7296    1.2702 H   0  0  0  0  0  0  0  0  0  0  0  0
   -3.5311   -2.7616    0.7732 C   0  0  0  0  0  0  0  0  0  0  0  0
   -4.2371   -2.0766    1.2382 H   0  0  0  0  0  0  0  0  0  0  0  0
   -3.7681   -2.8816   -0.2818 H   0  0  0  0  0  0  0  0  0  0  0  0
   -2.1321   -2.2086    0.9112 C   0  0  0  0  0  0  0  0  0  0  0  0
   -1.2751   -2.8426    1.5112 O   0  0  0  0  0  0  0  0  0  0  0  0
   -1.9041   -1.0186    0.3602 N   0  0  0  0  0  0  0  0  0  0  0  0
   -2.6671   -0.5416   -0.0988 H   0  0  0  0  0  0  0  0  0  0  0  0
   -0.6131   -0.3236    0.3832 C   0  0  1  0  0  0  0  0  0  0  0  0
    0.1346   -0.9625   -0.0894 H   0  0  0  0  0  0  0  0  0  0  0  0
   -0.7253    0.9751   -0.4365 C   0  0  0  0  0  0  0  0  0  0  0  0
   -0.4717    0.7570   -1.4761 H   0  0  0  0  0  0  0  0  0  0  0  0
   -1.7555    1.3327   -0.4047 H   0  0  0  0  0  0  0  0  0  0  0  0
    0.1973    2.0942    0.0600 C   0  0  0  0  0  0  0  0  0  0  0  0
   -0.3649    3.0263    0.1073 H   0  0  0  0  0  0  0  0  0  0  0  0
    0.5446    1.8429    1.0628 H   0  0  0  0  0  0  0  0  0  0  0  0
    1.6442    2.3638   -0.9953 S   0  0  0  0  0  0  0  0  0  0  0  0
    2.5564    0.8334   -0.6669 C   0  0  0  0  0  0  0  0  0  0  0  0
    1.9524   -0.0251   -0.9619 H   0  0  0  0  0  0  0  0  0  0  0  0
    3.4831    0.8348   -1.2414 H   0  0  0  0  0  0  0  0  0  0  0  0
    2.7930    0.7669    0.3954 H   0  0  0  0  0  0  0  0  0  0  0  0
   -0.1711   -0.0594    1.8296 C   0  0  0  0  0  0  0  0  0  0  0  0
    0.9865   -0.2908    2.1726 O   0  0  0  0  0  0  0  0  0  0  0  0
   -1.0921    0.4156    2.6780 N   0  0  0  0  0  0  0  0  0  0  0  0
   -2.0168    0.5953    2.3206 H   0  0  0  0  0  0  0  0  0  0  0  0
   -0.8319    0.7034    4.0877 C   0  0  0  0  0  0  0  0  0  0  0  0
   -0.0192    1.4288    4.1710 H   0  0  0  0  0  0  0  0  0  0  0  0
   -1.7255    1.1088    4.5641 H   0  0  0  0  0  0  0  0  0  0  0  0
   -0.5319   -0.2118    4.6011 H   0  0  0  0  0  0  0  0  0  0  0  0
  5  6  2  0  0  0  0
  5  7  1  0  0  0  0
  2  3  1  0  0  0  0
  2  4  1  0  0  0  0
  2  5  1  0  0  0  0
  1  2  1  0  0  0  0
 22 23  2  0  0  0  0
 22 24  1  0  0  0  0
 18 19  1  0  0  0  0
 18 20  1  0  0  0  0
 18 21  1  0  0  0  0
 17 18  1  0  0  0  0
 14 15  1  0  0  0  0
 14 16  1  0  0  0  0
 14 17  1  0  0  0  0
 11 12  1  0  0  0  0
 11 13  1  0  0  0  0
 11 14  1  0  0  0  0
  9 10  1  0  0  0  0
  9 11  1  0  0  0  0
  9 22  1  0  0  0  0
  7  8  1  0  0  0  0
  7  9  1  0  0  0  0
 26 27  1  0  0  0  0
 26 28  1  0  0  0  0
 26 29  1  0  0  0  0
 24 25  1  0  0  0  0
 24 26  1  0  0  0  0
M  END
$$$$
default_name
  -OEChem-02102213163D

 29 28  0     1  0  0  0  0  0999 V2000
   -3.5781   -3.7296    1.2702 H   0  0  0  0  0  0  0  0  0  0  0  0
   -3.5311   -2.7616    0.7732 C   0  0  0  0  0  0  0  0  0  0  0  0
   -4.2371   -2.0766    1.2382 H   0  0  0  0  0  0  0  0  0  0  0  0
   -3.7681   -2.8816   -0.2818 H   0  0  0  0  0  0  0  0  0  0  0  0
   -2.1321   -2.2086    0.9112 C   0  0  0  0  0  0  0  0  0  0  0  0
   -1.2751   -2.8426    1.5112 O   0  0  0  0  0  0  0  0  0  0  0  0
   -1.9041   -1.0186    0.3602 N   0  0  0  0  0  0  0  0  0  0  0  0
   -2.6671   -0.5416   -0.0988 H   0  0  0  0  0  0  0  0  0  0  0  0
   -0.6131   -0.3236    0.3832 C   0  0  1  0  0  0  0  0  0  0  0  0
    0.1346   -0.9625   -0.0894 H   0  0  0  0  0  0  0  0  0  0  0  0
   -0.7253    0.9751   -0.4365 C   0  0  0  0  0  0  0  0  0  0  0  0
   -0.4717    0.7570   -1.4761 H   0  0  0  0  0  0  0  0  0  0  0  0
   -1.7555    1.3327   -0.4047 H   0  0  0  0  0  0  0  0  0  0  0  0
    0.1973    2.0942    0.0600 C   0  0  0  0  0  0  0  0  0  0  0  0
   -0.4076    2.9489    0.3611 H   0  0  0  0  0  0  0  0  0  0  0  0
    0.7505    1.7330    0.9277 H   0  0  0  0  0  0  0  0  0  0  0  0
    1.3878    2.6583   -1.1827 S   0  0  0  0  0  0  0  0  0  0  0  0
    2.4498    1.1939   -1.2814 C   0  0  0  0  0  0  0  0  0  0  0  0
    1.8603    0.3329   -1.5979 H   0  0  0  0  0  0  0  0  0  0  0  0
    3.2439    1.3716   -2.0070 H   0  0  0  0  0  0  0  0  0  0  0  0
    2.8935    0.9949   -0.3055 H   0  0  0  0  0  0  0  0  0  0  0  0
   -0.1711   -0.0594    1.8296 C   0  0  0  0  0  0  0  0  0  0  0  0
    0.9865   -0.2908    2.1726 O   0  0  0  0  0  0  0  0  0  0  0  0
   -1.0921    0.4156    2.6780 N   0  0  0  0  0  0  0  0  0  0  0  0
   -2.0168    0.5953    2.3206 H   0  0  0  0  0  0  0  0  0  0  0  0
   -0.8319    0.7034    4.0877 C   0  0  0  0  0  0  0  0  0  0  0  0
   -0.0192    1.4288    4.1710 H   0  0  0  0  0  0  0  0  0  0  0  0
   -1.7255    1.1088    4.5641 H   0  0  0  0  0  0  0  0  0  0  0  0
   -0.5319   -0.2118    4.6011 H   0  0  0  0  0  0  0  0  0  0  0  0
  5  6  2  0  0  0  0
  5  7  1  0  0  0  0
  2  3  1  0  0  0  0
  2  4  1  0  0  0  0
  2  5  1  0  0  0  0
  1  2  1  0  0  0  0
 22 23  2  0  0  0  0
 22 24  1  0  0  0  0
 18 19  1  0  0  0  0
 18 20  1  0  0  0  0
 18 21  1  0  0  0  0
 17 18  1  0  0  0  0
 14 15  1  0  0  0  0
 14 16  1  0  0  0  0
 14 17  1  0  0  0  0
 11 12  1  0  0  0  0
 11 13  1  0  0  0  0
 11 14  1  0  0  0  0
  9 10  1  0  0  0  0
  9 11  1  0  0  0  0
  9 22  1  0  0  0  0
  7  8  1  0  0  0  0
  7  9  1  0  0  0  0
 26 27  1  0  0  0  0
 26 28  1  0  0  0  0
 26 29  1  0  0  0  0
 24 25  1  0  0  0  0
 24 26  1  0  0  0  0
M  END
$$$$
default_name
  -OEChem-02102213163D

 29 28  0     1  0  0  0  0  0999 V2000
   -3.5781   -3.7296    1.2702 H   0  0  0  0  0  0  0  0  0  0  0  0
   -3.5311   -2.7616    0.7732 C   0  0  0  0  0  0  0  0  0  0  0  0
   -4.2371   -2.0766    1.2382 H   0  0  0  0  0  0  0  0  0  0  0  0
   -3.7681   -2.8816   -0.2818 H   0  0  0  0  0  0  0  0  0  0  0  0
   -2.1321   -2.2086    0.9112 C   0  0  0  0  0  0  0  0  0  0  0  0
   -1.2751   -2.8426    1.5112 O   0  0  0  0  0  0  0  0  0  0  0  0
   -1.9041   -1.0186    0.3602 N   0  0  0  0  0  0  0  0  0  0  0  0
   -2.6671   -0.5416   -0.0988 H   0  0  0  0  0  0  0  0  0  0  0  0
   -0.6131   -0.3236    0.3832 C   0  0  1  0  0  0  0  0  0  0  0  0
    0.1346   -0.9625   -0.0894 H   0  0  0  0  0  0  0  0  0  0  0  0
   -0.7253    0.9751   -0.4365 C   0  0  0  0  0  0  0  0  0  0  0  0
   -0.4717    0.7570   -1.4761 H   0  0  0  0  0  0  0  0  0  0  0  0
   -1.7555    1.3327   -0.4047 H   0  0  0  0  0  0  0  0  0  0  0  0
    0.1973    2.0942    0.0600 C   0  0  0  0  0  0  0  0  0  0  0  0
   -0.3944    2.8311    0.6022 H   0  0  0  0  0  0  0  0  0  0  0  0
    0.9331    1.6653    0.7412 H   0  0  0  0  0  0  0  0  0  0  0  0
    1.0801    2.9505   -1.2694 S   0  0  0  0  0  0  0  0  0  0  0  0
    2.2004    1.6289   -1.7986 C   0  0  0  0  0  0  0  0  0  0  0  0
    1.6211    0.7701   -2.1390 H   0  0  0  0  0  0  0  0  0  0  0  0
    2.8232    1.9894   -2.6178 H   0  0  0  0  0  0  0  0  0  0  0  0
    2.8391    1.3327   -0.9660 H   0  0  0  0  0  0  0  0  0  0  0  0
   -0.1711   -0.0594    1.8296 C   0  0  0  0  0  0  0  0  0  0  0  0
    0.9865   -0.2908    2.1726 O   0  0  0  0  0  0  0  0  0  0  0  0
   -1.0921    0.4156    2.6780 N   0  0  0  0  0  0  0  0  0  0  0  0
   -2.0168    0.5953    2.3206 H   0  0  0  0  0  0  0  0  0  0  0  0
   -0.8319    0.7034    4.0877 C   0  0  0  0  0  0  0  0  0  0  0  0
   -0.0192    1.4288    4.1710 H   0  0  0  0  0  0  0  0  0  0  0  0
   -1.7255    1.1088    4.5641 H   0  0  0  0  0  0  0  0  0  0  0  0
   -0.5319   -0.2118    4.6011 H   0  0  0  0  0  0  0  0  0  0  0  0
  5  6  2  0  0  0  0
  5  7  1  0  0  0  0
  2  3  1  0  0  0  0
  2  4  1  0  0  0  0
  2  5  1  0  0  0  0
  1  2  1  0  0  0  0
 22 23  2  0  0  0  0
 22 24  1  0  0  0  0
 18 19  1  0  0  0  0
 18 20  1  0  0  0  0
 18 21  1  0  0  0  0
 17 18  1  0  0  0  0
 14 15  1  0  0  0  0
 14 16  1  0  0  0  0
 14 17  1  0  0  0  0
 11 12  1  0  0  0  0
 11 13  1  0  0  0  0
 11 14  1  0  0  0  0
  9 10  1  0  0  0  0
  9 11  1  0  0  0  0
  9 22  1  0  0  0  0
  7  8  1  0  0  0  0
  7  9  1  0  0  0  0
 26 27  1  0  0  0  0
 26 28  1  0  0  0  0
 26 29  1  0  0  0  0
 24 25  1  0  0  0  0
 24 26  1  0  0  0  0
M  END
$$$$
default_name
  -OEChem-02102213163D

 29 28  0     1  0  0  0  0  0999 V2000
   -3.5781   -3.7296    1.2702 H   0  0  0  0  0  0  0  0  0  0  0  0
   -3.5311   -2.7616    0.7732 C   0  0  0  0  0  0  0  0  0  0  0  0
   -4.2371   -2.0766    1.2382 H   0  0  0  0  0  0  0  0  0  0  0  0
   -3.7681   -2.8816   -0.2818 H   0  0  0  0  0  0  0  0  0  0  0  0
   -2.1321   -2.2086    0.9112 C   0  0  0  0  0  0  0  0  0  0  0  0
   -1.2751   -2.8426    1.5112 O   0  0  0  0  0  0  0  0  0  0  0  0
   -1.9041   -1.0186    0.3602 N   0  0  0  0  0  0  0  0  0  0  0  0
   -2.6671   -0.5416   -0.0988 H   0  0  0  0  0  0  0  0  0  0  0  0
   -0.6131   -0.3236    0.3832 C   0  0  1  0  0  0  0  0  0  0  0  0
    0.1346   -0.9625   -0.0894 H   0  0  0  0  0  0  0  0  0  0  0  0
   -0.7253    0.9751   -0.4365 C   0  0  0  0  0  0  0  0  0  0  0  0
   -0.4717    0.7570   -1.4761 H   0  0  0  0  0  0  0  0  0  0  0  0
   -1.7555    1.3327   -0.4047 H   0  0  0  0  0  0  0  0  0  0  0  0
    0.1973    2.0942    0.0600 C   0  0  0  0  0  0  0  0  0  0  0  0
   -0.3262    2.6808    0.8142 H   0  0  0  0  0  0  0  0  0  0  0  0
    1.0798    1.6442    0.5160 H   0  0  0  0  0  0  0  0  0  0  0  0
    0.7419    3.2204   -1.2495 S   0  0  0  0  0  0  0  0  0  0  0  0
    1.8254    2.1087   -2.1833 C   0  0  0  0  0  0  0  0  0  0  0  0
    1.2513    1.2566   -2.5484 H   0  0  0  0  0  0  0  0  0  0  0  0
    2.2496    2.6460   -3.0320 H   0  0  0  0  0  0  0  0  0  0  0  0
    2.6335    1.7574   -1.5410 H   0  0  0  0  0  0  0  0  0  0  0  0
   -0.1711   -0.0594    1.8296 C   0  0  0  0  0  0  0  0  0  0  0  0
    0.9865   -0.2908    2.1726 O   0  0  0  0  0  0  0  0  0  0  0  0
   -1.0921    0.4156    2.6780 N   0  0  0  0  0  0  0  0  0  0  0  0
   -2.0168    0.5953    2.3206 H   0  0  0  0  0  0  0  0  0  0  0  0
   -0.8319    0.7034    4.0877 C   0  0  0  0  0  0  0  0  0  0  0  0
   -0.0192    1.4288    4.1710 H   0  0  0  0  0  0  0  0  0  0  0  0
   -1.7255    1.1088    4.5641 H   0  0  0  0  0  0  0  0  0  0  0  0
   -0.5319   -0.2118    4.6011 H   0  0  0  0  0  0  0  0  0  0  0  0
  5  6  2  0  0  0  0
  5  7  1  0  0  0  0
  2  3  1  0  0  0  0
  2  4  1  0  0  0  0
  2  5  1  0  0  0  0
  1  2  1  0  0  0  0
 22 23  2  0  0  0  0
 22 24  1  0  0  0  0
 18 19  1  0  0  0  0
 18 20  1  0  0  0  0
 18 21  1  0  0  0  0
 17 18  1  0  0  0  0
 14 15  1  0  0  0  0
 14 16  1  0  0  0  0
 14 17  1  0  0  0  0
 11 12  1  0  0  0  0
 11 13  1  0  0  0  0
 11 14  1  0  0  0  0
  9 10  1  0  0  0  0
  9 11  1  0  0  0  0
  9 22  1  0  0  0  0
  7  8  1  0  0  0  0
  7  9  1  0  0  0  0
 26 27  1  0  0  0  0
 26 28  1  0  0  0  0
 26 29  1  0  0  0  0
 24 25  1  0  0  0  0
 24 26  1  0  0  0  0
M  END
$$$$
default_name
  -OEChem-02102213163D

 29 28  0     1  0  0  0  0  0999 V2000
   -3.5781   -3.7296    1.2702 H   0  0  0  0  0  0  0  0  0  0  0  0
   -3.5311   -2.7616    0.7732 C   0  0  0  0  0  0  0  0  0  0  0  0
   -4.2371   -2.0766    1.2382 H   0  0  0  0  0  0  0  0  0  0  0  0
   -3.7681   -2.8816   -0.2818 H   0  0  0  0  0  0  0  0  0  0  0  0
   -2.1321   -2.2086    0.9112 C   0  0  0  0  0  0  0  0  0  0  0  0
   -1.2751   -2.8426    1.5112 O   0  0  0  0  0  0  0  0  0  0  0  0
   -1.9041   -1.0186    0.3602 N   0  0  0  0  0  0  0  0  0  0  0  0
   -2.6671   -0.5416   -0.0988 H   0  0  0  0  0  0  0  0  0  0  0  0
   -0.6131   -0.3236    0.3832 C   0  0  1  0  0  0  0  0  0  0  0  0
    0.1346   -0.9625   -0.0894 H   0  0  0  0  0  0  0  0  0  0  0  0
   -0.7253    0.9751   -0.4365 C   0  0  0  0  0  0  0  0  0  0  0  0
   -0.4717    0.7570   -1.4761 H   0  0  0  0  0  0  0  0  0  0  0  0
   -1.7555    1.3327   -0.4047 H   0  0  0  0  0  0  0  0  0  0  0  0
    0.1973    2.0942    0.0600 C   0  0  0  0  0  0  0  0  0  0  0  0
   -0.2077    2.5084    0.9828 H   0  0  0  0  0  0  0  0  0  0  0  0
    1.1808    1.6711    0.2675 H   0  0  0  0  0  0  0  0  0  0  0  0
    0.3965    3.4497   -1.1244 S   0  0  0  0  0  0  0  0  0  0  0  0
    1.3503    2.6006   -2.4093 C   0  0  0  0  0  0  0  0  0  0  0  0
    0.7758    1.7594   -2.7982 H   0  0  0  0  0  0  0  0  0  0  0  0
    1.5623    3.2966   -3.2214 H   0  0  0  0  0  0  0  0  0  0  0  0
    2.2906    2.2399   -1.9915 H   0  0  0  0  0  0  0  0  0  0  0  0
   -0.1711   -0.0594    1.8296 C   0  0  0  0  0  0  0  0  0  0  0  0
    0.9865   -0.2908    2.1726 O   0  0  0  0  0  0  0  0  0  0  0  0
   -1.0921    0.4156    2.6780 N   0  0  0  0  0  0  0  0  0  0  0  0
   -2.0168    0.5953    2.3206 H   0  0  0  0  0  0  0  0  0  0  0  0
   -0.8319    0.7034    4.0877 C   0  0  0  0  0  0  0  0  0  0  0  0
   -0.0192    1.4288    4.1710 H   0  0  0  0  0  0  0  0  0  0  0  0
   -1.7255    1.1088    4.5641 H   0  0  0  0  0  0  0  0  0  0  0  0
   -0.5319   -0.2118    4.6011 H   0  0  0  0  0  0  0  0  0  0  0  0
  5  6  2  0  0  0  0
  5  7  1  0  0  0  0
  2  3  1  0  0  0  0
  2  4  1  0  0  0  0
  2  5  1  0  0  0  0
  1  2  1  0  0  0  0
 22 23  2  0  0  0  0
 22 24  1  0  0  0  0
 18 19  1  0  0  0  0
 18 20  1  0  0  0  0
 18 21  1  0  0  0  0
 17 18  1  0  0  0  0
 14 15  1  0  0  0  0
 14 16  1  0  0  0  0
 14 17  1  0  0  0  0
 11 12  1  0  0  0  0
 11 13  1  0  0  0  0
 11 14  1  0  0  0  0
  9 10  1  0  0  0  0
  9 11  1  0  0  0  0
  9 22  1  0  0  0  0
  7  8  1  0  0  0  0
  7  9  1  0  0  0  0
 26 27  1  0  0  0  0
 26 28  1  0  0  0  0
 26 29  1  0  0  0  0
 24 25  1  0  0  0  0
 24 26  1  0  0  0  0
M  END
$$$$
default_name
  -OEChem-02102213163D

 29 28  0     1  0  0  0  0  0999 V2000
   -3.5781   -3.7296    1.2702 H   0  0  0  0  0  0  0  0  0  0  0  0
   -3.5311   -2.7616    0.7732 C   0  0  0  0  0  0  0  0  0  0  0  0
   -4.2371   -2.0766    1.2382 H   0  0  0  0  0  0  0  0  0  0  0  0
   -3.7681   -2.8816   -0.2818 H   0  0  0  0  0  0  0  0  0  0  0  0
   -2.1321   -2.2086    0.9112 C   0  0  0  0  0  0  0  0  0  0  0  0
   -1.2751   -2.8426    1.5112 O   0  0  0  0  0  0  0  0  0  0  0  0
   -1.9041   -1.0186    0.3602 N   0  0  0  0  0  0  0  0  0  0  0  0
   -2.6671   -0.5416   -0.0988 H   0  0  0  0  0  0  0  0  0  0  0  0
   -0.6131   -0.3236    0.3832 C   0  0  1  0  0  0  0  0  0  0  0  0
    0.1346   -0.9625   -0.0894 H   0  0  0  0  0  0  0  0  0  0  0  0
   -0.7253    0.9751   -0.4365 C   0  0  0  0  0  0  0  0  0  0  0  0
   -0.7382    0.7200   -1.4983 H   0  0  0  0  0  0  0  0  0  0  0  0
   -1.6651    1.4734   -0.1942 H   0  0  0  0  0  0  0  0  0  0  0  0
    0.4269    1.9559   -0.1906 C   0  0  0  0  0  0  0  0  0  0  0  0
    0.4499    2.2227    0.8656 H   0  0  0  0  0  0  0  0  0  0  0  0
    1.3659    1.4650   -0.4487 H   0  0  0  0  0  0  0  0  0  0  0  0
    0.2972    3.4842   -1.1535 S   0  0  0  0  0  0  0  0  0  0  0  0
    0.5952    2.8290   -2.8160 C   0  0  0  0  0  0  0  0  0  0  0  0
   -0.1675    2.0896   -3.0620 H   0  0  0  0  0  0  0  0  0  0  0  0
    0.5515    3.6440   -3.5389 H   0  0  0  0  0  0  0  0  0  0  0  0
    1.5813    2.3654   -2.8573 H   0  0  0  0  0  0  0  0  0  0  0  0
   -0.1711   -0.0594    1.8296 C   0  0  0  0  0  0  0  0  0  0  0  0
    0.9865   -0.2908    2.1726 O   0  0  0  0  0  0  0  0  0  0  0  0
   -1.0921    0.4156    2.6780 N   0  0  0  0  0  0  0  0  0  0  0  0
   -2.0168    0.5953    2.3206 H   0  0  0  0  0  0  0  0  0  0  0  0
   -0.8319    0.7034    4.0877 C   0  0  0  0  0  0  0  0  0  0  0  0
   -0.0192    1.4288    4.1710 H   0  0  0  0  0  0  0  0  0  0  0  0
   -1.7255    1.1088    4.5641 H   0  0  0  0  0  0  0  0  0  0  0  0
   -0.5319   -0.2118    4.6011 H   0  0  0  0  0  0  0  0  0  0  0  0
  5  6  2  0  0  0  0
  5  7  1  0  0  0  0
  2  3  1  0  0  0  0
  2  4  1  0  0  0  0
  2  5  1  0  0  0  0
  1  2  1  0  0  0  0
 22 23  2  0  0  0  0
 22 24  1  0  0  0  0
 18 19  1  0  0  0  0
 18 20  1  0  0  0  0
 18 21  1  0  0  0  0
 17 18  1  0  0  0  0
 14 15  1  0  0  0  0
 14 16  1  0  0  0  0
 14 17  1  0  0  0  0
 11 12  1  0  0  0  0
 11 13  1  0  0  0  0
 11 14  1  0  0  0  0
  9 10  1  0  0  0  0
  9 11  1  0  0  0  0
  9 22  1  0  0  0  0
  7  8  1  0  0  0  0
  7  9  1  0  0  0  0
 26 27  1  0  0  0  0
 26 28  1  0  0  0  0
 26 29  1  0  0  0  0
 24 25  1  0  0  0  0
 24 26  1  0  0  0  0
M  END
$$$$
default_name
  -OEChem-02102213163D

 29 28  0     1  0  0  0  0  0999 V2000
   -3.5781   -3.7296    1.2702 H   0  0  0  0  0  0  0  0  0  0  0  0
   -3.5311   -2.7616    0.7732 C   0  0  0  0  0  0  0  0  0  0  0  0
   -4.2371   -2.0766    1.2382 H   0  0  0  0  0  0  0  0  0  0  0  0
   -3.7681   -2.8816   -0.2818 H   0  0  0  0  0  0  0  0  0  0  0  0
   -2.1321   -2.2086    0.9112 C   0  0  0  0  0  0  0  0  0  0  0  0
   -1.2751   -2.8426    1.5112 O   0  0  0  0  0  0  0  0  0  0  0  0
   -1.9041   -1.0186    0.3602 N   0  0  0  0  0  0  0  0  0  0  0  0
   -2.6671   -0.5416   -0.0988 H   0  0  0  0  0  0  0  0  0  0  0  0
   -0.6131   -0.3236    0.3832 C   0  0  1  0  0  0  0  0  0  0  0  0
    0.1346   -0.9625   -0.0894 H   0  0  0  0  0  0  0  0  0  0  0  0
   -0.7253    0.9751   -0.4365 C   0  0  0  0  0  0  0  0  0  0  0  0
   -0.7382    0.7200   -1.4983 H   0  0  0  0  0  0  0  0  0  0  0  0
   -1.6651    1.4734   -0.1942 H   0  0  0  0  0  0  0  0  0  0  0  0
    0.4269    1.9559   -0.1906 C   0  0  0  0  0  0  0  0  0  0  0  0
    0.6221    2.0170    0.8796 H   0  0  0  0  0  0  0  0  0  0  0  0
    1.3205    1.5786   -0.6890 H   0  0  0  0  0  0  0  0  0  0  0  0
    0.0973    3.6299   -0.7980 S   0  0  0  0  0  0  0  0  0  0  0  0
    0.1253    3.3227   -2.5831 C   0  0  0  0  0  0  0  0  0  0  0  0
   -0.6494    2.6010   -2.8442 H   0  0  0  0  0  0  0  0  0  0  0  0
   -0.0610    4.2569   -3.1136 H   0  0  0  0  0  0  0  0  0  0  0  0
    1.1013    2.9334   -2.8741 H   0  0  0  0  0  0  0  0  0  0  0  0
   -0.1711   -0.0594    1.8296 C   0  0  0  0  0  0  0  0  0  0  0  0
    0.9865   -0.2908    2.1726 O   0  0  0  0  0  0  0  0  0  0  0  0
   -1.0921    0.4156    2.6780 N   0  0  0  0  0  0  0  0  0  0  0  0
   -2.0168    0.5953    2.3206 H   0  0  0  0  0  0  0  0  0  0  0  0
   -0.8319    0.7034    4.0877 C   0  0  0  0  0  0  0  0  0  0  0  0
   -0.0192    1.4288    4.1710 H   0  0  0  0  0  0  0  0  0  0  0  0
   -1.7255    1.1088    4.5641 H   0  0  0  0  0  0  0  0  0  0  0  0
   -0.5319   -0.2118    4.6011 H   0  0  0  0  0  0  0  0  0  0  0  0
  5  6  2  0  0  0  0
  5  7  1  0  0  0  0
  2  3  1  0  0  0  0
  2  4  1  0  0  0  0
  2  5  1  0  0  0  0
  1  2  1  0  0  0  0
 22 23  2  0  0  0  0
 22 24  1  0  0  0  0
 18 19  1  0  0  0  0
 18 20  1  0  0  0  0
 18 21  1  0  0  0  0
 17 18  1  0  0  0  0
 14 15  1  0  0  0  0
 14 16  1  0  0  0  0
 14 17  1  0  0  0  0
 11 12  1  0  0  0  0
 11 13  1  0  0  0  0
 11 14  1  0  0  0  0
  9 10  1  0  0  0  0
  9 11  1  0  0  0  0
  9 22  1  0  0  0  0
  7  8  1  0  0  0  0
  7  9  1  0  0  0  0
 26 27  1  0  0  0  0
 26 28  1  0  0  0  0
 26 29  1  0  0  0  0
 24 25  1  0  0  0  0
 24 26  1  0  0  0  0
M  END
$$$$
default_name
  -OEChem-02102213163D

 29 28  0     1  0  0  0  0  0999 V2000
   -3.5781   -3.7296    1.2702 H   0  0  0  0  0  0  0  0  0  0  0  0
   -3.5311   -2.7616    0.7732 C   0  0  0  0  0  0  0  0  0  0  0  0
   -4.2371   -2.0766    1.2382 H   0  0  0  0  0  0  0  0  0  0  0  0
   -3.7681   -2.8816   -0.2818 H   0  0  0  0  0  0  0  0  0  0  0  0
   -2.1321   -2.2086    0.9112 C   0  0  0  0  0  0  0  0  0  0  0  0
   -1.2751   -2.8426    1.5112 O   0  0  0  0  0  0  0  0  0  0  0  0
   -1.9041   -1.0186    0.3602 N   0  0  0  0  0  0  0  0  0  0  0  0
   -2.6671   -0.5416   -0.0988 H   0  0  0  0  0  0  0  0  0  0  0  0
   -0.6131   -0.3236    0.3832 C   0  0  1  0  0  0  0  0  0  0  0  0
    0.1346   -0.9625   -0.0894 H   0  0  0  0  0  0  0  0  0  0  0  0
   -0.7253    0.9751   -0.4365 C   0  0  0  0  0  0  0  0  0  0  0  0
   -0.7382    0.7200   -1.4983 H   0  0  0  0  0  0  0  0  0  0  0  0
   -1.6651    1.4734   -0.1942 H   0  0  0  0  0  0  0  0  0  0  0  0
    0.4269    1.9559   -0.1906 C   0  0  0  0  0  0  0  0  0  0  0  0
    0.7993    1.8226    0.8247 H   0  0  0  0  0  0  0  0  0  0  0  0
    1.2322    1.7331   -0.8915 H   0  0  0  0  0  0  0  0  0  0  0  0
   -0.0430    3.6931   -0.3931 S   0  0  0  0  0  0  0  0  0  0  0  0
   -0.3106    3.7347   -2.1843 C   0  0  0  0  0  0  0  0  0  0  0  0
   -1.0999    3.0326   -2.4545 H   0  0  0  0  0  0  0  0  0  0  0  0
   -0.6076    4.7407   -2.4821 H   0  0  0  0  0  0  0  0  0  0  0  0
    0.6113    3.4654   -2.7004 H   0  0  0  0  0  0  0  0  0  0  0  0
   -0.1711   -0.0594    1.8296 C   0  0  0  0  0  0  0  0  0  0  0  0
    0.9865   -0.2908    2.1726 O   0  0  0  0  0  0  0  0  0  0  0  0
   -1.0921    0.4156    2.6780 N   0  0  0  0  0  0  0  0  0  0  0  0
   -2.0168    0.5953    2.3206 H   0  0  0  0  0  0  0  0  0  0  0  0
   -0.8319    0.7034    4.0877 C   0  0  0  0  0  0  0  0  0  0  0  0
   -0.0192    1.4288    4.1710 H   0  0  0  0  0  0  0  0  0  0  0  0
   -1.7255    1.1088    4.5641 H   0  0  0  0  0  0  0  0  0  0  0  0
   -0.5319   -0.2118    4.6011 H   0  0  0  0  0  0  0  0  0  0  0  0
  5  6  2  0  0  0  0
  5  7  1  0  0  0  0
  2  3  1  0  0  0  0
  2  4  1  0  0  0  0
  2  5  1  0  0  0  0
  1  2  1  0  0  0  0
 22 23  2  0  0  0  0
 22 24  1  0  0  0  0
 18 19  1  0  0  0  0
 18 20  1  0  0  0  0
 18 21  1  0  0  0  0
 17 18  1  0  0  0  0
 14 15  1  0  0  0  0
 14 16  1  0  0  0  0
 14 17  1  0  0  0  0
 11 12  1  0  0  0  0
 11 13  1  0  0  0  0
 11 14  1  0  0  0  0
  9 10  1  0  0  0  0
  9 11  1  0  0  0  0
  9 22  1  0  0  0  0
  7  8  1  0  0  0  0
  7  9  1  0  0  0  0
 26 27  1  0  0  0  0
 26 28  1  0  0  0  0
 26 29  1  0  0  0  0
 24 25  1  0  0  0  0
 24 26  1  0  0  0  0
M  END
$$$$
default_name
  -OEChem-02102213163D

 29 28  0     1  0  0  0  0  0999 V2000
   -3.5781   -3.7296    1.2702 H   0  0  0  0  0  0  0  0  0  0  0  0
   -3.5311   -2.7616    0.7732 C   0  0  0  0  0  0  0  0  0  0  0  0
   -4.2371   -2.0766    1.2382 H   0  0  0  0  0  0  0  0  0  0  0  0
   -3.7681   -2.8816   -0.2818 H   0  0  0  0  0  0  0  0  0  0  0  0
   -2.1321   -2.2086    0.9112 C   0  0  0  0  0  0  0  0  0  0  0  0
   -1.2751   -2.8426    1.5112 O   0  0  0  0  0  0  0  0  0  0  0  0
   -1.9041   -1.0186    0.3602 N   0  0  0  0  0  0  0  0  0  0  0  0
   -2.6671   -0.5416   -0.0988 H   0  0  0  0  0  0  0  0  0  0  0  0
   -0.6131   -0.3236    0.3832 C   0  0  1  0  0  0  0  0  0  0  0  0
    0.1346   -0.9625   -0.0894 H   0  0  0  0  0  0  0  0  0  0  0  0
   -0.7253    0.9751   -0.4365 C   0  0  0  0  0  0  0  0  0  0  0  0
   -0.7382    0.7200   -1.4983 H   0  0  0  0  0  0  0  0  0  0  0  0
   -1.6651    1.4734   -0.1942 H   0  0  0  0  0  0  0  0  0  0  0  0
    0.4269    1.9559   -0.1906 C   0  0  0  0  0  0  0  0  0  0  0  0
    0.9694    1.6529    0.7044 H   0  0  0  0  0  0  0  0  0  0  0  0
    1.1069    1.9182   -1.0424 H   0  0  0  0  0  0  0  0  0  0  0  0
   -0.1140    3.6696    0.0335 S   0  0  0  0  0  0  0  0  0  0  0  0
   -0.6828    4.0371   -1.6468 C   0  0  0  0  0  0  0  0  0  0  0  0
   -1.4886    3.3550   -1.9196 H   0  0  0  0  0  0  0  0  0  0  0  0
   -1.0511    5.0625   -1.6875 H   0  0  0  0  0  0  0  0  0  0  0  0
    0.1447    3.9251   -2.3479 H   0  0  0  0  0  0  0  0  0  0  0  0
   -0.1711   -0.0594    1.8296 C   0  0  0  0  0  0  0  0  0  0  0  0
    0.9865   -0.2908    2.1726 O   0  0  0  0  0  0  0  0  0  0  0  0
   -1.0921    0.4156    2.6780 N   0  0  0  0  0  0  0  0  0  0  0  0
   -2.0168    0.5953    2.3206 H   0  0  0  0  0  0  0  0  0  0  0  0
   -0.8319    0.7034    4.0877 C   0  0  0  0  0  0  0  0  0  0  0  0
   -0.0192    1.4288    4.1710 H   0  0  0  0  0  0  0  0  0  0  0  0
   -1.7255    1.1088    4.5641 H   0  0  0  0  0  0  0  0  0  0  0  0
   -0.5319   -0.2118    4.6011 H   0  0  0  0  0  0  0  0  0  0  0  0
  5  6  2  0  0  0  0
  5  7  1  0  0  0  0
  2  3  1  0  0  0  0
  2  4  1  0  0  0  0
  2  5  1  0  0  0  0
  1  2  1  0  0  0  0
 22 23  2  0  0  0  0
 22 24  1  0  0  0  0
 18 19  1  0  0  0  0
 18 20  1  0  0  0  0
 18 21  1  0  0  0  0
 17 18  1  0  0  0  0
 14 15  1  0  0  0  0
 14 16  1  0  0  0  0
 14 17  1  0  0  0  0
 11 12  1  0  0  0  0
 11 13  1  0  0  0  0
 11 14  1  0  0  0  0
  9 10  1  0  0  0  0
  9 11  1  0  0  0  0
  9 22  1  0  0  0  0
  7  8  1  0  0  0  0
  7  9  1  0  0  0  0
 26 27  1  0  0  0  0
 26 28  1  0  0  0  0
 26 29  1  0  0  0  0
 24 25  1  0  0  0  0
 24 26  1  0  0  0  0
M  END
$$$$
default_name
  -OEChem-02102213163D

 29 28  0     1  0  0  0  0  0999 V2000
   -3.5781   -3.7296    1.2702 H   0  0  0  0  0  0  0  0  0  0  0  0
   -3.5311   -2.7616    0.7732 C   0  0  0  0  0  0  0  0  0  0  0  0
   -4.2371   -2.0766    1.2382 H   0  0  0  0  0  0  0  0  0  0  0  0
   -3.7681   -2.8816   -0.2818 H   0  0  0  0  0  0  0  0  0  0  0  0
   -2.1321   -2.2086    0.9112 C   0  0  0  0  0  0  0  0  0  0  0  0
   -1.2751   -2.8426    1.5112 O   0  0  0  0  0  0  0  0  0  0  0  0
   -1.9041   -1.0186    0.3602 N   0  0  0  0  0  0  0  0  0  0  0  0
   -2.6671   -0.5416   -0.0988 H   0  0  0  0  0  0  0  0  0  0  0  0
   -0.6131   -0.3236    0.3832 C   0  0  1  0  0  0  0  0  0  0  0  0
    0.1346   -0.9625   -0.0894 H   0  0  0  0  0  0  0  0  0  0  0  0
   -0.7253    0.9751   -0.4365 C   0  0  0  0  0  0  0  0  0  0  0  0
   -0.7382    0.7200   -1.4983 H   0  0  0  0  0  0  0  0  0  0  0  0
   -1.6651    1.4734   -0.1942 H   0  0  0  0  0  0  0  0  0  0  0  0
    0.4269    1.9559   -0.1906 C   0  0  0  0  0  0  0  0  0  0  0  0
    1.1209    1.5194    0.5271 H   0  0  0  0  0  0  0  0  0  0  0  0
    0.9532    2.1210   -1.1314 H   0  0  0  0  0  0  0  0  0  0  0  0
   -0.1110    3.5610    0.4528 S   0  0  0  0  0  0  0  0  0  0  0  0
   -0.9657    4.2091   -1.0071 C   0  0  0  0  0  0  0  0  0  0  0  0
   -1.7888    3.5463   -1.2758 H   0  0  0  0  0  0  0  0  0  0  0  0
   -1.3613    5.2004   -0.7839 H   0  0  0  0  0  0  0  0  0  0  0  0
   -0.2667    4.2813   -1.8408 H   0  0  0  0  0  0  0  0  0  0  0  0
   -0.1711   -0.0594    1.8296 C   0  0  0  0  0  0  0  0  0  0  0  0
    0.9865   -0.2908    2.1726 O   0  0  0  0  0  0  0  0  0  0  0  0
   -1.0921    0.4156    2.6780 N   0  0  0  0  0  0  0  0  0  0  0  0
   -2.0168    0.5953    2.3206 H   0  0  0  0  0  0  0  0  0  0  0  0
   -0.8319    0.7034    4.0877 C   0  0  0  0  0  0  0  0  0  0  0  0
   -0.0192    1.4288    4.1710 H   0  0  0  0  0  0  0  0  0  0  0  0
   -1.7255    1.1088    4.5641 H   0  0  0  0  0  0  0  0  0  0  0  0
   -0.5319   -0.2118    4.6011 H   0  0  0  0  0  0  0  0  0  0  0  0
  5  6  2  0  0  0  0
  5  7  1  0  0  0  0
  2  3  1  0  0  0  0
  2  4  1  0  0  0  0
  2  5  1  0  0  0  0
  1  2  1  0  0  0  0
 22 23  2  0  0  0  0
 22 24  1  0  0  0  0
 18 19  1  0  0  0  0
 18 20  1  0  0  0  0
 18 21  1  0  0  0  0
 17 18  1  0  0  0  0
 14 15  1  0  0  0  0
 14 16  1  0  0  0  0
 14 17  1  0  0  0  0
 11 12  1  0  0  0  0
 11 13  1  0  0  0  0
 11 14  1  0  0  0  0
  9 10  1  0  0  0  0
  9 11  1  0  0  0  0
  9 22  1  0  0  0  0
  7  8  1  0  0  0  0
  7  9  1  0  0  0  0
 26 27  1  0  0  0  0
 26 28  1  0  0  0  0
 26 29  1  0  0  0  0
 24 25  1  0  0  0  0
 24 26  1  0  0  0  0
M  END
$$$$
default_name
  -OEChem-02102213163D

 29 28  0     1  0  0  0  0  0999 V2000
   -3.5781   -3.7296    1.2702 H   0  0  0  0  0  0  0  0  0  0  0  0
   -3.5311   -2.7616    0.7732 C   0  0  0  0  0  0  0  0  0  0  0  0
   -4.2371   -2.0766    1.2382 H   0  0  0  0  0  0  0  0  0  0  0  0
   -3.7681   -2.8816   -0.2818 H   0  0  0  0  0  0  0  0  0  0  0  0
   -2.1321   -2.2086    0.9112 C   0  0  0  0  0  0  0  0  0  0  0  0
   -1.2751   -2.8426    1.5112 O   0  0  0  0  0  0  0  0  0  0  0  0
   -1.9041   -1.0186    0.3602 N   0  0  0  0  0  0  0  0  0  0  0  0
   -2.6671   -0.5416   -0.0988 H   0  0  0  0  0  0  0  0  0  0  0  0
   -0.6131   -0.3236    0.3832 C   0  0  1  0  0  0  0  0  0  0  0  0
    0.1346   -0.9625   -0.0894 H   0  0  0  0  0  0  0  0  0  0  0  0
   -0.7253    0.9751   -0.4365 C   0  0  0  0  0  0  0  0  0  0  0  0
   -0.7382    0.7200   -1.4983 H   0  0  0  0  0  0  0  0  0  0  0  0
   -1.6651    1.4734   -0.1942 H   0  0  0  0  0  0  0  0  0  0  0  0
    0.4269    1.9559   -0.1906 C   0  0  0  0  0  0  0  0  0  0  0  0
    1.2433    1.4313    0.3048 H   0  0  0  0  0  0  0  0  0  0  0  0
    0.7816    2.3279   -1.1525 H   0  0  0  0  0  0  0  0  0  0  0  0
   -0.0342    3.3747    0.8362 S   0  0  0  0  0  0  0  0  0  0  0  0
   -1.1403    4.2391   -0.3089 C   0  0  0  0  0  0  0  0  0  0  0  0
   -1.9800    3.5933   -0.5670 H   0  0  0  0  0  0  0  0  0  0  0  0
   -1.5171    5.1449    0.1670 H   0  0  0  0  0  0  0  0  0  0  0  0
   -0.5949    4.5096   -1.2135 H   0  0  0  0  0  0  0  0  0  0  0  0
   -0.1711   -0.0594    1.8296 C   0  0  0  0  0  0  0  0  0  0  0  0
    0.9865   -0.2908    2.1726 O   0  0  0  0  0  0  0  0  0  0  0  0
   -1.0921    0.4156    2.6780 N   0  0  0  0  0  0  0  0  0  0  0  0
   -2.0168    0.5953    2.3206 H   0  0  0  0  0  0  0  0  0  0  0  0
   -0.8319    0.7034    4.0877 C   0  0  0  0  0  0  0  0  0  0  0  0
   -0.0192    1.4288    4.1710 H   0  0  0  0  0  0  0  0  0  0  0  0
   -1.7255    1.1088    4.5641 H   0  0  0  0  0  0  0  0  0  0  0  0
   -0.5319   -0.2118    4.6011 H   0  0  0  0  0  0  0  0  0  0  0  0
  5  6  2  0  0  0  0
  5  7  1  0  0  0  0
  2  3  1  0  0  0  0
  2  4  1  0  0  0  0
  2  5  1  0  0  0  0
  1  2  1  0  0  0  0
 22 23  2  0  0  0  0
 22 24  1  0  0  0  0
 18 19  1  0  0  0  0
 18 20  1  0  0  0  0
 18 21  1  0  0  0  0
 17 18  1  0  0  0  0
 14 15  1  0  0  0  0
 14 16  1  0  0  0  0
 14 17  1  0  0  0  0
 11 12  1  0  0  0  0
 11 13  1  0  0  0  0
 11 14  1  0  0  0  0
  9 10  1  0  0  0  0
  9 11  1  0  0  0  0
  9 22  1  0  0  0  0
  7  8  1  0  0  0  0
  7  9  1  0  0  0  0
 26 27  1  0  0  0  0
 26 28  1  0  0  0  0
 26 29  1  0  0  0  0
 24 25  1  0  0  0  0
 24 26  1  0  0  0  0
M  END
$$$$
default_name
  -OEChem-02102213163D

 29 28  0     1  0  0  0  0  0999 V2000
   -3.5781   -3.7296    1.2702 H   0  0  0  0  0  0  0  0  0  0  0  0
   -3.5311   -2.7616    0.7732 C   0  0  0  0  0  0  0  0  0  0  0  0
   -4.2371   -2.0766    1.2382 H   0  0  0  0  0  0  0  0  0  0  0  0
   -3.7681   -2.8816   -0.2818 H   0  0  0  0  0  0  0  0  0  0  0  0
   -2.1321   -2.2086    0.9112 C   0  0  0  0  0  0  0  0  0  0  0  0
   -1.2751   -2.8426    1.5112 O   0  0  0  0  0  0  0  0  0  0  0  0
   -1.9041   -1.0186    0.3602 N   0  0  0  0  0  0  0  0  0  0  0  0
   -2.6671   -0.5416   -0.0988 H   0  0  0  0  0  0  0  0  0  0  0  0
   -0.6131   -0.3236    0.3832 C   0  0  1  0  0  0  0  0  0  0  0  0
    0.1346   -0.9625   -0.0894 H   0  0  0  0  0  0  0  0  0  0  0  0
   -0.7253    0.9751   -0.4365 C   0  0  0  0  0  0  0  0  0  0  0  0
   -0.7382    0.7200   -1.4983 H   0  0  0  0  0  0  0  0  0  0  0  0
   -1.6651    1.4734   -0.1942 H   0  0  0  0  0  0  0  0  0  0  0  0
    0.4269    1.9559   -0.1906 C   0  0  0  0  0  0  0  0  0  0  0  0
    1.3285    1.3945    0.0526 H   0  0  0  0  0  0  0  0  0  0  0  0
    0.6037    2.5247   -1.1041 H   0  0  0  0  0  0  0  0  0  0  0  0
    0.1112    3.1233    1.1575 S   0  0  0  0  0  0  0  0  0  0  0  0
   -1.1945    4.1250    0.4003 C   0  0  0  0  0  0  0  0  0  0  0  0
   -2.0494    3.4929    0.1584 H   0  0  0  0  0  0  0  0  0  0  0  0
   -1.5077    4.8998    1.1006 H   0  0  0  0  0  0  0  0  0  0  0  0
   -0.8175    4.5944   -0.5088 H   0  0  0  0  0  0  0  0  0  0  0  0
   -0.1711   -0.0594    1.8296 C   0  0  0  0  0  0  0  0  0  0  0  0
    0.9865   -0.2908    2.1726 O   0  0  0  0  0  0  0  0  0  0  0  0
   -1.0921    0.4156    2.6780 N   0  0  0  0  0  0  0  0  0  0  0  0
   -2.0168    0.5953    2.3206 H   0  0  0  0  0  0  0  0  0  0  0  0
   -0.8319    0.7034    4.0877 C   0  0  0  0  0  0  0  0  0  0  0  0
   -0.0192    1.4288    4.1710 H   0  0  0  0  0  0  0  0  0  0  0  0
   -1.7255    1.1088    4.5641 H   0  0  0  0  0  0  0  0  0  0  0  0
   -0.5319   -0.2118    4.6011 H   0  0  0  0  0  0  0  0  0  0  0  0
  5  6  2  0  0  0  0
  5  7  1  0  0  0  0
  2  3  1  0  0  0  0
  2  4  1  0  0  0  0
  2  5  1  0  0  0  0
  1  2  1  0  0  0  0
 22 23  2  0  0  0  0
 22 24  1  0  0  0  0
 18 19  1  0  0  0  0
 18 20  1  0  0  0  0
 18 21  1  0  0  0  0
 17 18  1  0  0  0  0
 14 15  1  0  0  0  0
 14 16  1  0  0  0  0
 14 17  1  0  0  0  0
 11 12  1  0  0  0  0
 11 13  1  0  0  0  0
 11 14  1  0  0  0  0
  9 10  1  0  0  0  0
  9 11  1  0  0  0  0
  9 22  1  0  0  0  0
  7  8  1  0  0  0  0
  7  9  1  0  0  0  0
 26 27  1  0  0  0  0
 26 28  1  0  0  0  0
 26 29  1  0  0  0  0
 24 25  1  0  0  0  0
 24 26  1  0  0  0  0
M  END
$$$$
default_name
  -OEChem-02102213163D

 29 28  0     1  0  0  0  0  0999 V2000
   -3.5781   -3.7296    1.2702 H   0  0  0  0  0  0  0  0  0  0  0  0
   -3.5311   -2.7616    0.7732 C   0  0  0  0  0  0  0  0  0  0  0  0
   -4.2371   -2.0766    1.2382 H   0  0  0  0  0  0  0  0  0  0  0  0
   -3.7681   -2.8816   -0.2818 H   0  0  0  0  0  0  0  0  0  0  0  0
   -2.1321   -2.2086    0.9112 C   0  0  0  0  0  0  0  0  0  0  0  0
   -1.2751   -2.8426    1.5112 O   0  0  0  0  0  0  0  0  0  0  0  0
   -1.9041   -1.0186    0.3602 N   0  0  0  0  0  0  0  0  0  0  0  0
   -2.6671   -0.5416   -0.0988 H   0  0  0  0  0  0  0  0  0  0  0  0
   -0.6131   -0.3236    0.3832 C   0  0  1  0  0  0  0  0  0  0  0  0
    0.1346   -0.9625   -0.0894 H   0  0  0  0  0  0  0  0  0  0  0  0
   -0.7253    0.9751   -0.4365 C   0  0  0  0  0  0  0  0  0  0  0  0
   -0.7382    0.7200   -1.4983 H   0  0  0  0  0  0  0  0  0  0  0  0
   -1.6651    1.4734   -0.1942 H   0  0  0  0  0  0  0  0  0  0  0  0
    0.4269    1.9559   -0.1906 C   0  0  0  0  0  0  0  0  0  0  0  0
    1.3705    1.4115   -0.2122 H   0  0  0  0  0  0  0  0  0  0  0  0
    0.4318    2.6980   -0.9897 H   0  0  0  0  0  0  0  0  0  0  0  0
    0.3153    2.8240    1.3949 S   0  0  0  0  0  0  0  0  0  0  0  0
   -1.1247    3.8746    1.0720 C   0  0  0  0  0  0  0  0  0  0  0  0
   -1.9921    3.2519    0.8511 H   0  0  0  0  0  0  0  0  0  0  0  0
   -1.3339    4.4819    1.9531 H   0  0  0  0  0  0  0  0  0  0  0  0
   -0.9194    4.5301    0.2252 H   0  0  0  0  0  0  0  0  0  0  0  0
   -0.1711   -0.0594    1.8296 C   0  0  0  0  0  0  0  0  0  0  0  0
    0.9865   -0.2908    2.1726 O   0  0  0  0  0  0  0  0  0  0  0  0
   -1.0921    0.4156    2.6780 N   0  0  0  0  0  0  0  0  0  0  0  0
   -2.0168    0.5953    2.3206 H   0  0  0  0  0  0  0  0  0  0  0  0
   -0.8319    0.7034    4.0877 C   0  0  0  0  0  0  0  0  0  0  0  0
   -0.0192    1.4288    4.1710 H   0  0  0  0  0  0  0  0  0  0  0  0
   -1.7255    1.1088    4.5641 H   0  0  0  0  0  0  0  0  0  0  0  0
   -0.5319   -0.2118    4.6011 H   0  0  0  0  0  0  0  0  0  0  0  0
  5  6  2  0  0  0  0
  5  7  1  0  0  0  0
  2  3  1  0  0  0  0
  2  4  1  0  0  0  0
  2  5  1  0  0  0  0
  1  2  1  0  0  0  0
 22 23  2  0  0  0  0
 22 24  1  0  0  0  0
 18 19  1  0  0  0  0
 18 20  1  0  0  0  0
 18 21  1  0  0  0  0
 17 18  1  0  0  0  0
 14 15  1  0  0  0  0
 14 16  1  0  0  0  0
 14 17  1  0  0  0  0
 11 12  1  0  0  0  0
 11 13  1  0  0  0  0
 11 14  1  0  0  0  0
  9 10  1  0  0  0  0
  9 11  1  0  0  0  0
  9 22  1  0  0  0  0
  7  8  1  0  0  0  0
  7  9  1  0  0  0  0
 26 27  1  0  0  0  0
 26 28  1  0  0  0  0
 26 29  1  0  0  0  0
 24 25  1  0  0  0  0
 24 26  1  0  0  0  0
M  END
$$$$
default_name
  -OEChem-02102213163D

 29 28  0     1  0  0  0  0  0999 V2000
   -3.5781   -3.7296    1.2702 H   0  0  0  0  0  0  0  0  0  0  0  0
   -3.5311   -2.7616    0.7732 C   0  0  0  0  0  0  0  0  0  0  0  0
   -4.2371   -2.0766    1.2382 H   0  0  0  0  0  0  0  0  0  0  0  0
   -3.7681   -2.8816   -0.2818 H   0  0  0  0  0  0  0  0  0  0  0  0
   -2.1321   -2.2086    0.9112 C   0  0  0  0  0  0  0  0  0  0  0  0
   -1.2751   -2.8426    1.5112 O   0  0  0  0  0  0  0  0  0  0  0  0
   -1.9041   -1.0186    0.3602 N   0  0  0  0  0  0  0  0  0  0  0  0
   -2.6671   -0.5416   -0.0988 H   0  0  0  0  0  0  0  0  0  0  0  0
   -0.6131   -0.3236    0.3832 C   0  0  1  0  0  0  0  0  0  0  0  0
    0.1346   -0.9625   -0.0894 H   0  0  0  0  0  0  0  0  0  0  0  0
   -0.7253    0.9751   -0.4365 C   0  0  0  0  0  0  0  0  0  0  0  0
   -0.7382    0.7200   -1.4983 H   0  0  0  0  0  0  0  0  0  0  0  0
   -1.6651    1.4734   -0.1942 H   0  0  0  0  0  0  0  0  0  0  0  0
    0.4269    1.9559   -0.1906 C   0  0  0  0  0  0  0  0  0  0  0  0
    1.3665    1.4813   -0.4717 H   0  0  0  0  0  0  0  0  0  0  0  0
    0.2774    2.8360   -0.8170 H   0  0  0  0  0  0  0  0  0  0  0  0
    0.5642    2.4972    1.5322 S   0  0  0  0  0  0  0  0  0  0  0  0
   -0.9357    3.5050    1.6606 C   0  0  0  0  0  0  0  0  0  0  0  0
   -1.8120    2.8867    1.4638 H   0  0  0  0  0  0  0  0  0  0  0  0
   -1.0075    3.9196    2.6665 H   0  0  0  0  0  0  0  0  0  0  0  0
   -0.8936    4.3209    0.9385 H   0  0  0  0  0  0  0  0  0  0  0  0
   -0.1711   -0.0594    1.8296 C   0  0  0  0  0  0  0  0  0  0  0  0
    0.9865   -0.2908    2.1726 O   0  0  0  0  0  0  0  0  0  0  0  0
   -1.0921    0.4156    2.6780 N   0  0  0  0  0  0  0  0  0  0  0  0
   -2.0168    0.5953    2.3206 H   0  0  0  0  0  0  0  0  0  0  0  0
   -0.8319    0.7034    4.0877 C   0  0  0  0  0  0  0  0  0  0  0  0
   -0.0192    1.4288    4.1710 H   0  0  0  0  0  0  0  0  0  0  0  0
   -1.7255    1.1088    4.5641 H   0  0  0  0  0  0  0  0  0  0  0  0
   -0.5319   -0.2118    4.6011 H   0  0  0  0  0  0  0  0  0  0  0  0
  5  6  2  0  0  0  0
  5  7  1  0  0  0  0
  2  3  1  0  0  0  0
  2  4  1  0  0  0  0
  2  5  1  0  0  0  0
  1  2  1  0  0  0  0
 22 23  2  0  0  0  0
 22 24  1  0  0  0  0
 18 19  1  0  0  0  0
 18 20  1  0  0  0  0
 18 21  1  0  0  0  0
 17 18  1  0  0  0  0
 14 15  1  0  0  0  0
 14 16  1  0  0  0  0
 14 17  1  0  0  0  0
 11 12  1  0  0  0  0
 11 13  1  0  0  0  0
 11 14  1  0  0  0  0
  9 10  1  0  0  0  0
  9 11  1  0  0  0  0
  9 22  1  0  0  0  0
  7  8  1  0  0  0  0
  7  9  1  0  0  0  0
 26 27  1  0  0  0  0
 26 28  1  0  0  0  0
 26 29  1  0  0  0  0
 24 25  1  0  0  0  0
 24 26  1  0  0  0  0
M  END
$$$$
default_name
  -OEChem-02102213163D

 29 28  0     1  0  0  0  0  0999 V2000
   -3.5781   -3.7296    1.2702 H   0  0  0  0  0  0  0  0  0  0  0  0
   -3.5311   -2.7616    0.7732 C   0  0  0  0  0  0  0  0  0  0  0  0
   -4.2371   -2.0766    1.2382 H   0  0  0  0  0  0  0  0  0  0  0  0
   -3.7681   -2.8816   -0.2818 H   0  0  0  0  0  0  0  0  0  0  0  0
   -2.1321   -2.2086    0.9112 C   0  0  0  0  0  0  0  0  0  0  0  0
   -1.2751   -2.8426    1.5112 O   0  0  0  0  0  0  0  0  0  0  0  0
   -1.9041   -1.0186    0.3602 N   0  0  0  0  0  0  0  0  0  0  0  0
   -2.6671   -0.5416   -0.0988 H   0  0  0  0  0  0  0  0  0  0  0  0
   -0.6131   -0.3236    0.3832 C   0  0  1  0  0  0  0  0  0  0  0  0
    0.1346   -0.9625   -0.0894 H   0  0  0  0  0  0  0  0  0  0  0  0
   -0.7253    0.9751   -0.4365 C   0  0  0  0  0  0  0  0  0  0  0  0
   -0.7382    0.7200   -1.4983 H   0  0  0  0  0  0  0  0  0  0  0  0
   -1.6651    1.4734   -0.1942 H   0  0  0  0  0  0  0  0  0  0  0  0
    0.4269    1.9559   -0.1906 C   0  0  0  0  0  0  0  0  0  0  0  0
    1.3168    1.5989   -0.7081 H   0  0  0  0  0  0  0  0  0  0  0  0
    0.1512    2.9293   -0.5978 H   0  0  0  0  0  0  0  0  0  0  0  0
    0.8409    2.1652    1.5600 S   0  0  0  0  0  0  0  0  0  0  0  0
   -0.6402    3.0413    2.1260 C   0  0  0  0  0  0  0  0  0  0  0  0
   -1.5215    2.4223    1.9547 H   0  0  0  0  0  0  0  0  0  0  0  0
   -0.5507    3.2512    3.1922 H   0  0  0  0  0  0  0  0  0  0  0  0
   -0.7418    3.9811    1.5826 H   0  0  0  0  0  0  0  0  0  0  0  0
   -0.1711   -0.0594    1.8296 C   0  0  0  0  0  0  0  0  0  0  0  0
    0.9865   -0.2908    2.1726 O   0  0  0  0  0  0  0  0  0  0  0  0
   -1.0921    0.4156    2.6780 N   0  0  0  0  0  0  0  0  0  0  0  0
   -2.0168    0.5953    2.3206 H   0  0  0  0  0  0  0  0  0  0  0  0
   -0.8319    0.7034    4.0877 C   0  0  0  0  0  0  0  0  0  0  0  0
   -0.0192    1.4288    4.1710 H   0  0  0  0  0  0  0  0  0  0  0  0
   -1.7255    1.1088    4.5641 H   0  0  0  0  0  0  0  0  0  0  0  0
   -0.5319   -0.2118    4.6011 H   0  0  0  0  0  0  0  0  0  0  0  0
  5  6  2  0  0  0  0
  5  7  1  0  0  0  0
  2  3  1  0  0  0  0
  2  4  1  0  0  0  0
  2  5  1  0  0  0  0
  1  2  1  0  0  0  0
 22 23  2  0  0  0  0
 22 24  1  0  0  0  0
 18 19  1  0  0  0  0
 18 20  1  0  0  0  0
 18 21  1  0  0  0  0
 17 18  1  0  0  0  0
 14 15  1  0  0  0  0
 14 16  1  0  0  0  0
 14 17  1  0  0  0  0
 11 12  1  0  0  0  0
 11 13  1  0  0  0  0
 11 14  1  0  0  0  0
  9 10  1  0  0  0  0
  9 11  1  0  0  0  0
  9 22  1  0  0  0  0
  7  8  1  0  0  0  0
  7  9  1  0  0  0  0
 26 27  1  0  0  0  0
 26 28  1  0  0  0  0
 26 29  1  0  0  0  0
 24 25  1  0  0  0  0
 24 26  1  0  0  0  0
M  END
$$$$
default_name
  -OEChem-02102213163D

 29 28  0     1  0  0  0  0  0999 V2000
   -3.5781   -3.7296    1.2702 H   0  0  0  0  0  0  0  0  0  0  0  0
   -3.5311   -2.7616    0.7732 C   0  0  0  0  0  0  0  0  0  0  0  0
   -4.2371   -2.0766    1.2382 H   0  0  0  0  0  0  0  0  0  0  0  0
   -3.7681   -2.8816   -0.2818 H   0  0  0  0  0  0  0  0  0  0  0  0
   -2.1321   -2.2086    0.9112 C   0  0  0  0  0  0  0  0  0  0  0  0
   -1.2751   -2.8426    1.5112 O   0  0  0  0  0  0  0  0  0  0  0  0
   -1.9041   -1.0186    0.3602 N   0  0  0  0  0  0  0  0  0  0  0  0
   -2.6671   -0.5416   -0.0988 H   0  0  0  0  0  0  0  0  0  0  0  0
   -0.6131   -0.3236    0.3832 C   0  0  1  0  0  0  0  0  0  0  0  0
    0.1346   -0.9625   -0.0894 H   0  0  0  0  0  0  0  0  0  0  0  0
   -0.7253    0.9751   -0.4365 C   0  0  0  0  0  0  0  0  0  0  0  0
   -0.7382    0.7200   -1.4983 H   0  0  0  0  0  0  0  0  0  0  0  0
   -1.6651    1.4734   -0.1942 H   0  0  0  0  0  0  0  0  0  0  0  0
    0.4269    1.9559   -0.1906 C   0  0  0  0  0  0  0  0  0  0  0  0
    1.2247    1.7565   -0.9053 H   0  0  0  0  0  0  0  0  0  0  0  0
    0.0617    2.9716   -0.3470 H   0  0  0  0  0  0  0  0  0  0  0  0
    1.1266    1.8505    1.4765 S   0  0  0  0  0  0  0  0  0  0  0  0
   -0.2586    2.5151    2.4363 C   0  0  0  0  0  0  0  0  0  0  0  0
   -1.1402    1.8903    2.2905 H   0  0  0  0  0  0  0  0  0  0  0  0
    0.0053    2.5224    3.4942 H   0  0  0  0  0  0  0  0  0  0  0  0
   -0.4745    3.5340    2.1135 H   0  0  0  0  0  0  0  0  0  0  0  0
   -0.1711   -0.0594    1.8296 C   0  0  0  0  0  0  0  0  0  0  0  0
    0.9865   -0.2908    2.1726 O   0  0  0  0  0  0  0  0  0  0  0  0
   -1.0921    0.4156    2.6780 N   0  0  0  0  0  0  0  0  0  0  0  0
   -2.0168    0.5953    2.3206 H   0  0  0  0  0  0  0  0  0  0  0  0
   -0.8319    0.7034    4.0877 C   0  0  0  0  0  0  0  0  0  0  0  0
   -0.0192    1.4288    4.1710 H   0  0  0  0  0  0  0  0  0  0  0  0
   -1.7255    1.1088    4.5641 H   0  0  0  0  0  0  0  0  0  0  0  0
   -0.5319   -0.2118    4.6011 H   0  0  0  0  0  0  0  0  0  0  0  0
  5  6  2  0  0  0  0
  5  7  1  0  0  0  0
  2  3  1  0  0  0  0
  2  4  1  0  0  0  0
  2  5  1  0  0  0  0
  1  2  1  0  0  0  0
 22 23  2  0  0  0  0
 22 24  1  0  0  0  0
 18 19  1  0  0  0  0
 18 20  1  0  0  0  0
 18 21  1  0  0  0  0
 17 18  1  0  0  0  0
 14 15  1  0  0  0  0
 14 16  1  0  0  0  0
 14 17  1  0  0  0  0
 11 12  1  0  0  0  0
 11 13  1  0  0  0  0
 11 14  1  0  0  0  0
  9 10  1  0  0  0  0
  9 11  1  0  0  0  0
  9 22  1  0  0  0  0
  7  8  1  0  0  0  0
  7  9  1  0  0  0  0
 26 27  1  0  0  0  0
 26 28  1  0  0  0  0
 26 29  1  0  0  0  0
 24 25  1  0  0  0  0
 24 26  1  0  0  0  0
M  END
$$$$
default_name
  -OEChem-02102213163D

 29 28  0     1  0  0  0  0  0999 V2000
   -3.5781   -3.7296    1.2702 H   0  0  0  0  0  0  0  0  0  0  0  0
   -3.5311   -2.7616    0.7732 C   0  0  0  0  0  0  0  0  0  0  0  0
   -4.2371   -2.0766    1.2382 H   0  0  0  0  0  0  0  0  0  0  0  0
   -3.7681   -2.8816   -0.2818 H   0  0  0  0  0  0  0  0  0  0  0  0
   -2.1321   -2.2086    0.9112 C   0  0  0  0  0  0  0  0  0  0  0  0
   -1.2751   -2.8426    1.5112 O   0  0  0  0  0  0  0  0  0  0  0  0
   -1.9041   -1.0186    0.3602 N   0  0  0  0  0  0  0  0  0  0  0  0
   -2.6671   -0.5416   -0.0988 H   0  0  0  0  0  0  0  0  0  0  0  0
   -0.6131   -0.3236    0.3832 C   0  0  1  0  0  0  0  0  0  0  0  0
    0.1346   -0.9625   -0.0894 H   0  0  0  0  0  0  0  0  0  0  0  0
   -0.7253    0.9751   -0.4365 C   0  0  0  0  0  0  0  0  0  0  0  0
   -0.7382    0.7200   -1.4983 H   0  0  0  0  0  0  0  0  0  0  0  0
   -1.6651    1.4734   -0.1942 H   0  0  0  0  0  0  0  0  0  0  0  0
    0.4269    1.9559   -0.1906 C   0  0  0  0  0  0  0  0  0  0  0  0
    1.0966    1.9433   -1.0499 H   0  0  0  0  0  0  0  0  0  0  0  0
    0.0151    2.9599   -0.0817 H   0  0  0  0  0  0  0  0  0  0  0  0
    1.4018    1.5747    1.2872 S   0  0  0  0  0  0  0  0  0  0  0  0
    0.1834    1.9623    2.5706 C   0  0  0  0  0  0  0  0  0  0  0  0
   -0.6943    1.3269    2.4482 H   0  0  0  0  0  0  0  0  0  0  0  0
    0.6227    1.7826    3.5522 H   0  0  0  0  0  0  0  0  0  0  0  0
   -0.1098    3.0099    2.4951 H   0  0  0  0  0  0  0  0  0  0  0  0
   -0.1711   -0.0594    1.8296 C   0  0  0  0  0  0  0  0  0  0  0  0
    0.9865   -0.2908    2.1726 O   0  0  0  0  0  0  0  0  0  0  0  0
   -1.0921    0.4156    2.6780 N   0  0  0  0  0  0  0  0  0  0  0  0
   -2.0168    0.5953    2.3206 H   0  0  0  0  0  0  0  0  0  0  0  0
   -0.8319    0.7034    4.0877 C   0  0  0  0  0  0  0  0  0  0  0  0
   -0.0192    1.4288    4.1710 H   0  0  0  0  0  0  0  0  0  0  0  0
   -1.7255    1.1088    4.5641 H   0  0  0  0  0  0  0  0  0  0  0  0
   -0.5319   -0.2118    4.6011 H   0  0  0  0  0  0  0  0  0  0  0  0
  5  6  2  0  0  0  0
  5  7  1  0  0  0  0
  2  3  1  0  0  0  0
  2  4  1  0  0  0  0
  2  5  1  0  0  0  0
  1  2  1  0  0  0  0
 22 23  2  0  0  0  0
 22 24  1  0  0  0  0
 18 19  1  0  0  0  0
 18 20  1  0  0  0  0
 18 21  1  0  0  0  0
 17 18  1  0  0  0  0
 14 15  1  0  0  0  0
 14 16  1  0  0  0  0
 14 17  1  0  0  0  0
 11 12  1  0  0  0  0
 11 13  1  0  0  0  0
 11 14  1  0  0  0  0
  9 10  1  0  0  0  0
  9 11  1  0  0  0  0
  9 22  1  0  0  0  0
  7  8  1  0  0  0  0
  7  9  1  0  0  0  0
 26 27  1  0  0  0  0
 26 28  1  0  0  0  0
 26 29  1  0  0  0  0
 24 25  1  0  0  0  0
 24 26  1  0  0  0  0
M  END
$$$$
default_name
  -OEChem-02102213163D

 29 28  0     1  0  0  0  0  0999 V2000
   -3.5781   -3.7296    1.2702 H   0  0  0  0  0  0  0  0  0  0  0  0
   -3.5311   -2.7616    0.7732 C   0  0  0  0  0  0  0  0  0  0  0  0
   -4.2371   -2.0766    1.2382 H   0  0  0  0  0  0  0  0  0  0  0  0
   -3.7681   -2.8816   -0.2818 H   0  0  0  0  0  0  0  0  0  0  0  0
   -2.1321   -2.2086    0.9112 C   0  0  0  0  0  0  0  0  0  0  0  0
   -1.2751   -2.8426    1.5112 O   0  0  0  0  0  0  0  0  0  0  0  0
   -1.9041   -1.0186    0.3602 N   0  0  0  0  0  0  0  0  0  0  0  0
   -2.6671   -0.5416   -0.0988 H   0  0  0  0  0  0  0  0  0  0  0  0
   -0.6131   -0.3236    0.3832 C   0  0  1  0  0  0  0  0  0  0  0  0
    0.1346   -0.9625   -0.0894 H   0  0  0  0  0  0  0  0  0  0  0  0
   -0.7253    0.9751   -0.4365 C   0  0  0  0  0  0  0  0  0  0  0  0
   -0.7382    0.7200   -1.4983 H   0  0  0  0  0  0  0  0  0  0  0  0
   -1.6651    1.4734   -0.1942 H   0  0  0  0  0  0  0  0  0  0  0  0
    0.4269    1.9559   -0.1906 C   0  0  0  0  0  0  0  0  0  0  0  0
    0.9412    2.1465   -1.1320 H   0  0  0  0  0  0  0  0  0  0  0  0
    0.0144    2.8950    0.1800 H   0  0  0  0  0  0  0  0  0  0  0  0
    1.6477    1.3565    1.0053 S   0  0  0  0  0  0  0  0  0  0  0  0
    0.6554    1.4207    2.5195 C   0  0  0  0  0  0  0  0  0  0  0  0
   -0.2140    0.7706    2.4172 H   0  0  0  0  0  0  0  0  0  0  0  0
    1.2593    1.0825    3.3620 H   0  0  0  0  0  0  0  0  0  0  0  0
    0.3275    2.4445    2.7013 H   0  0  0  0  0  0  0  0  0  0  0  0
   -0.1711   -0.0594    1.8296 C   0  0  0  0  0  0  0  0  0  0  0  0
    0.9865   -0.2908    2.1726 O   0  0  0  0  0  0  0  0  0  0  0  0
   -1.0921    0.4156    2.6780 N   0  0  0  0  0  0  0  0  0  0  0  0
   -2.0168    0.5953    2.3206 H   0  0  0  0  0  0  0  0  0  0  0  0
   -0.8319    0.7034    4.0877 C   0  0  0  0  0  0  0  0  0  0  0  0
   -0.0192    1.4288    4.1710 H   0  0  0  0  0  0  0  0  0  0  0  0
   -1.7255    1.1088    4.5641 H   0  0  0  0  0  0  0  0  0  0  0  0
   -0.5319   -0.2118    4.6011 H   0  0  0  0  0  0  0  0  0  0  0  0
  5  6  2  0  0  0  0
  5  7  1  0  0  0  0
  2  3  1  0  0  0  0
  2  4  1  0  0  0  0
  2  5  1  0  0  0  0
  1  2  1  0  0  0  0
 22 23  2  0  0  0  0
 22 24  1  0  0  0  0
 18 19  1  0  0  0  0
 18 20  1  0  0  0  0
 18 21  1  0  0  0  0
 17 18  1  0  0  0  0
 14 15  1  0  0  0  0
 14 16  1  0  0  0  0
 14 17  1  0  0  0  0
 11 12  1  0  0  0  0
 11 13  1  0  0  0  0
 11 14  1  0  0  0  0
  9 10  1  0  0  0  0
  9 11  1  0  0  0  0
  9 22  1  0  0  0  0
  7  8  1  0  0  0  0
  7  9  1  0  0  0  0
 26 27  1  0  0  0  0
 26 28  1  0  0  0  0
 26 29  1  0  0  0  0
 24 25  1  0  0  0  0
 24 26  1  0  0  0  0
M  END
$$$$
default_name
  -OEChem-02102213163D

 29 28  0     1  0  0  0  0  0999 V2000
   -3.5781   -3.7296    1.2702 H   0  0  0  0  0  0  0  0  0  0  0  0
   -3.5311   -2.7616    0.7732 C   0  0  0  0  0  0  0  0  0  0  0  0
   -4.2371   -2.0766    1.2382 H   0  0  0  0  0  0  0  0  0  0  0  0
   -3.7681   -2.8816   -0.2818 H   0  0  0  0  0  0  0  0  0  0  0  0
   -2.1321   -2.2086    0.9112 C   0  0  0  0  0  0  0  0  0  0  0  0
   -1.2751   -2.8426    1.5112 O   0  0  0  0  0  0  0  0  0  0  0  0
   -1.9041   -1.0186    0.3602 N   0  0  0  0  0  0  0  0  0  0  0  0
   -2.6671   -0.5416   -0.0988 H   0  0  0  0  0  0  0  0  0  0  0  0
   -0.6131   -0.3236    0.3832 C   0  0  1  0  0  0  0  0  0  0  0  0
    0.1346   -0.9625   -0.0894 H   0  0  0  0  0  0  0  0  0  0  0  0
   -0.7253    0.9751   -0.4365 C   0  0  0  0  0  0  0  0  0  0  0  0
   -0.7382    0.7200   -1.4983 H   0  0  0  0  0  0  0  0  0  0  0  0
   -1.6651    1.4734   -0.1942 H   0  0  0  0  0  0  0  0  0  0  0  0
    0.4269    1.9559   -0.1906 C   0  0  0  0  0  0  0  0  0  0  0  0
    0.7690    2.3523   -1.1461 H   0  0  0  0  0  0  0  0  0  0  0  0
    0.0598    2.7815    0.4203 H   0  0  0  0  0  0  0  0  0  0  0  0
    1.8476    1.2108    0.6497 S   0  0  0  0  0  0  0  0  0  0  0  0
    1.1254    0.9270    2.2867 C   0  0  0  0  0  0  0  0  0  0  0  0
    0.2678    0.2592    2.1994 H   0  0  0  0  0  0  0  0  0  0  0  0
    1.8718    0.4696    2.9367 H   0  0  0  0  0  0  0  0  0  0  0  0
    0.8075    1.8765    2.7181 H   0  0  0  0  0  0  0  0  0  0  0  0
   -0.1711   -0.0594    1.8296 C   0  0  0  0  0  0  0  0  0  0  0  0
    0.9865   -0.2908    2.1726 O   0  0  0  0  0  0  0  0  0  0  0  0
   -1.0921    0.4156    2.6780 N   0  0  0  0  0  0  0  0  0  0  0  0
   -2.0168    0.5953    2.3206 H   0  0  0  0  0  0  0  0  0  0  0  0
   -0.8319    0.7034    4.0877 C   0  0  0  0  0  0  0  0  0  0  0  0
   -0.0192    1.4288    4.1710 H   0  0  0  0  0  0  0  0  0  0  0  0
   -1.7255    1.1088    4.5641 H   0  0  0  0  0  0  0  0  0  0  0  0
   -0.5319   -0.2118    4.6011 H   0  0  0  0  0  0  0  0  0  0  0  0
  5  6  2  0  0  0  0
  5  7  1  0  0  0  0
  2  3  1  0  0  0  0
  2  4  1  0  0  0  0
  2  5  1  0  0  0  0
  1  2  1  0  0  0  0
 22 23  2  0  0  0  0
 22 24  1  0  0  0  0
 18 19  1  0  0  0  0
 18 20  1  0  0  0  0
 18 21  1  0  0  0  0
 17 18  1  0  0  0  0
 14 15  1  0  0  0  0
 14 16  1  0  0  0  0
 14 17  1  0  0  0  0
 11 12  1  0  0  0  0
 11 13  1  0  0  0  0
 11 14  1  0  0  0  0
  9 10  1  0  0  0  0
  9 11  1  0  0  0  0
  9 22  1  0  0  0  0
  7  8  1  0  0  0  0
  7  9  1  0  0  0  0
 26 27  1  0  0  0  0
 26 28  1  0  0  0  0
 26 29  1  0  0  0  0
 24 25  1  0  0  0  0
 24 26  1  0  0  0  0
M  END
$$$$
default_name
  -OEChem-02102213163D

 29 28  0     1  0  0  0  0  0999 V2000
   -3.5781   -3.7296    1.2702 H   0  0  0  0  0  0  0  0  0  0  0  0
   -3.5311   -2.7616    0.7732 C   0  0  0  0  0  0  0  0  0  0  0  0
   -4.2371   -2.0766    1.2382 H   0  0  0  0  0  0  0  0  0  0  0  0
   -3.7681   -2.8816   -0.2818 H   0  0  0  0  0  0  0  0  0  0  0  0
   -2.1321   -2.2086    0.9112 C   0  0  0  0  0  0  0  0  0  0  0  0
   -1.2751   -2.8426    1.5112 O   0  0  0  0  0  0  0  0  0  0  0  0
   -1.9041   -1.0186    0.3602 N   0  0  0  0  0  0  0  0  0  0  0  0
   -2.6671   -0.5416   -0.0988 H   0  0  0  0  0  0  0  0  0  0  0  0
   -0.6131   -0.3236    0.3832 C   0  0  1  0  0  0  0  0  0  0  0  0
    0.1346   -0.9625   -0.0894 H   0  0  0  0  0  0  0  0  0  0  0  0
   -0.7253    0.9751   -0.4365 C   0  0  0  0  0  0  0  0  0  0  0  0
   -0.7382    0.7200   -1.4983 H   0  0  0  0  0  0  0  0  0  0  0  0
   -1.6651    1.4734   -0.1942 H   0  0  0  0  0  0  0  0  0  0  0  0
    0.4269    1.9559   -0.1906 C   0  0  0  0  0  0  0  0  0  0  0  0
    0.5918    2.5466   -1.0911 H   0  0  0  0  0  0  0  0  0  0  0  0
    0.1482    2.6269    0.6227 H   0  0  0  0  0  0  0  0  0  0  0  0
    1.9879    1.1476    0.2448 S   0  0  0  0  0  0  0  0  0  0  0  0
    1.5613    0.5149    1.8879 C   0  0  0  0  0  0  0  0  0  0  0  0
    0.7184   -0.1725    1.8097 H   0  0  0  0  0  0  0  0  0  0  0  0
    2.4184   -0.0142    2.3052 H   0  0  0  0  0  0  0  0  0  0  0  0
    1.2974    1.3445    2.5444 H   0  0  0  0  0  0  0  0  0  0  0  0
   -0.1711   -0.0594    1.8296 C   0  0  0  0  0  0  0  0  0  0  0  0
    0.9865   -0.2908    2.1726 O   0  0  0  0  0  0  0  0  0  0  0  0
   -1.0921    0.4156    2.6780 N   0  0  0  0  0  0  0  0  0  0  0  0
   -2.0168    0.5953    2.3206 H   0  0  0  0  0  0  0  0  0  0  0  0
   -0.8319    0.7034    4.0877 C   0  0  0  0  0  0  0  0  0  0  0  0
   -0.0192    1.4288    4.1710 H   0  0  0  0  0  0  0  0  0  0  0  0
   -1.7255    1.1088    4.5641 H   0  0  0  0  0  0  0  0  0  0  0  0
   -0.5319   -0.2118    4.6011 H   0  0  0  0  0  0  0  0  0  0  0  0
  5  6  2  0  0  0  0
  5  7  1  0  0  0  0
  2  3  1  0  0  0  0
  2  4  1  0  0  0  0
  2  5  1  0  0  0  0
  1  2  1  0  0  0  0
 22 23  2  0  0  0  0
 22 24  1  0  0  0  0
 18 19  1  0  0  0  0
 18 20  1  0  0  0  0
 18 21  1  0  0  0  0
 17 18  1  0  0  0  0
 14 15  1  0  0  0  0
 14 16  1  0  0  0  0
 14 17  1  0  0  0  0
 11 12  1  0  0  0  0
 11 13  1  0  0  0  0
 11 14  1  0  0  0  0
  9 10  1  0  0  0  0
  9 11  1  0  0  0  0
  9 22  1  0  0  0  0
  7  8  1  0  0  0  0
  7  9  1  0  0  0  0
 26 27  1  0  0  0  0
 26 28  1  0  0  0  0
 26 29  1  0  0  0  0
 24 25  1  0  0  0  0
 24 26  1  0  0  0  0
M  END
$$$$
default_name
  -OEChem-02102213163D

 29 28  0     1  0  0  0  0  0999 V2000
   -3.5781   -3.7296    1.2702 H   0  0  0  0  0  0  0  0  0  0  0  0
   -3.5311   -2.7616    0.7732 C   0  0  0  0  0  0  0  0  0  0  0  0
   -4.2371   -2.0766    1.2382 H   0  0  0  0  0  0  0  0  0  0  0  0
   -3.7681   -2.8816   -0.2818 H   0  0  0  0  0  0  0  0  0  0  0  0
   -2.1321   -2.2086    0.9112 C   0  0  0  0  0  0  0  0  0  0  0  0
   -1.2751   -2.8426    1.5112 O   0  0  0  0  0  0  0  0  0  0  0  0
   -1.9041   -1.0186    0.3602 N   0  0  0  0  0  0  0  0  0  0  0  0
   -2.6671   -0.5416   -0.0988 H   0  0  0  0  0  0  0  0  0  0  0  0
   -0.6131   -0.3236    0.3832 C   0  0  1  0  0  0  0  0  0  0  0  0
    0.1346   -0.9625   -0.0894 H   0  0  0  0  0  0  0  0  0  0  0  0
   -0.7253    0.9751   -0.4365 C   0  0  0  0  0  0  0  0  0  0  0  0
   -0.7382    0.7200   -1.4983 H   0  0  0  0  0  0  0  0  0  0  0  0
   -1.6651    1.4734   -0.1942 H   0  0  0  0  0  0  0  0  0  0  0  0
    0.4269    1.9559   -0.1906 C   0  0  0  0  0  0  0  0  0  0  0  0
    0.4217    2.7163   -0.9709 H   0  0  0  0  0  0  0  0  0  0  0  0
    0.2735    2.4419    0.7736 H   0  0  0  0  0  0  0  0  0  0  0  0
    2.0590    1.1710   -0.1818 S   0  0  0  0  0  0  0  0  0  0  0  0
    1.9334    0.2125    1.3503 C   0  0  0  0  0  0  0  0  0  0  0  0
    1.1070   -0.4949    1.2748 H   0  0  0  0  0  0  0  0  0  0  0  0
    2.8620   -0.3360    1.5106 H   0  0  0  0  0  0  0  0  0  0  0  0
    1.7640    0.8847    2.1919 H   0  0  0  0  0  0  0  0  0  0  0  0
   -0.1711   -0.0594    1.8296 C   0  0  0  0  0  0  0  0  0  0  0  0
    0.9865   -0.2908    2.1726 O   0  0  0  0  0  0  0  0  0  0  0  0
   -1.0921    0.4156    2.6780 N   0  0  0  0  0  0  0  0  0  0  0  0
   -2.0168    0.5953    2.3206 H   0  0  0  0  0  0  0  0  0  0  0  0
   -0.8319    0.7034    4.0877 C   0  0  0  0  0  0  0  0  0  0  0  0
   -0.0192    1.4288    4.1710 H   0  0  0  0  0  0  0  0  0  0  0  0
   -1.7255    1.1088    4.5641 H   0  0  0  0  0  0  0  0  0  0  0  0
   -0.5319   -0.2118    4.6011 H   0  0  0  0  0  0  0  0  0  0  0  0
  5  6  2  0  0  0  0
  5  7  1  0  0  0  0
  2  3  1  0  0  0  0
  2  4  1  0  0  0  0
  2  5  1  0  0  0  0
  1  2  1  0  0  0  0
 22 23  2  0  0  0  0
 22 24  1  0  0  0  0
 18 19  1  0  0  0  0
 18 20  1  0  0  0  0
 18 21  1  0  0  0  0
 17 18  1  0  0  0  0
 14 15  1  0  0  0  0
 14 16  1  0  0  0  0
 14 17  1  0  0  0  0
 11 12  1  0  0  0  0
 11 13  1  0  0  0  0
 11 14  1  0  0  0  0
  9 10  1  0  0  0  0
  9 11  1  0  0  0  0
  9 22  1  0  0  0  0
  7  8  1  0  0  0  0
  7  9  1  0  0  0  0
 26 27  1  0  0  0  0
 26 28  1  0  0  0  0
 26 29  1  0  0  0  0
 24 25  1  0  0  0  0
 24 26  1  0  0  0  0
M  END
$$$$
default_name
  -OEChem-02102213163D

 29 28  0     1  0  0  0  0  0999 V2000
   -3.5781   -3.7296    1.2702 H   0  0  0  0  0  0  0  0  0  0  0  0
   -3.5311   -2.7616    0.7732 C   0  0  0  0  0  0  0  0  0  0  0  0
   -4.2371   -2.0766    1.2382 H   0  0  0  0  0  0  0  0  0  0  0  0
   -3.7681   -2.8816   -0.2818 H   0  0  0  0  0  0  0  0  0  0  0  0
   -2.1321   -2.2086    0.9112 C   0  0  0  0  0  0  0  0  0  0  0  0
   -1.2751   -2.8426    1.5112 O   0  0  0  0  0  0  0  0  0  0  0  0
   -1.9041   -1.0186    0.3602 N   0  0  0  0  0  0  0  0  0  0  0  0
   -2.6671   -0.5416   -0.0988 H   0  0  0  0  0  0  0  0  0  0  0  0
   -0.6131   -0.3236    0.3832 C   0  0  1  0  0  0  0  0  0  0  0  0
    0.1346   -0.9625   -0.0894 H   0  0  0  0  0  0  0  0  0  0  0  0
   -0.7253    0.9751   -0.4365 C   0  0  0  0  0  0  0  0  0  0  0  0
   -0.7382    0.7200   -1.4983 H   0  0  0  0  0  0  0  0  0  0  0  0
   -1.6651    1.4734   -0.1942 H   0  0  0  0  0  0  0  0  0  0  0  0
    0.4269    1.9559   -0.1906 C   0  0  0  0  0  0  0  0  0  0  0  0
    0.2702    2.8498   -0.7936 H   0  0  0  0  0  0  0  0  0  0  0  0
    0.4271    2.2390    0.8626 H   0  0  0  0  0  0  0  0  0  0  0  0
    2.0560    1.2797   -0.6010 S   0  0  0  0  0  0  0  0  0  0  0  0
    2.2164    0.0405    0.7106 C   0  0  0  0  0  0  0  0  0  0  0  0
    1.4072   -0.6861    0.6310 H   0  0  0  0  0  0  0  0  0  0  0  0
    3.1722   -0.4739    0.6070 H   0  0  0  0  0  0  0  0  0  0  0  0
    2.1755    0.5286    1.6848 H   0  0  0  0  0  0  0  0  0  0  0  0
   -0.1711   -0.0594    1.8296 C   0  0  0  0  0  0  0  0  0  0  0  0
    0.9865   -0.2908    2.1726 O   0  0  0  0  0  0  0  0  0  0  0  0
   -1.0921    0.4156    2.6780 N   0  0  0  0  0  0  0  0  0  0  0  0
   -2.0168    0.5953    2.3206 H   0  0  0  0  0  0  0  0  0  0  0  0
   -0.8319    0.7034    4.0877 C   0  0  0  0  0  0  0  0  0  0  0  0
   -0.0192    1.4288    4.1710 H   0  0  0  0  0  0  0  0  0  0  0  0
   -1.7255    1.1088    4.5641 H   0  0  0  0  0  0  0  0  0  0  0  0
   -0.5319   -0.2118    4.6011 H   0  0  0  0  0  0  0  0  0  0  0  0
  5  6  2  0  0  0  0
  5  7  1  0  0  0  0
  2  3  1  0  0  0  0
  2  4  1  0  0  0  0
  2  5  1  0  0  0  0
  1  2  1  0  0  0  0
 22 23  2  0  0  0  0
 22 24  1  0  0  0  0
 18 19  1  0  0  0  0
 18 20  1  0  0  0  0
 18 21  1  0  0  0  0
 17 18  1  0  0  0  0
 14 15  1  0  0  0  0
 14 16  1  0  0  0  0
 14 17  1  0  0  0  0
 11 12  1  0  0  0  0
 11 13  1  0  0  0  0
 11 14  1  0  0  0  0
  9 10  1  0  0  0  0
  9 11  1  0  0  0  0
  9 22  1  0  0  0  0
  7  8  1  0  0  0  0
  7  9  1  0  0  0  0
 26 27  1  0  0  0  0
 26 28  1  0  0  0  0
 26 29  1  0  0  0  0
 24 25  1  0  0  0  0
 24 26  1  0  0  0  0
M  END
$$$$
default_name
  -OEChem-02102213163D

 29 28  0     1  0  0  0  0  0999 V2000
   -3.5781   -3.7296    1.2702 H   0  0  0  0  0  0  0  0  0  0  0  0
   -3.5311   -2.7616    0.7732 C   0  0  0  0  0  0  0  0  0  0  0  0
   -4.2371   -2.0766    1.2382 H   0  0  0  0  0  0  0  0  0  0  0  0
   -3.7681   -2.8816   -0.2818 H   0  0  0  0  0  0  0  0  0  0  0  0
   -2.1321   -2.2086    0.9112 C   0  0  0  0  0  0  0  0  0  0  0  0
   -1.2751   -2.8426    1.5112 O   0  0  0  0  0  0  0  0  0  0  0  0
   -1.9041   -1.0186    0.3602 N   0  0  0  0  0  0  0  0  0  0  0  0
   -2.6671   -0.5416   -0.0988 H   0  0  0  0  0  0  0  0  0  0  0  0
   -0.6131   -0.3236    0.3832 C   0  0  1  0  0  0  0  0  0  0  0  0
    0.1346   -0.9625   -0.0894 H   0  0  0  0  0  0  0  0  0  0  0  0
   -0.7253    0.9751   -0.4365 C   0  0  0  0  0  0  0  0  0  0  0  0
   -0.7382    0.7200   -1.4983 H   0  0  0  0  0  0  0  0  0  0  0  0
   -1.6651    1.4734   -0.1942 H   0  0  0  0  0  0  0  0  0  0  0  0
    0.4269    1.9559   -0.1906 C   0  0  0  0  0  0  0  0  0  0  0  0
    0.1478    2.9379   -0.5712 H   0  0  0  0  0  0  0  0  0  0  0  0
    0.5988    2.0322    0.8837 H   0  0  0  0  0  0  0  0  0  0  0  0
    1.9792    1.4660   -0.9844 S   0  0  0  0  0  0  0  0  0  0  0  0
    2.3909    0.0105    0.0124 C   0  0  0  0  0  0  0  0  0  0  0  0
    1.5985   -0.7331   -0.0778 H   0  0  0  0  0  0  0  0  0  0  0  0
    3.3279   -0.4184   -0.3439 H   0  0  0  0  0  0  0  0  0  0  0  0
    2.5037    0.3003    1.0575 H   0  0  0  0  0  0  0  0  0  0  0  0
   -0.1711   -0.0594    1.8296 C   0  0  0  0  0  0  0  0  0  0  0  0
    0.9865   -0.2908    2.1726 O   0  0  0  0  0  0  0  0  0  0  0  0
   -1.0921    0.4156    2.6780 N   0  0  0  0  0  0  0  0  0  0  0  0
   -2.0168    0.5953    2.3206 H   0  0  0  0  0  0  0  0  0  0  0  0
   -0.8319    0.7034    4.0877 C   0  0  0  0  0  0  0  0  0  0  0  0
   -0.0192    1.4288    4.1710 H   0  0  0  0  0  0  0  0  0  0  0  0
   -1.7255    1.1088    4.5641 H   0  0  0  0  0  0  0  0  0  0  0  0
   -0.5319   -0.2118    4.6011 H   0  0  0  0  0  0  0  0  0  0  0  0
  5  6  2  0  0  0  0
  5  7  1  0  0  0  0
  2  3  1  0  0  0  0
  2  4  1  0  0  0  0
  2  5  1  0  0  0  0
  1  2  1  0  0  0  0
 22 23  2  0  0  0  0
 22 24  1  0  0  0  0
 18 19  1  0  0  0  0
 18 20  1  0  0  0  0
 18 21  1  0  0  0  0
 17 18  1  0  0  0  0
 14 15  1  0  0  0  0
 14 16  1  0  0  0  0
 14 17  1  0  0  0  0
 11 12  1  0  0  0  0
 11 13  1  0  0  0  0
 11 14  1  0  0  0  0
  9 10  1  0  0  0  0
  9 11  1  0  0  0  0
  9 22  1  0  0  0  0
  7  8  1  0  0  0  0
  7  9  1  0  0  0  0
 26 27  1  0  0  0  0
 26 28  1  0  0  0  0
 26 29  1  0  0  0  0
 24 25  1  0  0  0  0
 24 26  1  0  0  0  0
M  END
$$$$
default_name
  -OEChem-02102213163D

 29 28  0     1  0  0  0  0  0999 V2000
   -3.5781   -3.7296    1.2702 H   0  0  0  0  0  0  0  0  0  0  0  0
   -3.5311   -2.7616    0.7732 C   0  0  0  0  0  0  0  0  0  0  0  0
   -4.2371   -2.0766    1.2382 H   0  0  0  0  0  0  0  0  0  0  0  0
   -3.7681   -2.8816   -0.2818 H   0  0  0  0  0  0  0  0  0  0  0  0
   -2.1321   -2.2086    0.9112 C   0  0  0  0  0  0  0  0  0  0  0  0
   -1.2751   -2.8426    1.5112 O   0  0  0  0  0  0  0  0  0  0  0  0
   -1.9041   -1.0186    0.3602 N   0  0  0  0  0  0  0  0  0  0  0  0
   -2.6671   -0.5416   -0.0988 H   0  0  0  0  0  0  0  0  0  0  0  0
   -0.6131   -0.3236    0.3832 C   0  0  1  0  0  0  0  0  0  0  0  0
    0.1346   -0.9625   -0.0894 H   0  0  0  0  0  0  0  0  0  0  0  0
   -0.7253    0.9751   -0.4365 C   0  0  0  0  0  0  0  0  0  0  0  0
   -0.7382    0.7200   -1.4983 H   0  0  0  0  0  0  0  0  0  0  0  0
   -1.6651    1.4734   -0.1942 H   0  0  0  0  0  0  0  0  0  0  0  0
    0.4269    1.9559   -0.1906 C   0  0  0  0  0  0  0  0  0  0  0  0
    0.0626    2.9747   -0.3191 H   0  0  0  0  0  0  0  0  0  0  0  0
    0.7766    1.8354    0.8354 H   0  0  0  0  0  0  0  0  0  0  0  0
    1.8337    1.7174   -1.3057 S   0  0  0  0  0  0  0  0  0  0  0  0
    2.4451    0.1246   -0.6967 C   0  0  0  0  0  0  0  0  0  0  0  0
    1.6678   -0.6327   -0.8032 H   0  0  0  0  0  0  0  0  0  0  0  0
    3.3185   -0.1733   -1.2775 H   0  0  0  0  0  0  0  0  0  0  0  0
    2.7263    0.2155    0.3529 H   0  0  0  0  0  0  0  0  0  0  0  0
   -0.1711   -0.0594    1.8296 C   0  0  0  0  0  0  0  0  0  0  0  0
    0.9865   -0.2908    2.1726 O   0  0  0  0  0  0  0  0  0  0  0  0
   -1.0921    0.4156    2.6780 N   0  0  0  0  0  0  0  0  0  0  0  0
   -2.0168    0.5953    2.3206 H   0  0  0  0  0  0  0  0  0  0  0  0
   -0.8319    0.7034    4.0877 C   0  0  0  0  0  0  0  0  0  0  0  0
   -0.0192    1.4288    4.1710 H   0  0  0  0  0  0  0  0  0  0  0  0
   -1.7255    1.1088    4.5641 H   0  0  0  0  0  0  0  0  0  0  0  0
   -0.5319   -0.2118    4.6011 H   0  0  0  0  0  0  0  0  0  0  0  0
  5  6  2  0  0  0  0
  5  7  1  0  0  0  0
  2  3  1  0  0  0  0
  2  4  1  0  0  0  0
  2  5  1  0  0  0  0
  1  2  1  0  0  0  0
 22 23  2  0  0  0  0
 22 24  1  0  0  0  0
 18 19  1  0  0  0  0
 18 20  1  0  0  0  0
 18 21  1  0  0  0  0
 17 18  1  0  0  0  0
 14 15  1  0  0  0  0
 14 16  1  0  0  0  0
 14 17  1  0  0  0  0
 11 12  1  0  0  0  0
 11 13  1  0  0  0  0
 11 14  1  0  0  0  0
  9 10  1  0  0  0  0
  9 11  1  0  0  0  0
  9 22  1  0  0  0  0
  7  8  1  0  0  0  0
  7  9  1  0  0  0  0
 26 27  1  0  0  0  0
 26 28  1  0  0  0  0
 26 29  1  0  0  0  0
 24 25  1  0  0  0  0
 24 26  1  0  0  0  0
M  END
$$$$
default_name
  -OEChem-02102213163D

 29 28  0     1  0  0  0  0  0999 V2000
   -3.5781   -3.7296    1.2702 H   0  0  0  0  0  0  0  0  0  0  0  0
   -3.5311   -2.7616    0.7732 C   0  0  0  0  0  0  0  0  0  0  0  0
   -4.2371   -2.0766    1.2382 H   0  0  0  0  0  0  0  0  0  0  0  0
   -3.7681   -2.8816   -0.2818 H   0  0  0  0  0  0  0  0  0  0  0  0
   -2.1321   -2.2086    0.9112 C   0  0  0  0  0  0  0  0  0  0  0  0
   -1.2751   -2.8426    1.5112 O   0  0  0  0  0  0  0  0  0  0  0  0
   -1.9041   -1.0186    0.3602 N   0  0  0  0  0  0  0  0  0  0  0  0
   -2.6671   -0.5416   -0.0988 H   0  0  0  0  0  0  0  0  0  0  0  0
   -0.6131   -0.3236    0.3832 C   0  0  1  0  0  0  0  0  0  0  0  0
    0.1346   -0.9625   -0.0894 H   0  0  0  0  0  0  0  0  0  0  0  0
   -0.7253    0.9751   -0.4365 C   0  0  0  0  0  0  0  0  0  0  0  0
   -0.7382    0.7200   -1.4983 H   0  0  0  0  0  0  0  0  0  0  0  0
   -1.6651    1.4734   -0.1942 H   0  0  0  0  0  0  0  0  0  0  0  0
    0.4269    1.9559   -0.1906 C   0  0  0  0  0  0  0  0  0  0  0  0
    0.0206    2.9577   -0.0542 H   0  0  0  0  0  0  0  0  0  0  0  0
    0.9486    1.6620    0.7210 H   0  0  0  0  0  0  0  0  0  0  0  0
    1.6296    2.0167   -1.5431 S   0  0  0  0  0  0  0  0  0  0  0  0
    2.3754    0.3750   -1.3685 C   0  0  0  0  0  0  0  0  0  0  0  0
    1.6105   -0.3917   -1.4959 H   0  0  0  0  0  0  0  0  0  0  0  0
    3.1447    0.2446   -2.1300 H   0  0  0  0  0  0  0  0  0  0  0  0
    2.8282    0.2798   -0.3812 H   0  0  0  0  0  0  0  0  0  0  0  0
   -0.1711   -0.0594    1.8296 C   0  0  0  0  0  0  0  0  0  0  0  0
    0.9865   -0.2908    2.1726 O   0  0  0  0  0  0  0  0  0  0  0  0
   -1.0921    0.4156    2.6780 N   0  0  0  0  0  0  0  0  0  0  0  0
   -2.0168    0.5953    2.3206 H   0  0  0  0  0  0  0  0  0  0  0  0
   -0.8319    0.7034    4.0877 C   0  0  0  0  0  0  0  0  0  0  0  0
   -0.0192    1.4288    4.1710 H   0  0  0  0  0  0  0  0  0  0  0  0
   -1.7255    1.1088    4.5641 H   0  0  0  0  0  0  0  0  0  0  0  0
   -0.5319   -0.2118    4.6011 H   0  0  0  0  0  0  0  0  0  0  0  0
  5  6  2  0  0  0  0
  5  7  1  0  0  0  0
  2  3  1  0  0  0  0
  2  4  1  0  0  0  0
  2  5  1  0  0  0  0
  1  2  1  0  0  0  0
 22 23  2  0  0  0  0
 22 24  1  0  0  0  0
 18 19  1  0  0  0  0
 18 20  1  0  0  0  0
 18 21  1  0  0  0  0
 17 18  1  0  0  0  0
 14 15  1  0  0  0  0
 14 16  1  0  0  0  0
 14 17  1  0  0  0  0
 11 12  1  0  0  0  0
 11 13  1  0  0  0  0
 11 14  1  0  0  0  0
  9 10  1  0  0  0  0
  9 11  1  0  0  0  0
  9 22  1  0  0  0  0
  7  8  1  0  0  0  0
  7  9  1  0  0  0  0
 26 27  1  0  0  0  0
 26 28  1  0  0  0  0
 26 29  1  0  0  0  0
 24 25  1  0  0  0  0
 24 26  1  0  0  0  0
M  END
$$$$
default_name
  -OEChem-02102213163D

 29 28  0     1  0  0  0  0  0999 V2000
   -3.5781   -3.7296    1.2702 H   0  0  0  0  0  0  0  0  0  0  0  0
   -3.5311   -2.7616    0.7732 C   0  0  0  0  0  0  0  0  0  0  0  0
   -4.2371   -2.0766    1.2382 H   0  0  0  0  0  0  0  0  0  0  0  0
   -3.7681   -2.8816   -0.2818 H   0  0  0  0  0  0  0  0  0  0  0  0
   -2.1321   -2.2086    0.9112 C   0  0  0  0  0  0  0  0  0  0  0  0
   -1.2751   -2.8426    1.5112 O   0  0  0  0  0  0  0  0  0  0  0  0
   -1.9041   -1.0186    0.3602 N   0  0  0  0  0  0  0  0  0  0  0  0
   -2.6671   -0.5416   -0.0988 H   0  0  0  0  0  0  0  0  0  0  0  0
   -0.6131   -0.3236    0.3832 C   0  0  1  0  0  0  0  0  0  0  0  0
    0.1346   -0.9625   -0.0894 H   0  0  0  0  0  0  0  0  0  0  0  0
   -0.7253    0.9751   -0.4365 C   0  0  0  0  0  0  0  0  0  0  0  0
   -0.7382    0.7200   -1.4983 H   0  0  0  0  0  0  0  0  0  0  0  0
   -1.6651    1.4734   -0.1942 H   0  0  0  0  0  0  0  0  0  0  0  0
    0.4269    1.9559   -0.1906 C   0  0  0  0  0  0  0  0  0  0  0  0
    0.0246    2.8879    0.2052 H   0  0  0  0  0  0  0  0  0  0  0  0
    1.1029    1.5240    0.5483 H   0  0  0  0  0  0  0  0  0  0  0  0
    1.3807    2.3435   -1.6804 S   0  0  0  0  0  0  0  0  0  0  0  0
    2.1863    0.7446   -1.9571 C   0  0  0  0  0  0  0  0  0  0  0  0
    1.4305   -0.0266   -2.1086 H   0  0  0  0  0  0  0  0  0  0  0  0
    2.8183    0.8069   -2.8434 H   0  0  0  0  0  0  0  0  0  0  0  0
    2.8023    0.4890   -1.0945 H   0  0  0  0  0  0  0  0  0  0  0  0
   -0.1711   -0.0594    1.8296 C   0  0  0  0  0  0  0  0  0  0  0  0
    0.9865   -0.2908    2.1726 O   0  0  0  0  0  0  0  0  0  0  0  0
   -1.0921    0.4156    2.6780 N   0  0  0  0  0  0  0  0  0  0  0  0
   -2.0168    0.5953    2.3206 H   0  0  0  0  0  0  0  0  0  0  0  0
   -0.8319    0.7034    4.0877 C   0  0  0  0  0  0  0  0  0  0  0  0
   -0.0192    1.4288    4.1710 H   0  0  0  0  0  0  0  0  0  0  0  0
   -1.7255    1.1088    4.5641 H   0  0  0  0  0  0  0  0  0  0  0  0
   -0.5319   -0.2118    4.6011 H   0  0  0  0  0  0  0  0  0  0  0  0
  5  6  2  0  0  0  0
  5  7  1  0  0  0  0
  2  3  1  0  0  0  0
  2  4  1  0  0  0  0
  2  5  1  0  0  0  0
  1  2  1  0  0  0  0
 22 23  2  0  0  0  0
 22 24  1  0  0  0  0
 18 19  1  0  0  0  0
 18 20  1  0  0  0  0
 18 21  1  0  0  0  0
 17 18  1  0  0  0  0
 14 15  1  0  0  0  0
 14 16  1  0  0  0  0
 14 17  1  0  0  0  0
 11 12  1  0  0  0  0
 11 13  1  0  0  0  0
 11 14  1  0  0  0  0
  9 10  1  0  0  0  0
  9 11  1  0  0  0  0
  9 22  1  0  0  0  0
  7  8  1  0  0  0  0
  7  9  1  0  0  0  0
 26 27  1  0  0  0  0
 26 28  1  0  0  0  0
 26 29  1  0  0  0  0
 24 25  1  0  0  0  0
 24 26  1  0  0  0  0
M  END
$$$$
default_name
  -OEChem-02102213163D

 29 28  0     1  0  0  0  0  0999 V2000
   -3.5781   -3.7296    1.2702 H   0  0  0  0  0  0  0  0  0  0  0  0
   -3.5311   -2.7616    0.7732 C   0  0  0  0  0  0  0  0  0  0  0  0
   -4.2371   -2.0766    1.2382 H   0  0  0  0  0  0  0  0  0  0  0  0
   -3.7681   -2.8816   -0.2818 H   0  0  0  0  0  0  0  0  0  0  0  0
   -2.1321   -2.2086    0.9112 C   0  0  0  0  0  0  0  0  0  0  0  0
   -1.2751   -2.8426    1.5112 O   0  0  0  0  0  0  0  0  0  0  0  0
   -1.9041   -1.0186    0.3602 N   0  0  0  0  0  0  0  0  0  0  0  0
   -2.6671   -0.5416   -0.0988 H   0  0  0  0  0  0  0  0  0  0  0  0
   -0.6131   -0.3236    0.3832 C   0  0  1  0  0  0  0  0  0  0  0  0
    0.1346   -0.9625   -0.0894 H   0  0  0  0  0  0  0  0  0  0  0  0
   -0.7253    0.9751   -0.4365 C   0  0  0  0  0  0  0  0  0  0  0  0
   -0.7382    0.7200   -1.4983 H   0  0  0  0  0  0  0  0  0  0  0  0
   -1.6651    1.4734   -0.1942 H   0  0  0  0  0  0  0  0  0  0  0  0
    0.4269    1.9559   -0.1906 C   0  0  0  0  0  0  0  0  0  0  0  0
    0.0743    2.7703    0.4416 H   0  0  0  0  0  0  0  0  0  0  0  0
    1.2291    1.4307    0.3291 H   0  0  0  0  0  0  0  0  0  0  0  0
    1.1040    2.6755   -1.7083 S   0  0  0  0  0  0  0  0  0  0  0  0
    1.8909    1.2083   -2.4224 C   0  0  0  0  0  0  0  0  0  0  0  0
    1.1399    0.4378   -2.5995 H   0  0  0  0  0  0  0  0  0  0  0  0
    2.3615    1.4753   -3.3690 H   0  0  0  0  0  0  0  0  0  0  0  0
    2.6506    0.8288   -1.7386 H   0  0  0  0  0  0  0  0  0  0  0  0
   -0.1711   -0.0594    1.8296 C   0  0  0  0  0  0  0  0  0  0  0  0
    0.9865   -0.2908    2.1726 O   0  0  0  0  0  0  0  0  0  0  0  0
   -1.0921    0.4156    2.6780 N   0  0  0  0  0  0  0  0  0  0  0  0
   -2.0168    0.5953    2.3206 H   0  0  0  0  0  0  0  0  0  0  0  0
   -0.8319    0.7034    4.0877 C   0  0  0  0  0  0  0  0  0  0  0  0
   -0.0192    1.4288    4.1710 H   0  0  0  0  0  0  0  0  0  0  0  0
   -1.7255    1.1088    4.5641 H   0  0  0  0  0  0  0  0  0  0  0  0
   -0.5319   -0.2118    4.6011 H   0  0  0  0  0  0  0  0  0  0  0  0
  5  6  2  0  0  0  0
  5  7  1  0  0  0  0
  2  3  1  0  0  0  0
  2  4  1  0  0  0  0
  2  5  1  0  0  0  0
  1  2  1  0  0  0  0
 22 23  2  0  0  0  0
 22 24  1  0  0  0  0
 18 19  1  0  0  0  0
 18 20  1  0  0  0  0
 18 21  1  0  0  0  0
 17 18  1  0  0  0  0
 14 15  1  0  0  0  0
 14 16  1  0  0  0  0
 14 17  1  0  0  0  0
 11 12  1  0  0  0  0
 11 13  1  0  0  0  0
 11 14  1  0  0  0  0
  9 10  1  0  0  0  0
  9 11  1  0  0  0  0
  9 22  1  0  0  0  0
  7  8  1  0  0  0  0
  7  9  1  0  0  0  0
 26 27  1  0  0  0  0
 26 28  1  0  0  0  0
 26 29  1  0  0  0  0
 24 25  1  0  0  0  0
 24 26  1  0  0  0  0
M  END
$$$$
default_name
  -OEChem-02102213163D

 29 28  0     1  0  0  0  0  0999 V2000
   -3.5781   -3.7296    1.2702 H   0  0  0  0  0  0  0  0  0  0  0  0
   -3.5311   -2.7616    0.7732 C   0  0  0  0  0  0  0  0  0  0  0  0
   -4.2371   -2.0766    1.2382 H   0  0  0  0  0  0  0  0  0  0  0  0
   -3.7681   -2.8816   -0.2818 H   0  0  0  0  0  0  0  0  0  0  0  0
   -2.1321   -2.2086    0.9112 C   0  0  0  0  0  0  0  0  0  0  0  0
   -1.2751   -2.8426    1.5112 O   0  0  0  0  0  0  0  0  0  0  0  0
   -1.9041   -1.0186    0.3602 N   0  0  0  0  0  0  0  0  0  0  0  0
   -2.6671   -0.5416   -0.0988 H   0  0  0  0  0  0  0  0  0  0  0  0
   -0.6131   -0.3236    0.3832 C   0  0  1  0  0  0  0  0  0  0  0  0
    0.1346   -0.9625   -0.0894 H   0  0  0  0  0  0  0  0  0  0  0  0
   -0.7253    0.9751   -0.4365 C   0  0  0  0  0  0  0  0  0  0  0  0
   -0.7382    0.7200   -1.4983 H   0  0  0  0  0  0  0  0  0  0  0  0
   -1.6651    1.4734   -0.1942 H   0  0  0  0  0  0  0  0  0  0  0  0
    0.4269    1.9559   -0.1906 C   0  0  0  0  0  0  0  0  0  0  0  0
    0.1663    2.6127    0.6388 H   0  0  0  0  0  0  0  0  0  0  0  0
    1.3186    1.3885    0.0783 H   0  0  0  0  0  0  0  0  0  0  0  0
    0.8183    2.9902   -1.6247 S   0  0  0  0  0  0  0  0  0  0  0  0
    1.5092    1.7345   -2.7328 C   0  0  0  0  0  0  0  0  0  0  0  0
    0.7587    0.9699   -2.9353 H   0  0  0  0  0  0  0  0  0  0  0  0
    1.8055    2.2042   -3.6711 H   0  0  0  0  0  0  0  0  0  0  0  0
    2.3832    1.2759   -2.2695 H   0  0  0  0  0  0  0  0  0  0  0  0
   -0.1711   -0.0594    1.8296 C   0  0  0  0  0  0  0  0  0  0  0  0
    0.9865   -0.2908    2.1726 O   0  0  0  0  0  0  0  0  0  0  0  0
   -1.0921    0.4156    2.6780 N   0  0  0  0  0  0  0  0  0  0  0  0
   -2.0168    0.5953    2.3206 H   0  0  0  0  0  0  0  0  0  0  0  0
   -0.8319    0.7034    4.0877 C   0  0  0  0  0  0  0  0  0  0  0  0
   -0.0192    1.4288    4.1710 H   0  0  0  0  0  0  0  0  0  0  0  0
   -1.7255    1.1088    4.5641 H   0  0  0  0  0  0  0  0  0  0  0  0
   -0.5319   -0.2118    4.6011 H   0  0  0  0  0  0  0  0  0  0  0  0
  5  6  2  0  0  0  0
  5  7  1  0  0  0  0
  2  3  1  0  0  0  0
  2  4  1  0  0  0  0
  2  5  1  0  0  0  0
  1  2  1  0  0  0  0
 22 23  2  0  0  0  0
 22 24  1  0  0  0  0
 18 19  1  0  0  0  0
 18 20  1  0  0  0  0
 18 21  1  0  0  0  0
 17 18  1  0  0  0  0
 14 15  1  0  0  0  0
 14 16  1  0  0  0  0
 14 17  1  0  0  0  0
 11 12  1  0  0  0  0
 11 13  1  0  0  0  0
 11 14  1  0  0  0  0
  9 10  1  0  0  0  0
  9 11  1  0  0  0  0
  9 22  1  0  0  0  0
  7  8  1  0  0  0  0
  7  9  1  0  0  0  0
 26 27  1  0  0  0  0
 26 28  1  0  0  0  0
 26 29  1  0  0  0  0
 24 25  1  0  0  0  0
 24 26  1  0  0  0  0
M  END
$$$$
default_name
  -OEChem-02102213163D

 29 28  0     1  0  0  0  0  0999 V2000
   -3.5781   -3.7296    1.2702 H   0  0  0  0  0  0  0  0  0  0  0  0
   -3.5311   -2.7616    0.7732 C   0  0  0  0  0  0  0  0  0  0  0  0
   -4.2371   -2.0766    1.2382 H   0  0  0  0  0  0  0  0  0  0  0  0
   -3.7681   -2.8816   -0.2818 H   0  0  0  0  0  0  0  0  0  0  0  0
   -2.1321   -2.2086    0.9112 C   0  0  0  0  0  0  0  0  0  0  0  0
   -1.2751   -2.8426    1.5112 O   0  0  0  0  0  0  0  0  0  0  0  0
   -1.9041   -1.0186    0.3602 N   0  0  0  0  0  0  0  0  0  0  0  0
   -2.6671   -0.5416   -0.0988 H   0  0  0  0  0  0  0  0  0  0  0  0
   -0.6131   -0.3236    0.3832 C   0  0  1  0  0  0  0  0  0  0  0  0
    0.1346   -0.9625   -0.0894 H   0  0  0  0  0  0  0  0  0  0  0  0
   -0.7253    0.9751   -0.4365 C   0  0  0  0  0  0  0  0  0  0  0  0
   -0.7382    0.7200   -1.4983 H   0  0  0  0  0  0  0  0  0  0  0  0
   -1.6651    1.4734   -0.1942 H   0  0  0  0  0  0  0  0  0  0  0  0
    0.4269    1.9559   -0.1906 C   0  0  0  0  0  0  0  0  0  0  0  0
    0.2945    2.4259    0.7834 H   0  0  0  0  0  0  0  0  0  0  0  0
    1.3653    1.4002   -0.1870 H   0  0  0  0  0  0  0  0  0  0  0  0
    0.5431    3.2660   -1.4355 S   0  0  0  0  0  0  0  0  0  0  0  0
    1.0673    2.2873   -2.8670 C   0  0  0  0  0  0  0  0  0  0  0  0
    0.3127    1.5333   -3.0931 H   0  0  0  0  0  0  0  0  0  0  0  0
    1.1882    2.9439   -3.7291 H   0  0  0  0  0  0  0  0  0  0  0  0
    2.0185    1.8000   -2.6511 H   0  0  0  0  0  0  0  0  0  0  0  0
   -0.1711   -0.0594    1.8296 C   0  0  0  0  0  0  0  0  0  0  0  0
    0.9865   -0.2908    2.1726 O   0  0  0  0  0  0  0  0  0  0  0  0
   -1.0921    0.4156    2.6780 N   0  0  0  0  0  0  0  0  0  0  0  0
   -2.0168    0.5953    2.3206 H   0  0  0  0  0  0  0  0  0  0  0  0
   -0.8319    0.7034    4.0877 C   0  0  0  0  0  0  0  0  0  0  0  0
   -0.0192    1.4288    4.1710 H   0  0  0  0  0  0  0  0  0  0  0  0
   -1.7255    1.1088    4.5641 H   0  0  0  0  0  0  0  0  0  0  0  0
   -0.5319   -0.2118    4.6011 H   0  0  0  0  0  0  0  0  0  0  0  0
  5  6  2  0  0  0  0
  5  7  1  0  0  0  0
  2  3  1  0  0  0  0
  2  4  1  0  0  0  0
  2  5  1  0  0  0  0
  1  2  1  0  0  0  0
 22 23  2  0  0  0  0
 22 24  1  0  0  0  0
 18 19  1  0  0  0  0
 18 20  1  0  0  0  0
 18 21  1  0  0  0  0
 17 18  1  0  0  0  0
 14 15  1  0  0  0  0
 14 16  1  0  0  0  0
 14 17  1  0  0  0  0
 11 12  1  0  0  0  0
 11 13  1  0  0  0  0
 11 14  1  0  0  0  0
  9 10  1  0  0  0  0
  9 11  1  0  0  0  0
  9 22  1  0  0  0  0
  7  8  1  0  0  0  0
  7  9  1  0  0  0  0
 26 27  1  0  0  0  0
 26 28  1  0  0  0  0
 26 29  1  0  0  0  0
 24 25  1  0  0  0  0
 24 26  1  0  0  0  0
M  END
$$$$
