
  -OEChem-04042216023D

 29 28  0     1  0  0  0  0  0999 V2000
   -2.7006   -4.0520    0.6724 H   0  0  0  0  0  0  0  0  0  0  0  0
   -2.6542   -3.0844    0.1645 C   0  0  0  0  0  0  0  0  0  0  0  0
   -3.4497   -2.4447    0.5537 H   0  0  0  0  0  0  0  0  0  0  0  0
   -2.8115   -3.2421   -0.9052 H   0  0  0  0  0  0  0  0  0  0  0  0
   -1.3027   -2.4370    0.4003 C   0  0  0  0  0  0  0  0  0  0  0  0
   -0.4632   -3.0110    1.0688 O   0  0  0  0  0  0  0  0  0  0  0  0
   -1.0296   -1.2010   -0.1521 N   0  0  0  0  0  0  0  0  0  0  0  0
   -1.7398   -0.8088   -0.7629 H   0  0  0  0  0  0  0  0  0  0  0  0
    0.2843   -0.5328   -0.0885 C   0  0  1  0  0  0  0  0  0  0  0  0
    1.0313   -1.1844   -0.5555 H   0  0  0  0  0  0  0  0  0  0  0  0
    0.1683    0.7584   -0.9203 C   0  0  0  0  0  0  0  0  0  0  0  0
   -0.1147    0.4950   -1.9437 H   0  0  0  0  0  0  0  0  0  0  0  0
   -0.6264    1.3868   -0.5044 H   0  0  0  0  0  0  0  0  0  0  0  0
    1.4646    1.5782   -0.9576 C   0  0  0  0  0  0  0  0  0  0  0  0
    1.7489    1.8879    0.0534 H   0  0  0  0  0  0  0  0  0  0  0  0
    2.2857    0.9805   -1.3672 H   0  0  0  0  0  0  0  0  0  0  0  0
    1.2061    3.0865   -1.9752 S   0  0  0  0  0  0  0  0  0  0  0  0
    1.3573    2.4390   -3.6875 C   0  0  0  0  0  0  0  0  0  0  0  0
    0.5818    1.6945   -3.8869 H   0  0  0  0  0  0  0  0  0  0  0  0
    1.2491    3.2562   -4.4068 H   0  0  0  0  0  0  0  0  0  0  0  0
    2.3375    1.9747   -3.8311 H   0  0  0  0  0  0  0  0  0  0  0  0
    0.7787   -0.2530    1.3508 C   0  0  0  0  0  0  0  0  0  0  0  0
    1.9757   -0.3031    1.6030 O   0  0  0  0  0  0  0  0  0  0  0  0
   -0.0875    0.2730    2.2919 N   0  0  0  0  0  0  0  0  0  0  0  0
   -1.0769    0.2122    2.0762 H   0  0  0  0  0  0  0  0  0  0  0  0
    0.3185    0.5731    3.6590 C   0  0  0  0  0  0  0  0  0  0  0  0
    1.1298    1.3088    3.6654 H   0  0  0  0  0  0  0  0  0  0  0  0
   -0.5240    0.9855    4.2223 H   0  0  0  0  0  0  0  0  0  0  0  0
    0.6632   -0.3361    4.1632 H   0  0  0  0  0  0  0  0  0  0  0  0
  1  2  1  0  0  0  0
  2  3  1  0  0  0  0
  2  4  1  0  0  0  0
  2  5  1  0  0  0  0
  5  6  2  0  0  0  0
  5  7  1  0  0  0  0
  7  8  1  0  0  0  0
  7  9  1  0  0  0  0
  9 10  1  0  0  0  0
  9 11  1  0  0  0  0
  9 22  1  0  0  0  0
 11 12  1  0  0  0  0
 11 13  1  0  0  0  0
 11 14  1  0  0  0  0
 14 15  1  0  0  0  0
 14 16  1  0  0  0  0
 14 17  1  0  0  0  0
 17 18  1  0  0  0  0
 18 19  1  0  0  0  0
 18 20  1  0  0  0  0
 18 21  1  0  0  0  0
 22 23  2  0  0  0  0
 22 24  1  0  0  0  0
 24 25  1  0  0  0  0
 24 26  1  0  0  0  0
 26 27  1  0  0  0  0
 26 28  1  0  0  0  0
 26 29  1  0  0  0  0
M  END
$$$$

  -OEChem-04042216023D

 29 28  0     1  0  0  0  0  0999 V2000
   -2.6949   -4.0263    0.6156 H   0  0  0  0  0  0  0  0  0  0  0  0
   -2.6418   -3.0431    0.1389 C   0  0  0  0  0  0  0  0  0  0  0  0
   -3.4230   -2.4058    0.5600 H   0  0  0  0  0  0  0  0  0  0  0  0
   -2.8157   -3.1637   -0.9331 H   0  0  0  0  0  0  0  0  0  0  0  0
   -1.2786   -2.4214    0.3779 C   0  0  0  0  0  0  0  0  0  0  0  0
   -0.4530   -3.0107    1.0504 O   0  0  0  0  0  0  0  0  0  0  0  0
   -0.9810   -1.1892   -0.1711 N   0  0  0  0  0  0  0  0  0  0  0  0
   -1.6823   -0.7802   -0.7810 H   0  0  0  0  0  0  0  0  0  0  0  0
    0.3373   -0.5317   -0.0779 C   0  0  1  0  0  0  0  0  0  0  0  0
    1.0915   -1.1911   -0.5222 H   0  0  0  0  0  0  0  0  0  0  0  0
    0.2480    0.7539   -0.9239 C   0  0  0  0  0  0  0  0  0  0  0  0
   -0.0242    0.4919   -1.9507 H   0  0  0  0  0  0  0  0  0  0  0  0
   -0.5508    1.3819   -0.5156 H   0  0  0  0  0  0  0  0  0  0  0  0
    1.5420    1.5816   -0.9497 C   0  0  0  0  0  0  0  0  0  0  0  0
    1.9517    1.6970    0.0582 H   0  0  0  0  0  0  0  0  0  0  0  0
    2.3016    1.0846   -1.5611 H   0  0  0  0  0  0  0  0  0  0  0  0
    1.1873    3.2651   -1.5971 S   0  0  0  0  0  0  0  0  0  0  0  0
    0.8963    2.9606   -3.3848 C   0  0  0  0  0  0  0  0  0  0  0  0
    0.0129    2.3326   -3.5285 H   0  0  0  0  0  0  0  0  0  0  0  0
    0.7361    3.9104   -3.9037 H   0  0  0  0  0  0  0  0  0  0  0  0
    1.7617    2.4609   -3.8300 H   0  0  0  0  0  0  0  0  0  0  0  0
    0.7921   -0.2553    1.3758 C   0  0  0  0  0  0  0  0  0  0  0  0
    1.9770   -0.3417    1.6713 O   0  0  0  0  0  0  0  0  0  0  0  0
   -0.0947    0.2786    2.2931 N   0  0  0  0  0  0  0  0  0  0  0  0
   -1.0762    0.2565    2.0385 H   0  0  0  0  0  0  0  0  0  0  0  0
    0.2690    0.5512    3.6776 C   0  0  0  0  0  0  0  0  0  0  0  0
    1.0938    1.2701    3.7230 H   0  0  0  0  0  0  0  0  0  0  0  0
   -0.5843    0.9721    4.2176 H   0  0  0  0  0  0  0  0  0  0  0  0
    0.5776   -0.3718    4.1798 H   0  0  0  0  0  0  0  0  0  0  0  0
  1  2  1  0  0  0  0
  2  3  1  0  0  0  0
  2  4  1  0  0  0  0
  2  5  1  0  0  0  0
  5  6  2  0  0  0  0
  5  7  1  0  0  0  0
  7  8  1  0  0  0  0
  7  9  1  0  0  0  0
  9 10  1  0  0  0  0
  9 11  1  0  0  0  0
  9 22  1  0  0  0  0
 11 12  1  0  0  0  0
 11 13  1  0  0  0  0
 11 14  1  0  0  0  0
 14 15  1  0  0  0  0
 14 16  1  0  0  0  0
 14 17  1  0  0  0  0
 17 18  1  0  0  0  0
 18 19  1  0  0  0  0
 18 20  1  0  0  0  0
 18 21  1  0  0  0  0
 22 23  2  0  0  0  0
 22 24  1  0  0  0  0
 24 25  1  0  0  0  0
 24 26  1  0  0  0  0
 26 27  1  0  0  0  0
 26 28  1  0  0  0  0
 26 29  1  0  0  0  0
M  END
$$$$

  -OEChem-04042216023D

 29 28  0     1  0  0  0  0  0999 V2000
   -2.7151   -3.9934    0.6034 H   0  0  0  0  0  0  0  0  0  0  0  0
   -2.6474   -3.0102    0.1287 C   0  0  0  0  0  0  0  0  0  0  0  0
   -3.4182   -2.3622    0.5521 H   0  0  0  0  0  0  0  0  0  0  0  0
   -2.8243   -3.1253   -0.9433 H   0  0  0  0  0  0  0  0  0  0  0  0
   -1.2751   -2.4096    0.3678 C   0  0  0  0  0  0  0  0  0  0  0  0
   -0.4574   -3.0139    1.0363 O   0  0  0  0  0  0  0  0  0  0  0  0
   -0.9601   -1.1813   -0.1801 N   0  0  0  0  0  0  0  0  0  0  0  0
   -1.6583   -0.7579   -0.7835 H   0  0  0  0  0  0  0  0  0  0  0  0
    0.3634   -0.5362   -0.0755 C   0  0  1  0  0  0  0  0  0  0  0  0
    1.1171   -1.2011   -0.5124 H   0  0  0  0  0  0  0  0  0  0  0  0
    0.2862    0.7484   -0.9258 C   0  0  0  0  0  0  0  0  0  0  0  0
    0.0093    0.4936   -1.9535 H   0  0  0  0  0  0  0  0  0  0  0  0
   -0.5127    1.3732   -0.5123 H   0  0  0  0  0  0  0  0  0  0  0  0
    1.5795    1.5813   -0.9558 C   0  0  0  0  0  0  0  0  0  0  0  0
    2.1347    1.4887   -0.0186 H   0  0  0  0  0  0  0  0  0  0  0  0
    2.2364    1.2324   -1.7589 H   0  0  0  0  0  0  0  0  0  0  0  0
    1.1712    3.3604   -1.1768 S   0  0  0  0  0  0  0  0  0  0  0  0
    0.5595    3.4119   -2.9081 C   0  0  0  0  0  0  0  0  0  0  0  0
   -0.3337    2.7905   -3.0181 H   0  0  0  0  0  0  0  0  0  0  0  0
    0.3051    4.4395   -3.1839 H   0  0  0  0  0  0  0  0  0  0  0  0
    1.3308    3.0472   -3.5930 H   0  0  0  0  0  0  0  0  0  0  0  0
    0.8018   -0.2638    1.3848 C   0  0  0  0  0  0  0  0  0  0  0  0
    1.9771   -0.3881    1.7043 O   0  0  0  0  0  0  0  0  0  0  0  0
   -0.0905    0.2788    2.2917 N   0  0  0  0  0  0  0  0  0  0  0  0
   -1.0669    0.2890    2.0179 H   0  0  0  0  0  0  0  0  0  0  0  0
    0.2564    0.5409    3.6824 C   0  0  0  0  0  0  0  0  0  0  0  0
    1.0865    1.2526    3.7427 H   0  0  0  0  0  0  0  0  0  0  0  0
   -0.6005    0.9660    4.2134 H   0  0  0  0  0  0  0  0  0  0  0  0
    0.5506   -0.3872    4.1837 H   0  0  0  0  0  0  0  0  0  0  0  0
  1  2  1  0  0  0  0
  2  3  1  0  0  0  0
  2  4  1  0  0  0  0
  2  5  1  0  0  0  0
  5  6  2  0  0  0  0
  5  7  1  0  0  0  0
  7  8  1  0  0  0  0
  7  9  1  0  0  0  0
  9 10  1  0  0  0  0
  9 11  1  0  0  0  0
  9 22  1  0  0  0  0
 11 12  1  0  0  0  0
 11 13  1  0  0  0  0
 11 14  1  0  0  0  0
 14 15  1  0  0  0  0
 14 16  1  0  0  0  0
 14 17  1  0  0  0  0
 17 18  1  0  0  0  0
 18 19  1  0  0  0  0
 18 20  1  0  0  0  0
 18 21  1  0  0  0  0
 22 23  2  0  0  0  0
 22 24  1  0  0  0  0
 24 25  1  0  0  0  0
 24 26  1  0  0  0  0
 26 27  1  0  0  0  0
 26 28  1  0  0  0  0
 26 29  1  0  0  0  0
M  END
$$$$

  -OEChem-04042216023D

 29 28  0     1  0  0  0  0  0999 V2000
   -2.7216   -3.9892    0.6264 H   0  0  0  0  0  0  0  0  0  0  0  0
   -2.6526   -3.0091    0.1457 C   0  0  0  0  0  0  0  0  0  0  0  0
   -3.4159   -2.3542    0.5725 H   0  0  0  0  0  0  0  0  0  0  0  0
   -2.8400   -3.1297   -0.9239 H   0  0  0  0  0  0  0  0  0  0  0  0
   -1.2737   -2.4167    0.3686 C   0  0  0  0  0  0  0  0  0  0  0  0
   -0.4525   -3.0261    1.0283 O   0  0  0  0  0  0  0  0  0  0  0  0
   -0.9563   -1.1918   -0.1852 N   0  0  0  0  0  0  0  0  0  0  0  0
   -1.6587   -0.7633   -0.7800 H   0  0  0  0  0  0  0  0  0  0  0  0
    0.3685   -0.5485   -0.0837 C   0  0  1  0  0  0  0  0  0  0  0  0
    1.1223   -1.2137   -0.5202 H   0  0  0  0  0  0  0  0  0  0  0  0
    0.2881    0.7386   -0.9298 C   0  0  0  0  0  0  0  0  0  0  0  0
    0.0121    0.4844   -1.9580 H   0  0  0  0  0  0  0  0  0  0  0  0
   -0.5154    1.3582   -0.5181 H   0  0  0  0  0  0  0  0  0  0  0  0
    1.5836    1.5715   -0.9625 C   0  0  0  0  0  0  0  0  0  0  0  0
    2.2769    1.2658   -0.1744 H   0  0  0  0  0  0  0  0  0  0  0  0
    2.0994    1.4214   -1.9164 H   0  0  0  0  0  0  0  0  0  0  0  0
    1.2015    3.3547   -0.7237 S   0  0  0  0  0  0  0  0  0  0  0  0
    0.3542    3.7866   -2.2951 C   0  0  0  0  0  0  0  0  0  0  0  0
   -0.5542    3.1899   -2.4172 H   0  0  0  0  0  0  0  0  0  0  0  0
    0.0791    4.8457   -2.2926 H   0  0  0  0  0  0  0  0  0  0  0  0
    1.0166    3.5994   -3.1455 H   0  0  0  0  0  0  0  0  0  0  0  0
    0.8041   -0.2711    1.3772 C   0  0  0  0  0  0  0  0  0  0  0  0
    1.9749   -0.4122    1.7057 O   0  0  0  0  0  0  0  0  0  0  0  0
   -0.0889    0.2768    2.2805 N   0  0  0  0  0  0  0  0  0  0  0  0
   -1.0625    0.3066    1.9993 H   0  0  0  0  0  0  0  0  0  0  0  0
    0.2557    0.5506    3.6695 C   0  0  0  0  0  0  0  0  0  0  0  0
    1.0858    1.2629    3.7250 H   0  0  0  0  0  0  0  0  0  0  0  0
   -0.6021    0.9801    4.1954 H   0  0  0  0  0  0  0  0  0  0  0  0
    0.5491   -0.3732    4.1792 H   0  0  0  0  0  0  0  0  0  0  0  0
  1  2  1  0  0  0  0
  2  3  1  0  0  0  0
  2  4  1  0  0  0  0
  2  5  1  0  0  0  0
  5  6  2  0  0  0  0
  5  7  1  0  0  0  0
  7  8  1  0  0  0  0
  7  9  1  0  0  0  0
  9 10  1  0  0  0  0
  9 11  1  0  0  0  0
  9 22  1  0  0  0  0
 11 12  1  0  0  0  0
 11 13  1  0  0  0  0
 11 14  1  0  0  0  0
 14 15  1  0  0  0  0
 14 16  1  0  0  0  0
 14 17  1  0  0  0  0
 17 18  1  0  0  0  0
 18 19  1  0  0  0  0
 18 20  1  0  0  0  0
 18 21  1  0  0  0  0
 22 23  2  0  0  0  0
 22 24  1  0  0  0  0
 24 25  1  0  0  0  0
 24 26  1  0  0  0  0
 26 27  1  0  0  0  0
 26 28  1  0  0  0  0
 26 29  1  0  0  0  0
M  END
$$$$

  -OEChem-04042216023D

 29 28  0     1  0  0  0  0  0999 V2000
   -2.7078   -4.0176    0.6519 H   0  0  0  0  0  0  0  0  0  0  0  0
   -2.6488   -3.0385    0.1678 C   0  0  0  0  0  0  0  0  0  0  0  0
   -3.4031   -2.3826    0.6085 H   0  0  0  0  0  0  0  0  0  0  0  0
   -2.8573   -3.1612   -0.8976 H   0  0  0  0  0  0  0  0  0  0  0  0
   -1.2665   -2.4448    0.3620 C   0  0  0  0  0  0  0  0  0  0  0  0
   -0.4289   -3.0560    0.9989 O   0  0  0  0  0  0  0  0  0  0  0  0
   -0.9649   -1.2159   -0.1917 N   0  0  0  0  0  0  0  0  0  0  0  0
   -1.6838   -0.7804   -0.7607 H   0  0  0  0  0  0  0  0  0  0  0  0
    0.3527   -0.5587   -0.0932 C   0  0  1  0  0  0  0  0  0  0  0  0
    1.1110   -1.2149   -0.5349 H   0  0  0  0  0  0  0  0  0  0  0  0
    0.2592    0.7312   -0.9315 C   0  0  0  0  0  0  0  0  0  0  0  0
    0.0040    0.4665   -1.9625 H   0  0  0  0  0  0  0  0  0  0  0  0
   -0.5592    1.3438   -0.5399 H   0  0  0  0  0  0  0  0  0  0  0  0
    1.5551    1.5630   -0.9520 C   0  0  0  0  0  0  0  0  0  0  0  0
    2.3499    1.0767   -0.3779 H   0  0  0  0  0  0  0  0  0  0  0  0
    1.9184    1.6539   -1.9805 H   0  0  0  0  0  0  0  0  0  0  0  0
    1.2533    3.2419   -0.2642 S   0  0  0  0  0  0  0  0  0  0  0  0
    0.2819    4.0423   -1.6018 C   0  0  0  0  0  0  0  0  0  0  0  0
   -0.6539    3.5026   -1.7729 H   0  0  0  0  0  0  0  0  0  0  0  0
    0.0446    5.0738   -1.3246 H   0  0  0  0  0  0  0  0  0  0  0  0
    0.8582    4.0535   -2.5318 H   0  0  0  0  0  0  0  0  0  0  0  0
    0.7971   -0.2743    1.3636 C   0  0  0  0  0  0  0  0  0  0  0  0
    1.9702   -0.4125    1.6853 O   0  0  0  0  0  0  0  0  0  0  0  0
   -0.0937    0.2657    2.2738 N   0  0  0  0  0  0  0  0  0  0  0  0
   -1.0650    0.3230    1.9895 H   0  0  0  0  0  0  0  0  0  0  0  0
    0.2639    0.5688    3.6533 C   0  0  0  0  0  0  0  0  0  0  0  0
    1.0866    1.2911    3.6856 H   0  0  0  0  0  0  0  0  0  0  0  0
   -0.5927    0.9985    4.1810 H   0  0  0  0  0  0  0  0  0  0  0  0
    0.5733   -0.3422    4.1764 H   0  0  0  0  0  0  0  0  0  0  0  0
  1  2  1  0  0  0  0
  2  3  1  0  0  0  0
  2  4  1  0  0  0  0
  2  5  1  0  0  0  0
  5  6  2  0  0  0  0
  5  7  1  0  0  0  0
  7  8  1  0  0  0  0
  7  9  1  0  0  0  0
  9 10  1  0  0  0  0
  9 11  1  0  0  0  0
  9 22  1  0  0  0  0
 11 12  1  0  0  0  0
 11 13  1  0  0  0  0
 11 14  1  0  0  0  0
 14 15  1  0  0  0  0
 14 16  1  0  0  0  0
 14 17  1  0  0  0  0
 17 18  1  0  0  0  0
 18 19  1  0  0  0  0
 18 20  1  0  0  0  0
 18 21  1  0  0  0  0
 22 23  2  0  0  0  0
 22 24  1  0  0  0  0
 24 25  1  0  0  0  0
 24 26  1  0  0  0  0
 26 27  1  0  0  0  0
 26 28  1  0  0  0  0
 26 29  1  0  0  0  0
M  END
$$$$

  -OEChem-04042216023D

 29 28  0     1  0  0  0  0  0999 V2000
   -2.6927   -4.0690    0.6281 H   0  0  0  0  0  0  0  0  0  0  0  0
   -2.6437   -3.0867    0.1494 C   0  0  0  0  0  0  0  0  0  0  0  0
   -3.4147   -2.4458    0.5835 H   0  0  0  0  0  0  0  0  0  0  0  0
   -2.8361   -3.2075   -0.9192 H   0  0  0  0  0  0  0  0  0  0  0  0
   -1.2746   -2.4697    0.3639 C   0  0  0  0  0  0  0  0  0  0  0  0
   -0.4346   -3.0685    1.0093 O   0  0  0  0  0  0  0  0  0  0  0  0
   -0.9881   -1.2342   -0.1832 N   0  0  0  0  0  0  0  0  0  0  0  0
   -1.7066   -0.8127   -0.7630 H   0  0  0  0  0  0  0  0  0  0  0  0
    0.3239   -0.5657   -0.0869 C   0  0  1  0  0  0  0  0  0  0  0  0
    1.0826   -1.2174   -0.5353 H   0  0  0  0  0  0  0  0  0  0  0  0
    0.2220    0.7243   -0.9238 C   0  0  0  0  0  0  0  0  0  0  0  0
   -0.0132    0.4459   -1.9561 H   0  0  0  0  0  0  0  0  0  0  0  0
   -0.6057    1.3366   -0.5533 H   0  0  0  0  0  0  0  0  0  0  0  0
    1.5165    1.5548   -0.9349 C   0  0  0  0  0  0  0  0  0  0  0  0
    2.3696    0.9522   -0.6039 H   0  0  0  0  0  0  0  0  0  0  0  0
    1.7329    1.8856   -1.9554 H   0  0  0  0  0  0  0  0  0  0  0  0
    1.3431    3.0361    0.1428 S   0  0  0  0  0  0  0  0  0  0  0  0
    0.3150    4.1589   -0.8848 C   0  0  0  0  0  0  0  0  0  0  0  0
   -0.6548    3.7020   -1.1005 H   0  0  0  0  0  0  0  0  0  0  0  0
    0.1470    5.1011   -0.3545 H   0  0  0  0  0  0  0  0  0  0  0  0
    0.8209    4.3758   -1.8302 H   0  0  0  0  0  0  0  0  0  0  0  0
    0.7863   -0.2812    1.3636 C   0  0  0  0  0  0  0  0  0  0  0  0
    1.9665   -0.4087    1.6634 O   0  0  0  0  0  0  0  0  0  0  0  0
   -0.0944    0.2485    2.2894 N   0  0  0  0  0  0  0  0  0  0  0  0
   -1.0696    0.3073    2.0198 H   0  0  0  0  0  0  0  0  0  0  0  0
    0.2932    0.5921    3.6510 C   0  0  0  0  0  0  0  0  0  0  0  0
    1.0986    1.3343    3.6428 H   0  0  0  0  0  0  0  0  0  0  0  0
   -0.5585    1.0135    4.1930 H   0  0  0  0  0  0  0  0  0  0  0  0
    0.6395   -0.2986    4.1859 H   0  0  0  0  0  0  0  0  0  0  0  0
  1  2  1  0  0  0  0
  2  3  1  0  0  0  0
  2  4  1  0  0  0  0
  2  5  1  0  0  0  0
  5  6  2  0  0  0  0
  5  7  1  0  0  0  0
  7  8  1  0  0  0  0
  7  9  1  0  0  0  0
  9 10  1  0  0  0  0
  9 11  1  0  0  0  0
  9 22  1  0  0  0  0
 11 12  1  0  0  0  0
 11 13  1  0  0  0  0
 11 14  1  0  0  0  0
 14 15  1  0  0  0  0
 14 16  1  0  0  0  0
 14 17  1  0  0  0  0
 17 18  1  0  0  0  0
 18 19  1  0  0  0  0
 18 20  1  0  0  0  0
 18 21  1  0  0  0  0
 22 23  2  0  0  0  0
 22 24  1  0  0  0  0
 24 25  1  0  0  0  0
 24 26  1  0  0  0  0
 26 27  1  0  0  0  0
 26 28  1  0  0  0  0
 26 29  1  0  0  0  0
M  END
$$$$

  -OEChem-04042216023D

 29 28  0     1  0  0  0  0  0999 V2000
   -2.6956   -4.0594    0.6174 H   0  0  0  0  0  0  0  0  0  0  0  0
   -2.6440   -3.0748    0.1436 C   0  0  0  0  0  0  0  0  0  0  0  0
   -3.4122   -2.4335    0.5817 H   0  0  0  0  0  0  0  0  0  0  0  0
   -2.8380   -3.1895   -0.9255 H   0  0  0  0  0  0  0  0  0  0  0  0
   -1.2724   -2.4640    0.3595 C   0  0  0  0  0  0  0  0  0  0  0  0
   -0.4330   -3.0718    0.9972 O   0  0  0  0  0  0  0  0  0  0  0  0
   -0.9844   -1.2244   -0.1772 N   0  0  0  0  0  0  0  0  0  0  0  0
   -1.7023   -0.7976   -0.7539 H   0  0  0  0  0  0  0  0  0  0  0  0
    0.3284   -0.5580   -0.0756 C   0  0  1  0  0  0  0  0  0  0  0  0
    1.0853   -1.2157   -0.5184 H   0  0  0  0  0  0  0  0  0  0  0  0
    0.2369    0.7214   -0.9326 C   0  0  0  0  0  0  0  0  0  0  0  0
    0.0150    0.4227   -1.9622 H   0  0  0  0  0  0  0  0  0  0  0  0
   -0.5942    1.3411   -0.5835 H   0  0  0  0  0  0  0  0  0  0  0  0
    1.5260    1.5587   -0.9501 C   0  0  0  0  0  0  0  0  0  0  0  0
    2.3994    0.9032   -0.8596 H   0  0  0  0  0  0  0  0  0  0  0  0
    1.6085    2.0842   -1.9066 H   0  0  0  0  0  0  0  0  0  0  0  0
    1.5471    2.8050    0.4051 S   0  0  0  0  0  0  0  0  0  0  0  0
    0.3825    4.0927   -0.1937 C   0  0  0  0  0  0  0  0  0  0  0  0
   -0.6243    3.6810   -0.3038 H   0  0  0  0  0  0  0  0  0  0  0  0
    0.3436    4.9198    0.5214 H   0  0  0  0  0  0  0  0  0  0  0  0
    0.7133    4.4822   -1.1610 H   0  0  0  0  0  0  0  0  0  0  0  0
    0.7900   -0.2870    1.3765 C   0  0  0  0  0  0  0  0  0  0  0  0
    1.9665   -0.4370    1.6804 O   0  0  0  0  0  0  0  0  0  0  0  0
   -0.0925    0.2354    2.3051 N   0  0  0  0  0  0  0  0  0  0  0  0
   -1.0662    0.2997    2.0322 H   0  0  0  0  0  0  0  0  0  0  0  0
    0.2888    0.5518    3.6749 C   0  0  0  0  0  0  0  0  0  0  0  0
    1.0952    1.2928    3.6850 H   0  0  0  0  0  0  0  0  0  0  0  0
   -0.5651    0.9638    4.2208 H   0  0  0  0  0  0  0  0  0  0  0  0
    0.6310   -0.3498    4.1937 H   0  0  0  0  0  0  0  0  0  0  0  0
  1  2  1  0  0  0  0
  2  3  1  0  0  0  0
  2  4  1  0  0  0  0
  2  5  1  0  0  0  0
  5  6  2  0  0  0  0
  5  7  1  0  0  0  0
  7  8  1  0  0  0  0
  7  9  1  0  0  0  0
  9 10  1  0  0  0  0
  9 11  1  0  0  0  0
  9 22  1  0  0  0  0
 11 12  1  0  0  0  0
 11 13  1  0  0  0  0
 11 14  1  0  0  0  0
 14 15  1  0  0  0  0
 14 16  1  0  0  0  0
 14 17  1  0  0  0  0
 17 18  1  0  0  0  0
 18 19  1  0  0  0  0
 18 20  1  0  0  0  0
 18 21  1  0  0  0  0
 22 23  2  0  0  0  0
 22 24  1  0  0  0  0
 24 25  1  0  0  0  0
 24 26  1  0  0  0  0
 26 27  1  0  0  0  0
 26 28  1  0  0  0  0
 26 29  1  0  0  0  0
M  END
$$$$

  -OEChem-04042216023D

 29 28  0     1  0  0  0  0  0999 V2000
   -2.7278   -3.9874    0.6230 H   0  0  0  0  0  0  0  0  0  0  0  0
   -2.6553   -3.0047    0.1481 C   0  0  0  0  0  0  0  0  0  0  0  0
   -3.4141   -2.3488    0.5813 H   0  0  0  0  0  0  0  0  0  0  0  0
   -2.8459   -3.1174   -0.9218 H   0  0  0  0  0  0  0  0  0  0  0  0
   -1.2738   -2.4189    0.3717 C   0  0  0  0  0  0  0  0  0  0  0  0
   -0.4550   -3.0361    1.0265 O   0  0  0  0  0  0  0  0  0  0  0  0
   -0.9567   -1.1892   -0.1723 N   0  0  0  0  0  0  0  0  0  0  0  0
   -1.6578   -0.7597   -0.7673 H   0  0  0  0  0  0  0  0  0  0  0  0
    0.3684   -0.5459   -0.0668 C   0  0  1  0  0  0  0  0  0  0  0  0
    1.1196   -1.2216   -0.4912 H   0  0  0  0  0  0  0  0  0  0  0  0
    0.2958    0.7140   -0.9600 C   0  0  0  0  0  0  0  0  0  0  0  0
    0.0685    0.3878   -1.9800 H   0  0  0  0  0  0  0  0  0  0  0  0
   -0.5336    1.3439   -0.6271 H   0  0  0  0  0  0  0  0  0  0  0  0
    1.5716    1.5727   -1.0232 C   0  0  0  0  0  0  0  0  0  0  0  0
    2.4353    0.9186   -1.1839 H   0  0  0  0  0  0  0  0  0  0  0  0
    1.5050    2.2454   -1.8839 H   0  0  0  0  0  0  0  0  0  0  0  0
    1.8757    2.5924    0.4803 S   0  0  0  0  0  0  0  0  0  0  0  0
    0.4893    3.7961    0.4852 C   0  0  0  0  0  0  0  0  0  0  0  0
   -0.4632    3.2844    0.6463 H   0  0  0  0  0  0  0  0  0  0  0  0
    0.6320    4.5233    1.2900 H   0  0  0  0  0  0  0  0  0  0  0  0
    0.4491    4.3321   -0.4676 H   0  0  0  0  0  0  0  0  0  0  0  0
    0.8105   -0.2779    1.3915 C   0  0  0  0  0  0  0  0  0  0  0  0
    1.9666   -0.4949    1.7305 O   0  0  0  0  0  0  0  0  0  0  0  0
   -0.0788    0.2645    2.3027 N   0  0  0  0  0  0  0  0  0  0  0  0
   -1.0497    0.3176    2.0175 H   0  0  0  0  0  0  0  0  0  0  0  0
    0.2682    0.5031    3.6971 C   0  0  0  0  0  0  0  0  0  0  0  0
    1.1121    1.1976    3.7669 H   0  0  0  0  0  0  0  0  0  0  0  0
   -0.5819    0.9388    4.2302 H   0  0  0  0  0  0  0  0  0  0  0  0
    0.5433   -0.4361    4.1886 H   0  0  0  0  0  0  0  0  0  0  0  0
  1  2  1  0  0  0  0
  2  3  1  0  0  0  0
  2  4  1  0  0  0  0
  2  5  1  0  0  0  0
  5  6  2  0  0  0  0
  5  7  1  0  0  0  0
  7  8  1  0  0  0  0
  7  9  1  0  0  0  0
  9 10  1  0  0  0  0
  9 11  1  0  0  0  0
  9 22  1  0  0  0  0
 11 12  1  0  0  0  0
 11 13  1  0  0  0  0
 11 14  1  0  0  0  0
 14 15  1  0  0  0  0
 14 16  1  0  0  0  0
 14 17  1  0  0  0  0
 17 18  1  0  0  0  0
 18 19  1  0  0  0  0
 18 20  1  0  0  0  0
 18 21  1  0  0  0  0
 22 23  2  0  0  0  0
 22 24  1  0  0  0  0
 24 25  1  0  0  0  0
 24 26  1  0  0  0  0
 26 27  1  0  0  0  0
 26 28  1  0  0  0  0
 26 29  1  0  0  0  0
M  END
$$$$

  -OEChem-04042216023D

 29 28  0     1  0  0  0  0  0999 V2000
   -2.7339   -3.9688    0.6251 H   0  0  0  0  0  0  0  0  0  0  0  0
   -2.6504   -2.9871    0.1498 C   0  0  0  0  0  0  0  0  0  0  0  0
   -3.4142   -2.3283    0.5693 H   0  0  0  0  0  0  0  0  0  0  0  0
   -2.8235   -3.1012   -0.9229 H   0  0  0  0  0  0  0  0  0  0  0  0
   -1.2706   -2.4061    0.3946 C   0  0  0  0  0  0  0  0  0  0  0  0
   -0.4651   -3.0279    1.0610 O   0  0  0  0  0  0  0  0  0  0  0  0
   -0.9404   -1.1786   -0.1479 N   0  0  0  0  0  0  0  0  0  0  0  0
   -1.6301   -0.7542   -0.7597 H   0  0  0  0  0  0  0  0  0  0  0  0
    0.3914   -0.5457   -0.0450 C   0  0  1  0  0  0  0  0  0  0  0  0
    1.1425   -1.2224   -0.4677 H   0  0  0  0  0  0  0  0  0  0  0  0
    0.3050    0.7073   -0.9536 C   0  0  0  0  0  0  0  0  0  0  0  0
    0.0463    0.3723   -1.9633 H   0  0  0  0  0  0  0  0  0  0  0  0
   -0.5195    1.3320   -0.5969 H   0  0  0  0  0  0  0  0  0  0  0  0
    1.5481    1.6116   -1.0791 C   0  0  0  0  0  0  0  0  0  0  0  0
    2.3631    1.0144   -1.5012 H   0  0  0  0  0  0  0  0  0  0  0  0
    1.3285    2.4126   -1.7919 H   0  0  0  0  0  0  0  0  0  0  0  0
    2.1675    2.3787    0.4737 S   0  0  0  0  0  0  0  0  0  0  0  0
    0.7900    3.4799    0.9833 C   0  0  0  0  0  0  0  0  0  0  0  0
   -0.1076    2.8956    1.2011 H   0  0  0  0  0  0  0  0  0  0  0  0
    1.0710    4.0331    1.8843 H   0  0  0  0  0  0  0  0  0  0  0  0
    0.5633    4.1962    0.1884 H   0  0  0  0  0  0  0  0  0  0  0  0
    0.8178   -0.2920    1.4213 C   0  0  0  0  0  0  0  0  0  0  0  0
    1.9519   -0.5668    1.7910 O   0  0  0  0  0  0  0  0  0  0  0  0
   -0.0805    0.2510    2.3239 N   0  0  0  0  0  0  0  0  0  0  0  0
   -1.0478    0.2945    2.0253 H   0  0  0  0  0  0  0  0  0  0  0  0
    0.2312    0.4124    3.7380 C   0  0  0  0  0  0  0  0  0  0  0  0
    1.1096    1.0542    3.8640 H   0  0  0  0  0  0  0  0  0  0  0  0
   -0.6108    0.8741    4.2622 H   0  0  0  0  0  0  0  0  0  0  0  0
    0.4370   -0.5602    4.1975 H   0  0  0  0  0  0  0  0  0  0  0  0
  1  2  1  0  0  0  0
  2  3  1  0  0  0  0
  2  4  1  0  0  0  0
  2  5  1  0  0  0  0
  5  6  2  0  0  0  0
  5  7  1  0  0  0  0
  7  8  1  0  0  0  0
  7  9  1  0  0  0  0
  9 10  1  0  0  0  0
  9 11  1  0  0  0  0
  9 22  1  0  0  0  0
 11 12  1  0  0  0  0
 11 13  1  0  0  0  0
 11 14  1  0  0  0  0
 14 15  1  0  0  0  0
 14 16  1  0  0  0  0
 14 17  1  0  0  0  0
 17 18  1  0  0  0  0
 18 19  1  0  0  0  0
 18 20  1  0  0  0  0
 18 21  1  0  0  0  0
 22 23  2  0  0  0  0
 22 24  1  0  0  0  0
 24 25  1  0  0  0  0
 24 26  1  0  0  0  0
 26 27  1  0  0  0  0
 26 28  1  0  0  0  0
 26 29  1  0  0  0  0
M  END
$$$$

  -OEChem-04042216023D

 29 28  0     1  0  0  0  0  0999 V2000
   -2.7447   -4.0006    0.6033 H   0  0  0  0  0  0  0  0  0  0  0  0
   -2.6528   -3.0143    0.1391 C   0  0  0  0  0  0  0  0  0  0  0  0
   -3.4144   -2.3550    0.5621 H   0  0  0  0  0  0  0  0  0  0  0  0
   -2.8217   -3.1160   -0.9355 H   0  0  0  0  0  0  0  0  0  0  0  0
   -1.2702   -2.4443    0.3963 C   0  0  0  0  0  0  0  0  0  0  0  0
   -0.4713   -3.0801    1.0569 O   0  0  0  0  0  0  0  0  0  0  0  0
   -0.9321   -1.2124   -0.1313 N   0  0  0  0  0  0  0  0  0  0  0  0
   -1.6171   -0.7818   -0.7439 H   0  0  0  0  0  0  0  0  0  0  0  0
    0.4013   -0.5820   -0.0188 C   0  0  1  0  0  0  0  0  0  0  0  0
    1.1593   -1.2460   -0.4495 H   0  0  0  0  0  0  0  0  0  0  0  0
    0.2924    0.6845   -0.9110 C   0  0  0  0  0  0  0  0  0  0  0  0
   -0.0004    0.3674   -1.9172 H   0  0  0  0  0  0  0  0  0  0  0  0
   -0.5259    1.2910   -0.5097 H   0  0  0  0  0  0  0  0  0  0  0  0
    1.4996    1.6359   -1.0695 C   0  0  0  0  0  0  0  0  0  0  0  0
    2.2167    1.1432   -1.7345 H   0  0  0  0  0  0  0  0  0  0  0  0
    1.1663    2.5476   -1.5751 H   0  0  0  0  0  0  0  0  0  0  0  0
    2.4296    2.1121    0.4402 S   0  0  0  0  0  0  0  0  0  0  0  0
    1.2731    3.2672    1.2757 C   0  0  0  0  0  0  0  0  0  0  0  0
    0.3217    2.7723    1.4865 H   0  0  0  0  0  0  0  0  0  0  0  0
    1.7062    3.6074    2.2211 H   0  0  0  0  0  0  0  0  0  0  0  0
    1.0850    4.1389    0.6424 H   0  0  0  0  0  0  0  0  0  0  0  0
    0.8028   -0.3531    1.4601 C   0  0  0  0  0  0  0  0  0  0  0  0
    1.9112   -0.6807    1.8629 O   0  0  0  0  0  0  0  0  0  0  0  0
   -0.1132    0.1764    2.3535 N   0  0  0  0  0  0  0  0  0  0  0  0
   -1.0705    0.2371    2.0267 H   0  0  0  0  0  0  0  0  0  0  0  0
    0.1452    0.2487    3.7858 C   0  0  0  0  0  0  0  0  0  0  0  0
    1.0470    0.8380    3.9831 H   0  0  0  0  0  0  0  0  0  0  0  0
   -0.6956    0.7242    4.2995 H   0  0  0  0  0  0  0  0  0  0  0  0
    0.2839   -0.7559    4.1996 H   0  0  0  0  0  0  0  0  0  0  0  0
  1  2  1  0  0  0  0
  2  3  1  0  0  0  0
  2  4  1  0  0  0  0
  2  5  1  0  0  0  0
  5  6  2  0  0  0  0
  5  7  1  0  0  0  0
  7  8  1  0  0  0  0
  7  9  1  0  0  0  0
  9 10  1  0  0  0  0
  9 11  1  0  0  0  0
  9 22  1  0  0  0  0
 11 12  1  0  0  0  0
 11 13  1  0  0  0  0
 11 14  1  0  0  0  0
 14 15  1  0  0  0  0
 14 16  1  0  0  0  0
 14 17  1  0  0  0  0
 17 18  1  0  0  0  0
 18 19  1  0  0  0  0
 18 20  1  0  0  0  0
 18 21  1  0  0  0  0
 22 23  2  0  0  0  0
 22 24  1  0  0  0  0
 24 25  1  0  0  0  0
 24 26  1  0  0  0  0
 26 27  1  0  0  0  0
 26 28  1  0  0  0  0
 26 29  1  0  0  0  0
M  END
$$$$

  -OEChem-04042216023D

 29 28  0     1  0  0  0  0  0999 V2000
   -2.7983   -4.0143    0.5797 H   0  0  0  0  0  0  0  0  0  0  0  0
   -2.6873   -3.0282    0.1193 C   0  0  0  0  0  0  0  0  0  0  0  0
   -3.4393   -2.3573    0.5413 H   0  0  0  0  0  0  0  0  0  0  0  0
   -2.8527   -3.1230   -0.9565 H   0  0  0  0  0  0  0  0  0  0  0  0
   -1.2968   -2.4828    0.3854 C   0  0  0  0  0  0  0  0  0  0  0  0
   -0.5134   -3.1345    1.0488 O   0  0  0  0  0  0  0  0  0  0  0  0
   -0.9371   -1.2544   -0.1363 N   0  0  0  0  0  0  0  0  0  0  0  0
   -1.6099   -0.8159   -0.7567 H   0  0  0  0  0  0  0  0  0  0  0  0
    0.4022   -0.6379   -0.0088 C   0  0  1  0  0  0  0  0  0  0  0  0
    1.1654   -1.2948   -0.4411 H   0  0  0  0  0  0  0  0  0  0  0  0
    0.2878    0.6479   -0.8736 C   0  0  0  0  0  0  0  0  0  0  0  0
   -0.0275    0.3560   -1.8807 H   0  0  0  0  0  0  0  0  0  0  0  0
   -0.5236    1.2420   -0.4403 H   0  0  0  0  0  0  0  0  0  0  0  0
    1.4802    1.6200   -1.0377 C   0  0  0  0  0  0  0  0  0  0  0  0
    2.0536    1.2726   -1.9033 H   0  0  0  0  0  0  0  0  0  0  0  0
    1.0974    2.6142   -1.2888 H   0  0  0  0  0  0  0  0  0  0  0  0
    2.6904    1.7799    0.3312 S   0  0  0  0  0  0  0  0  0  0  0  0
    1.8542    2.9564    1.4658 C   0  0  0  0  0  0  0  0  0  0  0  0
    0.8671    2.5825    1.7484 H   0  0  0  0  0  0  0  0  0  0  0  0
    2.4514    3.0851    2.3734 H   0  0  0  0  0  0  0  0  0  0  0  0
    1.7361    3.9302    0.9820 H   0  0  0  0  0  0  0  0  0  0  0  0
    0.7701   -0.4236    1.4829 C   0  0  0  0  0  0  0  0  0  0  0  0
    1.8502   -0.7905    1.9263 O   0  0  0  0  0  0  0  0  0  0  0  0
   -0.1662    0.1100    2.3533 N   0  0  0  0  0  0  0  0  0  0  0  0
   -1.1097    0.1928    1.9927 H   0  0  0  0  0  0  0  0  0  0  0  0
    0.0359    0.1384    3.7965 C   0  0  0  0  0  0  0  0  0  0  0  0
    0.9471    0.6934    4.0445 H   0  0  0  0  0  0  0  0  0  0  0  0
   -0.8098    0.6281    4.2884 H   0  0  0  0  0  0  0  0  0  0  0  0
    0.1263   -0.8799    4.1897 H   0  0  0  0  0  0  0  0  0  0  0  0
  1  2  1  0  0  0  0
  2  3  1  0  0  0  0
  2  4  1  0  0  0  0
  2  5  1  0  0  0  0
  5  6  2  0  0  0  0
  5  7  1  0  0  0  0
  7  8  1  0  0  0  0
  7  9  1  0  0  0  0
  9 10  1  0  0  0  0
  9 11  1  0  0  0  0
  9 22  1  0  0  0  0
 11 12  1  0  0  0  0
 11 13  1  0  0  0  0
 11 14  1  0  0  0  0
 14 15  1  0  0  0  0
 14 16  1  0  0  0  0
 14 17  1  0  0  0  0
 17 18  1  0  0  0  0
 18 19  1  0  0  0  0
 18 20  1  0  0  0  0
 18 21  1  0  0  0  0
 22 23  2  0  0  0  0
 22 24  1  0  0  0  0
 24 25  1  0  0  0  0
 24 26  1  0  0  0  0
 26 27  1  0  0  0  0
 26 28  1  0  0  0  0
 26 29  1  0  0  0  0
M  END
$$$$

  -OEChem-04042216023D

 29 28  0     1  0  0  0  0  0999 V2000
   -2.9166   -3.9879    0.5056 H   0  0  0  0  0  0  0  0  0  0  0  0
   -2.7693   -3.0071    0.0442 C   0  0  0  0  0  0  0  0  0  0  0  0
   -3.5252   -2.3199    0.4314 H   0  0  0  0  0  0  0  0  0  0  0  0
   -2.8935   -3.1064   -1.0368 H   0  0  0  0  0  0  0  0  0  0  0  0
   -1.3804   -2.4858    0.3624 C   0  0  0  0  0  0  0  0  0  0  0  0
   -0.6349   -3.1512    1.0553 O   0  0  0  0  0  0  0  0  0  0  0  0
   -0.9747   -1.2705   -0.1569 N   0  0  0  0  0  0  0  0  0  0  0  0
   -1.6141   -0.8269   -0.8082 H   0  0  0  0  0  0  0  0  0  0  0  0
    0.3797   -0.6926   -0.0043 C   0  0  1  0  0  0  0  0  0  0  0  0
    1.1368   -1.3613   -0.4290 H   0  0  0  0  0  0  0  0  0  0  0  0
    0.3038    0.6134   -0.8419 C   0  0  0  0  0  0  0  0  0  0  0  0
   -0.0066    0.3459   -1.8574 H   0  0  0  0  0  0  0  0  0  0  0  0
   -0.5008    1.2178   -0.4097 H   0  0  0  0  0  0  0  0  0  0  0  0
    1.5213    1.5605   -0.9794 C   0  0  0  0  0  0  0  0  0  0  0  0
    1.9328    1.4055   -1.9821 H   0  0  0  0  0  0  0  0  0  0  0  0
    1.1737    2.5977   -0.9384 H   0  0  0  0  0  0  0  0  0  0  0  0
    2.9319    1.3653    0.1762 S   0  0  0  0  0  0  0  0  0  0  0  0
    2.4958    2.5079    1.5461 C   0  0  0  0  0  0  0  0  0  0  0  0
    2.4747    3.5405    1.1867 H   0  0  0  0  0  0  0  0  0  0  0  0
    3.2389    2.4290    2.3453 H   0  0  0  0  0  0  0  0  0  0  0  0
    1.5147    2.2582    1.9580 H   0  0  0  0  0  0  0  0  0  0  0  0
    0.7138   -0.4856    1.4981 C   0  0  0  0  0  0  0  0  0  0  0  0
    1.7638   -0.8871    1.9813 O   0  0  0  0  0  0  0  0  0  0  0  0
   -0.2321    0.0778    2.3393 N   0  0  0  0  0  0  0  0  0  0  0  0
   -1.1597    0.1912    1.9468 H   0  0  0  0  0  0  0  0  0  0  0  0
   -0.0829    0.0861    3.7896 C   0  0  0  0  0  0  0  0  0  0  0  0
    0.8464    0.5890    4.0777 H   0  0  0  0  0  0  0  0  0  0  0  0
   -0.9188    0.6178    4.2536 H   0  0  0  0  0  0  0  0  0  0  0  0
   -0.0624   -0.9383    4.1765 H   0  0  0  0  0  0  0  0  0  0  0  0
  1  2  1  0  0  0  0
  2  3  1  0  0  0  0
  2  4  1  0  0  0  0
  2  5  1  0  0  0  0
  5  6  2  0  0  0  0
  5  7  1  0  0  0  0
  7  8  1  0  0  0  0
  7  9  1  0  0  0  0
  9 10  1  0  0  0  0
  9 11  1  0  0  0  0
  9 22  1  0  0  0  0
 11 12  1  0  0  0  0
 11 13  1  0  0  0  0
 11 14  1  0  0  0  0
 14 15  1  0  0  0  0
 14 16  1  0  0  0  0
 14 17  1  0  0  0  0
 17 18  1  0  0  0  0
 18 19  1  0  0  0  0
 18 20  1  0  0  0  0
 18 21  1  0  0  0  0
 22 23  2  0  0  0  0
 22 24  1  0  0  0  0
 24 25  1  0  0  0  0
 24 26  1  0  0  0  0
 26 27  1  0  0  0  0
 26 28  1  0  0  0  0
 26 29  1  0  0  0  0
M  END
$$$$

  -OEChem-04042216023D

 29 28  0     1  0  0  0  0  0999 V2000
   -3.1870   -3.8045    0.3295 H   0  0  0  0  0  0  0  0  0  0  0  0
   -2.9976   -2.8020   -0.0652 C   0  0  0  0  0  0  0  0  0  0  0  0
   -3.7029   -2.1052    0.3936 H   0  0  0  0  0  0  0  0  0  0  0  0
   -3.1568   -2.8155   -1.1462 H   0  0  0  0  0  0  0  0  0  0  0  0
   -1.5734   -2.3809    0.2460 C   0  0  0  0  0  0  0  0  0  0  0  0
   -0.8506   -3.1305    0.8741 O   0  0  0  0  0  0  0  0  0  0  0  0
   -1.1153   -1.1543   -0.1981 N   0  0  0  0  0  0  0  0  0  0  0  0
   -1.7416   -0.6400   -0.8089 H   0  0  0  0  0  0  0  0  0  0  0  0
    0.2776   -0.6711   -0.0633 C   0  0  1  0  0  0  0  0  0  0  0  0
    0.9763   -1.3361   -0.5830 H   0  0  0  0  0  0  0  0  0  0  0  0
    0.2426    0.7183   -0.7536 C   0  0  0  0  0  0  0  0  0  0  0  0
   -0.1079    0.5636   -1.7795 H   0  0  0  0  0  0  0  0  0  0  0  0
   -0.5154    1.3236   -0.2450 H   0  0  0  0  0  0  0  0  0  0  0  0
    1.5181    1.5895   -0.8496 C   0  0  0  0  0  0  0  0  0  0  0  0
    1.7148    1.7791   -1.9099 H   0  0  0  0  0  0  0  0  0  0  0  0
    1.3151    2.5610   -0.3879 H   0  0  0  0  0  0  0  0  0  0  0  0
    3.0666    0.9206   -0.1259 S   0  0  0  0  0  0  0  0  0  0  0  0
    3.2117    1.8435    1.4561 C   0  0  0  0  0  0  0  0  0  0  0  0
    3.3336    2.9131    1.2633 H   0  0  0  0  0  0  0  0  0  0  0  0
    4.0809    1.4857    2.0161 H   0  0  0  0  0  0  0  0  0  0  0  0
    2.3193    1.6946    2.0702 H   0  0  0  0  0  0  0  0  0  0  0  0
    0.6869   -0.6021    1.4341 C   0  0  0  0  0  0  0  0  0  0  0  0
    1.7307   -1.0941    1.8414 O   0  0  0  0  0  0  0  0  0  0  0  0
   -0.1875   -0.0508    2.3565 N   0  0  0  0  0  0  0  0  0  0  0  0
   -1.1223    0.1413    2.0147 H   0  0  0  0  0  0  0  0  0  0  0  0
    0.0151   -0.1721    3.7952 C   0  0  0  0  0  0  0  0  0  0  0  0
    0.9887    0.2390    4.0825 H   0  0  0  0  0  0  0  0  0  0  0  0
   -0.7619    0.3772    4.3349 H   0  0  0  0  0  0  0  0  0  0  0  0
   -0.0257   -1.2238    4.0980 H   0  0  0  0  0  0  0  0  0  0  0  0
  1  2  1  0  0  0  0
  2  3  1  0  0  0  0
  2  4  1  0  0  0  0
  2  5  1  0  0  0  0
  5  6  2  0  0  0  0
  5  7  1  0  0  0  0
  7  8  1  0  0  0  0
  7  9  1  0  0  0  0
  9 10  1  0  0  0  0
  9 11  1  0  0  0  0
  9 22  1  0  0  0  0
 11 12  1  0  0  0  0
 11 13  1  0  0  0  0
 11 14  1  0  0  0  0
 14 15  1  0  0  0  0
 14 16  1  0  0  0  0
 14 17  1  0  0  0  0
 17 18  1  0  0  0  0
 18 19  1  0  0  0  0
 18 20  1  0  0  0  0
 18 21  1  0  0  0  0
 22 23  2  0  0  0  0
 22 24  1  0  0  0  0
 24 25  1  0  0  0  0
 24 26  1  0  0  0  0
 26 27  1  0  0  0  0
 26 28  1  0  0  0  0
 26 29  1  0  0  0  0
M  END
$$$$

  -OEChem-04042216023D

 29 28  0     1  0  0  0  0  0999 V2000
   -2.4179   -4.5146    0.6438 H   0  0  0  0  0  0  0  0  0  0  0  0
   -2.4427   -3.5233    0.1819 C   0  0  0  0  0  0  0  0  0  0  0  0
   -3.2928   -2.9683    0.5853 H   0  0  0  0  0  0  0  0  0  0  0  0
   -2.5704   -3.6429   -0.8966 H   0  0  0  0  0  0  0  0  0  0  0  0
   -1.1525   -2.7807    0.4739 C   0  0  0  0  0  0  0  0  0  0  0  0
   -0.3228   -3.2854    1.2060 O   0  0  0  0  0  0  0  0  0  0  0  0
   -0.9375   -1.5416   -0.0997 N   0  0  0  0  0  0  0  0  0  0  0  0
   -1.6200   -1.2479   -0.7908 H   0  0  0  0  0  0  0  0  0  0  0  0
    0.3265   -0.7788   -0.0072 C   0  0  1  0  0  0  0  0  0  0  0  0
    1.1541   -1.3412   -0.4537 H   0  0  0  0  0  0  0  0  0  0  0  0
    0.0464    0.5145   -0.8119 C   0  0  0  0  0  0  0  0  0  0  0  0
   -0.2143    0.2049   -1.8292 H   0  0  0  0  0  0  0  0  0  0  0  0
   -0.8339    1.0115   -0.3908 H   0  0  0  0  0  0  0  0  0  0  0  0
    1.1617    1.5739   -0.9473 C   0  0  0  0  0  0  0  0  0  0  0  0
    1.1705    1.9546   -1.9737 H   0  0  0  0  0  0  0  0  0  0  0  0
    0.9111    2.4164   -0.2949 H   0  0  0  0  0  0  0  0  0  0  0  0
    2.8575    1.0136   -0.5133 S   0  0  0  0  0  0  0  0  0  0  0  0
    3.3073    2.1255    0.8768 C   0  0  0  0  0  0  0  0  0  0  0  0
    3.3211    3.1667    0.5428 H   0  0  0  0  0  0  0  0  0  0  0  0
    2.5856    2.0235    1.6929 H   0  0  0  0  0  0  0  0  0  0  0  0
    4.2992    1.8638    1.2567 H   0  0  0  0  0  0  0  0  0  0  0  0
    0.6789   -0.4657    1.4746 C   0  0  0  0  0  0  0  0  0  0  0  0
    1.8031   -0.6354    1.9267 O   0  0  0  0  0  0  0  0  0  0  0  0
   -0.3109   -0.0034    2.3263 N   0  0  0  0  0  0  0  0  0  0  0  0
   -1.2591   -0.0689    1.9736 H   0  0  0  0  0  0  0  0  0  0  0  0
   -0.1109    0.1199    3.7651 C   0  0  0  0  0  0  0  0  0  0  0  0
    0.7147    0.8063    3.9803 H   0  0  0  0  0  0  0  0  0  0  0  0
   -1.0153    0.5100    4.2413 H   0  0  0  0  0  0  0  0  0  0  0  0
    0.1202   -0.8569    4.2035 H   0  0  0  0  0  0  0  0  0  0  0  0
  1  2  1  0  0  0  0
  2  3  1  0  0  0  0
  2  4  1  0  0  0  0
  2  5  1  0  0  0  0
  5  6  2  0  0  0  0
  5  7  1  0  0  0  0
  7  8  1  0  0  0  0
  7  9  1  0  0  0  0
  9 10  1  0  0  0  0
  9 11  1  0  0  0  0
  9 22  1  0  0  0  0
 11 12  1  0  0  0  0
 11 13  1  0  0  0  0
 11 14  1  0  0  0  0
 14 15  1  0  0  0  0
 14 16  1  0  0  0  0
 14 17  1  0  0  0  0
 17 18  1  0  0  0  0
 18 19  1  0  0  0  0
 18 20  1  0  0  0  0
 18 21  1  0  0  0  0
 22 23  2  0  0  0  0
 22 24  1  0  0  0  0
 24 25  1  0  0  0  0
 24 26  1  0  0  0  0
 26 27  1  0  0  0  0
 26 28  1  0  0  0  0
 26 29  1  0  0  0  0
M  END
$$$$

  -OEChem-04042216023D

 29 28  0     1  0  0  0  0  0999 V2000
   -2.7456   -3.9730    1.0058 H   0  0  0  0  0  0  0  0  0  0  0  0
   -2.5942   -3.0452    0.4463 C   0  0  0  0  0  0  0  0  0  0  0  0
   -3.4326   -2.3736    0.6459 H   0  0  0  0  0  0  0  0  0  0  0  0
   -2.5679   -3.2798   -0.6205 H   0  0  0  0  0  0  0  0  0  0  0  0
   -1.2921   -2.3898    0.8662 C   0  0  0  0  0  0  0  0  0  0  0  0
   -0.6221   -2.8900    1.7494 O   0  0  0  0  0  0  0  0  0  0  0  0
   -0.8788   -1.2328    0.2345 N   0  0  0  0  0  0  0  0  0  0  0  0
   -1.4394   -0.9245   -0.5534 H   0  0  0  0  0  0  0  0  0  0  0  0
    0.4097   -0.5541    0.4847 C   0  0  1  0  0  0  0  0  0  0  0  0
    1.2363   -1.2335    0.2525 H   0  0  0  0  0  0  0  0  0  0  0  0
    0.4172    0.6624   -0.4695 C   0  0  0  0  0  0  0  0  0  0  0  0
    0.3265    0.2744   -1.4890 H   0  0  0  0  0  0  0  0  0  0  0  0
   -0.4652    1.2809   -0.2755 H   0  0  0  0  0  0  0  0  0  0  0  0
    1.6557    1.5796   -0.4455 C   0  0  0  0  0  0  0  0  0  0  0  0
    1.7569    2.0863   -1.4105 H   0  0  0  0  0  0  0  0  0  0  0  0
    1.4899    2.3524    0.3125 H   0  0  0  0  0  0  0  0  0  0  0  0
    3.2380    0.7444   -0.0200 S   0  0  0  0  0  0  0  0  0  0  0  0
    3.5422   -0.3112   -1.4915 C   0  0  0  0  0  0  0  0  0  0  0  0
    3.6263    0.3069   -2.3900 H   0  0  0  0  0  0  0  0  0  0  0  0
    4.4741   -0.8696   -1.3619 H   0  0  0  0  0  0  0  0  0  0  0  0
    2.7252   -1.0248   -1.6287 H   0  0  0  0  0  0  0  0  0  0  0  0
    0.5581   -0.1072    1.9638 C   0  0  0  0  0  0  0  0  0  0  0  0
    1.6111   -0.2373    2.5713 O   0  0  0  0  0  0  0  0  0  0  0  0
   -0.5035    0.5148    2.5989 N   0  0  0  0  0  0  0  0  0  0  0  0
   -1.3996    0.4533    2.1290 H   0  0  0  0  0  0  0  0  0  0  0  0
   -0.4788    0.8557    4.0159 C   0  0  0  0  0  0  0  0  0  0  0  0
    0.3541    1.5329    4.2331 H   0  0  0  0  0  0  0  0  0  0  0  0
   -1.4099    1.3535    4.3024 H   0  0  0  0  0  0  0  0  0  0  0  0
   -0.3650   -0.0480    4.6238 H   0  0  0  0  0  0  0  0  0  0  0  0
  1  2  1  0  0  0  0
  2  3  1  0  0  0  0
  2  4  1  0  0  0  0
  2  5  1  0  0  0  0
  5  6  2  0  0  0  0
  5  7  1  0  0  0  0
  7  8  1  0  0  0  0
  7  9  1  0  0  0  0
  9 10  1  0  0  0  0
  9 11  1  0  0  0  0
  9 22  1  0  0  0  0
 11 12  1  0  0  0  0
 11 13  1  0  0  0  0
 11 14  1  0  0  0  0
 14 15  1  0  0  0  0
 14 16  1  0  0  0  0
 14 17  1  0  0  0  0
 17 18  1  0  0  0  0
 18 19  1  0  0  0  0
 18 20  1  0  0  0  0
 18 21  1  0  0  0  0
 22 23  2  0  0  0  0
 22 24  1  0  0  0  0
 24 25  1  0  0  0  0
 24 26  1  0  0  0  0
 26 27  1  0  0  0  0
 26 28  1  0  0  0  0
 26 29  1  0  0  0  0
M  END
$$$$

  -OEChem-04042216023D

 29 28  0     1  0  0  0  0  0999 V2000
   -3.5047   -3.7178    0.6874 H   0  0  0  0  0  0  0  0  0  0  0  0
   -3.2306   -2.8313    0.1082 C   0  0  0  0  0  0  0  0  0  0  0  0
   -3.9467   -2.0354    0.3252 H   0  0  0  0  0  0  0  0  0  0  0  0
   -3.2791   -3.0778   -0.9551 H   0  0  0  0  0  0  0  0  0  0  0  0
   -1.8274   -2.3841    0.4724 C   0  0  0  0  0  0  0  0  0  0  0  0
   -1.1738   -3.0357    1.2654 O   0  0  0  0  0  0  0  0  0  0  0  0
   -1.3090   -1.2364   -0.0962 N   0  0  0  0  0  0  0  0  0  0  0  0
   -1.8661   -0.8196   -0.8355 H   0  0  0  0  0  0  0  0  0  0  0  0
    0.1035   -0.8175    0.0157 C   0  0  1  0  0  0  0  0  0  0  0  0
    0.7420   -1.5967   -0.4141 H   0  0  0  0  0  0  0  0  0  0  0  0
    0.2326    0.4927   -0.7938 C   0  0  0  0  0  0  0  0  0  0  0  0
   -0.0564    0.2813   -1.8282 H   0  0  0  0  0  0  0  0  0  0  0  0
   -0.4672    1.2367   -0.3996 H   0  0  0  0  0  0  0  0  0  0  0  0
    1.6391    1.1142   -0.8196 C   0  0  0  0  0  0  0  0  0  0  0  0
    1.6874    1.9012   -1.5787 H   0  0  0  0  0  0  0  0  0  0  0  0
    1.8345    1.5799    0.1521 H   0  0  0  0  0  0  0  0  0  0  0  0
    2.9495   -0.1368   -1.1409 S   0  0  0  0  0  0  0  0  0  0  0  0
    4.3775    0.5783   -0.2372 C   0  0  0  0  0  0  0  0  0  0  0  0
    4.1460    0.6544    0.8299 H   0  0  0  0  0  0  0  0  0  0  0  0
    5.2559   -0.0625   -0.3580 H   0  0  0  0  0  0  0  0  0  0  0  0
    4.6129    1.5748   -0.6212 H   0  0  0  0  0  0  0  0  0  0  0  0
    0.5548   -0.5931    1.4834 C   0  0  0  0  0  0  0  0  0  0  0  0
    1.6929   -0.8597    1.8469 O   0  0  0  0  0  0  0  0  0  0  0  0
   -0.2672    0.1095    2.3477 N   0  0  0  0  0  0  0  0  0  0  0  0
   -1.2367    0.1899    2.0605 H   0  0  0  0  0  0  0  0  0  0  0  0
    0.0598    0.3025    3.7550 C   0  0  0  0  0  0  0  0  0  0  0  0
    0.9948    0.8631    3.8585 H   0  0  0  0  0  0  0  0  0  0  0  0
   -0.7355    0.8630    4.2555 H   0  0  0  0  0  0  0  0  0  0  0  0
    0.1723   -0.6646    4.2566 H   0  0  0  0  0  0  0  0  0  0  0  0
  1  2  1  0  0  0  0
  2  3  1  0  0  0  0
  2  4  1  0  0  0  0
  2  5  1  0  0  0  0
  5  6  2  0  0  0  0
  5  7  1  0  0  0  0
  7  8  1  0  0  0  0
  7  9  1  0  0  0  0
  9 10  1  0  0  0  0
  9 11  1  0  0  0  0
  9 22  1  0  0  0  0
 11 12  1  0  0  0  0
 11 13  1  0  0  0  0
 11 14  1  0  0  0  0
 14 15  1  0  0  0  0
 14 16  1  0  0  0  0
 14 17  1  0  0  0  0
 17 18  1  0  0  0  0
 18 19  1  0  0  0  0
 18 20  1  0  0  0  0
 18 21  1  0  0  0  0
 22 23  2  0  0  0  0
 22 24  1  0  0  0  0
 24 25  1  0  0  0  0
 24 26  1  0  0  0  0
 26 27  1  0  0  0  0
 26 28  1  0  0  0  0
 26 29  1  0  0  0  0
M  END
$$$$

  -OEChem-04042216023D

 29 28  0     1  0  0  0  0  0999 V2000
   -3.4345   -3.7709    0.7691 H   0  0  0  0  0  0  0  0  0  0  0  0
   -3.1902   -2.8923    0.1651 C   0  0  0  0  0  0  0  0  0  0  0  0
   -3.9190   -2.1066    0.3778 H   0  0  0  0  0  0  0  0  0  0  0  0
   -3.2531   -3.1640   -0.8914 H   0  0  0  0  0  0  0  0  0  0  0  0
   -1.7900   -2.4083    0.4924 C   0  0  0  0  0  0  0  0  0  0  0  0
   -1.1032   -3.0354    1.2774 O   0  0  0  0  0  0  0  0  0  0  0  0
   -1.3119   -1.2530   -0.0955 N   0  0  0  0  0  0  0  0  0  0  0  0
   -1.8956   -0.8517   -0.8229 H   0  0  0  0  0  0  0  0  0  0  0  0
    0.0937   -0.8059   -0.0200 C   0  0  1  0  0  0  0  0  0  0  0  0
    0.7338   -1.5830   -0.4519 H   0  0  0  0  0  0  0  0  0  0  0  0
    0.1965    0.4814   -0.8681 C   0  0  0  0  0  0  0  0  0  0  0  0
   -0.1111    0.2565   -1.8944 H   0  0  0  0  0  0  0  0  0  0  0  0
   -0.4946    1.2309   -0.4689 H   0  0  0  0  0  0  0  0  0  0  0  0
    1.6040    1.0934   -0.9083 C   0  0  0  0  0  0  0  0  0  0  0  0
    1.5958    2.0044   -1.5146 H   0  0  0  0  0  0  0  0  0  0  0  0
    1.9209    1.3752    0.1010 H   0  0  0  0  0  0  0  0  0  0  0  0
    2.8035   -0.1012   -1.6252 S   0  0  0  0  0  0  0  0  0  0  0  0
    4.3462    0.3763   -0.7534 C   0  0  0  0  0  0  0  0  0  0  0  0
    4.2200    0.2534    0.3271 H   0  0  0  0  0  0  0  0  0  0  0  0
    5.1749   -0.2576   -1.0821 H   0  0  0  0  0  0  0  0  0  0  0  0
    4.5963    1.4200   -0.9642 H   0  0  0  0  0  0  0  0  0  0  0  0
    0.5877   -0.5614    1.4288 C   0  0  0  0  0  0  0  0  0  0  0  0
    1.7521   -0.7811    1.7381 O   0  0  0  0  0  0  0  0  0  0  0  0
   -0.2162    0.1313    2.3171 N   0  0  0  0  0  0  0  0  0  0  0  0
   -1.2000    0.1759    2.0733 H   0  0  0  0  0  0  0  0  0  0  0  0
    0.1687    0.3643    3.7035 C   0  0  0  0  0  0  0  0  0  0  0  0
    1.0975    0.9425    3.7523 H   0  0  0  0  0  0  0  0  0  0  0  0
   -0.6130    0.9252    4.2245 H   0  0  0  0  0  0  0  0  0  0  0  0
    0.3193   -0.5880    4.2232 H   0  0  0  0  0  0  0  0  0  0  0  0
  1  2  1  0  0  0  0
  2  3  1  0  0  0  0
  2  4  1  0  0  0  0
  2  5  1  0  0  0  0
  5  6  2  0  0  0  0
  5  7  1  0  0  0  0
  7  8  1  0  0  0  0
  7  9  1  0  0  0  0
  9 10  1  0  0  0  0
  9 11  1  0  0  0  0
  9 22  1  0  0  0  0
 11 12  1  0  0  0  0
 11 13  1  0  0  0  0
 11 14  1  0  0  0  0
 14 15  1  0  0  0  0
 14 16  1  0  0  0  0
 14 17  1  0  0  0  0
 17 18  1  0  0  0  0
 18 19  1  0  0  0  0
 18 20  1  0  0  0  0
 18 21  1  0  0  0  0
 22 23  2  0  0  0  0
 22 24  1  0  0  0  0
 24 25  1  0  0  0  0
 24 26  1  0  0  0  0
 26 27  1  0  0  0  0
 26 28  1  0  0  0  0
 26 29  1  0  0  0  0
M  END
$$$$

  -OEChem-04042216023D

 29 28  0     1  0  0  0  0  0999 V2000
   -3.0020   -3.9368    0.7218 H   0  0  0  0  0  0  0  0  0  0  0  0
   -2.9002   -2.9786    0.2040 C   0  0  0  0  0  0  0  0  0  0  0  0
   -3.6666   -2.2948    0.5764 H   0  0  0  0  0  0  0  0  0  0  0  0
   -3.0524   -3.1406   -0.8658 H   0  0  0  0  0  0  0  0  0  0  0  0
   -1.5205   -2.3977    0.4493 C   0  0  0  0  0  0  0  0  0  0  0  0
   -0.7305   -2.9938    1.1577 O   0  0  0  0  0  0  0  0  0  0  0  0
   -1.1714   -1.1956   -0.1354 N   0  0  0  0  0  0  0  0  0  0  0  0
   -1.8323   -0.8178   -0.8073 H   0  0  0  0  0  0  0  0  0  0  0  0
    0.1924   -0.6299   -0.1175 C   0  0  1  0  0  0  0  0  0  0  0  0
    0.8781   -1.3349   -0.5996 H   0  0  0  0  0  0  0  0  0  0  0  0
    0.1374    0.6723   -0.9428 C   0  0  0  0  0  0  0  0  0  0  0  0
   -0.2194    0.4478   -1.9533 H   0  0  0  0  0  0  0  0  0  0  0  0
   -0.5887    1.3471   -0.4781 H   0  0  0  0  0  0  0  0  0  0  0  0
    1.4754    1.4192   -1.0498 C   0  0  0  0  0  0  0  0  0  0  0  0
    1.2842    2.4239   -1.4394 H   0  0  0  0  0  0  0  0  0  0  0  0
    1.9571    1.5389   -0.0745 H   0  0  0  0  0  0  0  0  0  0  0  0
    2.5935    0.5533   -2.2261 S   0  0  0  0  0  0  0  0  0  0  0  0
    3.7772   -0.3152   -1.1208 C   0  0  0  0  0  0  0  0  0  0  0  0
    3.2769   -1.1229   -0.5801 H   0  0  0  0  0  0  0  0  0  0  0  0
    4.5912   -0.7472   -1.7098 H   0  0  0  0  0  0  0  0  0  0  0  0
    4.2028    0.3821   -0.3931 H   0  0  0  0  0  0  0  0  0  0  0  0
    0.7225   -0.3727    1.3163 C   0  0  0  0  0  0  0  0  0  0  0  0
    1.9100   -0.5160    1.5781 O   0  0  0  0  0  0  0  0  0  0  0  0
   -0.0980    0.2295    2.2537 N   0  0  0  0  0  0  0  0  0  0  0  0
   -1.0910    0.2154    2.0465 H   0  0  0  0  0  0  0  0  0  0  0  0
    0.3267    0.4816    3.6252 C   0  0  0  0  0  0  0  0  0  0  0  0
    1.1997    1.1426    3.6407 H   0  0  0  0  0  0  0  0  0  0  0  0
   -0.4782    0.9626    4.1889 H   0  0  0  0  0  0  0  0  0  0  0  0
    0.5876   -0.4581    4.1235 H   0  0  0  0  0  0  0  0  0  0  0  0
  1  2  1  0  0  0  0
  2  3  1  0  0  0  0
  2  4  1  0  0  0  0
  2  5  1  0  0  0  0
  5  6  2  0  0  0  0
  5  7  1  0  0  0  0
  7  8  1  0  0  0  0
  7  9  1  0  0  0  0
  9 10  1  0  0  0  0
  9 11  1  0  0  0  0
  9 22  1  0  0  0  0
 11 12  1  0  0  0  0
 11 13  1  0  0  0  0
 11 14  1  0  0  0  0
 14 15  1  0  0  0  0
 14 16  1  0  0  0  0
 14 17  1  0  0  0  0
 17 18  1  0  0  0  0
 18 19  1  0  0  0  0
 18 20  1  0  0  0  0
 18 21  1  0  0  0  0
 22 23  2  0  0  0  0
 22 24  1  0  0  0  0
 24 25  1  0  0  0  0
 24 26  1  0  0  0  0
 26 27  1  0  0  0  0
 26 28  1  0  0  0  0
 26 29  1  0  0  0  0
M  END
$$$$

  -OEChem-04042216023D

 29 28  0     1  0  0  0  0  0999 V2000
   -2.9882   -3.9283    0.7730 H   0  0  0  0  0  0  0  0  0  0  0  0
   -2.8795   -2.9981    0.2078 C   0  0  0  0  0  0  0  0  0  0  0  0
   -3.6528   -2.2979    0.5324 H   0  0  0  0  0  0  0  0  0  0  0  0
   -3.0149   -3.2151   -0.8545 H   0  0  0  0  0  0  0  0  0  0  0  0
   -1.5043   -2.4022    0.4431 C   0  0  0  0  0  0  0  0  0  0  0  0
   -0.6991   -2.9934    1.1385 O   0  0  0  0  0  0  0  0  0  0  0  0
   -1.1757   -1.1914   -0.1354 N   0  0  0  0  0  0  0  0  0  0  0  0
   -1.8521   -0.8102   -0.7901 H   0  0  0  0  0  0  0  0  0  0  0  0
    0.1813   -0.6101   -0.1281 C   0  0  1  0  0  0  0  0  0  0  0  0
    0.8661   -1.3119   -0.6160 H   0  0  0  0  0  0  0  0  0  0  0  0
    0.1085    0.6774   -0.9751 C   0  0  0  0  0  0  0  0  0  0  0  0
   -0.2621    0.4414   -1.9781 H   0  0  0  0  0  0  0  0  0  0  0  0
   -0.6191    1.3490   -0.5076 H   0  0  0  0  0  0  0  0  0  0  0  0
    1.4378    1.4401   -1.0949 C   0  0  0  0  0  0  0  0  0  0  0  0
    1.2156    2.4995   -1.2566 H   0  0  0  0  0  0  0  0  0  0  0  0
    2.0477    1.3782   -0.1897 H   0  0  0  0  0  0  0  0  0  0  0  0
    2.3698    0.8336   -2.5563 S   0  0  0  0  0  0  0  0  0  0  0  0
    3.6401   -0.2227   -1.7510 C   0  0  0  0  0  0  0  0  0  0  0  0
    3.1665   -1.0137   -1.1623 H   0  0  0  0  0  0  0  0  0  0  0  0
    4.2794   -0.6854   -2.5085 H   0  0  0  0  0  0  0  0  0  0  0  0
    4.2657    0.3789   -1.0848 H   0  0  0  0  0  0  0  0  0  0  0  0
    0.7395   -0.3524    1.2930 C   0  0  0  0  0  0  0  0  0  0  0  0
    1.9334   -0.5027    1.5214 O   0  0  0  0  0  0  0  0  0  0  0  0
   -0.0618    0.2366    2.2544 N   0  0  0  0  0  0  0  0  0  0  0  0
   -1.0591    0.2233    2.0684 H   0  0  0  0  0  0  0  0  0  0  0  0
    0.3913    0.4667    3.6204 C   0  0  0  0  0  0  0  0  0  0  0  0
    1.2678    1.1234    3.6287 H   0  0  0  0  0  0  0  0  0  0  0  0
   -0.4004    0.9428    4.2066 H   0  0  0  0  0  0  0  0  0  0  0  0
    0.6571   -0.4814    4.1001 H   0  0  0  0  0  0  0  0  0  0  0  0
  1  2  1  0  0  0  0
  2  3  1  0  0  0  0
  2  4  1  0  0  0  0
  2  5  1  0  0  0  0
  5  6  2  0  0  0  0
  5  7  1  0  0  0  0
  7  8  1  0  0  0  0
  7  9  1  0  0  0  0
  9 10  1  0  0  0  0
  9 11  1  0  0  0  0
  9 22  1  0  0  0  0
 11 12  1  0  0  0  0
 11 13  1  0  0  0  0
 11 14  1  0  0  0  0
 14 15  1  0  0  0  0
 14 16  1  0  0  0  0
 14 17  1  0  0  0  0
 17 18  1  0  0  0  0
 18 19  1  0  0  0  0
 18 20  1  0  0  0  0
 18 21  1  0  0  0  0
 22 23  2  0  0  0  0
 22 24  1  0  0  0  0
 24 25  1  0  0  0  0
 24 26  1  0  0  0  0
 26 27  1  0  0  0  0
 26 28  1  0  0  0  0
 26 29  1  0  0  0  0
M  END
$$$$

  -OEChem-04042216023D

 29 28  0     1  0  0  0  0  0999 V2000
   -2.7179   -4.0157    0.6533 H   0  0  0  0  0  0  0  0  0  0  0  0
   -2.6558   -3.0489    0.1454 C   0  0  0  0  0  0  0  0  0  0  0  0
   -3.4567   -2.4050    0.5163 H   0  0  0  0  0  0  0  0  0  0  0  0
   -2.7904   -3.2072   -0.9274 H   0  0  0  0  0  0  0  0  0  0  0  0
   -1.3074   -2.4061    0.4103 C   0  0  0  0  0  0  0  0  0  0  0  0
   -0.4935   -2.9734    1.1152 O   0  0  0  0  0  0  0  0  0  0  0  0
   -1.0104   -1.1817   -0.1562 N   0  0  0  0  0  0  0  0  0  0  0  0
   -1.6890   -0.8144   -0.8165 H   0  0  0  0  0  0  0  0  0  0  0  0
    0.3137   -0.5332   -0.0882 C   0  0  1  0  0  0  0  0  0  0  0  0
    1.0576   -1.1980   -0.5382 H   0  0  0  0  0  0  0  0  0  0  0  0
    0.2073    0.7555   -0.9305 C   0  0  0  0  0  0  0  0  0  0  0  0
   -0.1126    0.5026   -1.9466 H   0  0  0  0  0  0  0  0  0  0  0  0
   -0.5757    1.3833   -0.4927 H   0  0  0  0  0  0  0  0  0  0  0  0
    1.4958    1.5963   -0.9992 C   0  0  0  0  0  0  0  0  0  0  0  0
    1.2351    2.6517   -0.8713 H   0  0  0  0  0  0  0  0  0  0  0  0
    2.2041    1.3423   -0.2064 H   0  0  0  0  0  0  0  0  0  0  0  0
    2.3096    1.4024   -2.6368 S   0  0  0  0  0  0  0  0  0  0  0  0
    3.0348   -0.2818   -2.5263 C   0  0  0  0  0  0  0  0  0  0  0  0
    2.2456   -1.0382   -2.5148 H   0  0  0  0  0  0  0  0  0  0  0  0
    3.6806   -0.4685   -3.3894 H   0  0  0  0  0  0  0  0  0  0  0  0
    3.6322   -0.3794   -1.6143 H   0  0  0  0  0  0  0  0  0  0  0  0
    0.7851   -0.2478    1.3593 C   0  0  0  0  0  0  0  0  0  0  0  0
    1.9696   -0.3504    1.6514 O   0  0  0  0  0  0  0  0  0  0  0  0
   -0.0912    0.3006    2.2785 N   0  0  0  0  0  0  0  0  0  0  0  0
   -1.0761    0.2512    2.0401 H   0  0  0  0  0  0  0  0  0  0  0  0
    0.2827    0.5579    3.6636 C   0  0  0  0  0  0  0  0  0  0  0  0
    1.1303    1.2499    3.7102 H   0  0  0  0  0  0  0  0  0  0  0  0
   -0.5558    1.0051    4.2055 H   0  0  0  0  0  0  0  0  0  0  0  0
    0.5627   -0.3756    4.1632 H   0  0  0  0  0  0  0  0  0  0  0  0
  1  2  1  0  0  0  0
  2  3  1  0  0  0  0
  2  4  1  0  0  0  0
  2  5  1  0  0  0  0
  5  6  2  0  0  0  0
  5  7  1  0  0  0  0
  7  8  1  0  0  0  0
  7  9  1  0  0  0  0
  9 10  1  0  0  0  0
  9 11  1  0  0  0  0
  9 22  1  0  0  0  0
 11 12  1  0  0  0  0
 11 13  1  0  0  0  0
 11 14  1  0  0  0  0
 14 15  1  0  0  0  0
 14 16  1  0  0  0  0
 14 17  1  0  0  0  0
 17 18  1  0  0  0  0
 18 19  1  0  0  0  0
 18 20  1  0  0  0  0
 18 21  1  0  0  0  0
 22 23  2  0  0  0  0
 22 24  1  0  0  0  0
 24 25  1  0  0  0  0
 24 26  1  0  0  0  0
 26 27  1  0  0  0  0
 26 28  1  0  0  0  0
 26 29  1  0  0  0  0
M  END
$$$$

  -OEChem-04042216023D

 29 28  0     1  0  0  0  0  0999 V2000
   -2.6869   -4.0292    0.6409 H   0  0  0  0  0  0  0  0  0  0  0  0
   -2.6429   -3.0505    0.1541 C   0  0  0  0  0  0  0  0  0  0  0  0
   -3.4354   -2.4190    0.5627 H   0  0  0  0  0  0  0  0  0  0  0  0
   -2.8075   -3.1846   -0.9178 H   0  0  0  0  0  0  0  0  0  0  0  0
   -1.2897   -2.4089    0.3964 C   0  0  0  0  0  0  0  0  0  0  0  0
   -0.4652   -2.9777    1.0875 O   0  0  0  0  0  0  0  0  0  0  0  0
   -1.0005   -1.1822   -0.1694 N   0  0  0  0  0  0  0  0  0  0  0  0
   -1.6899   -0.8073   -0.8140 H   0  0  0  0  0  0  0  0  0  0  0  0
    0.3197   -0.5252   -0.1000 C   0  0  1  0  0  0  0  0  0  0  0  0
    1.0698   -1.1816   -0.5554 H   0  0  0  0  0  0  0  0  0  0  0  0
    0.2122    0.7680   -0.9321 C   0  0  0  0  0  0  0  0  0  0  0  0
   -0.0928    0.5080   -1.9507 H   0  0  0  0  0  0  0  0  0  0  0  0
   -0.5783    1.3973   -0.5104 H   0  0  0  0  0  0  0  0  0  0  0  0
    1.5088    1.5986   -0.9817 C   0  0  0  0  0  0  0  0  0  0  0  0
    1.3213    2.5910   -0.5594 H   0  0  0  0  0  0  0  0  0  0  0  0
    2.3105    1.1405   -0.3952 H   0  0  0  0  0  0  0  0  0  0  0  0
    2.0850    1.7791   -2.7178 S   0  0  0  0  0  0  0  0  0  0  0  0
    2.7436    0.0991   -3.0625 C   0  0  0  0  0  0  0  0  0  0  0  0
    1.9457   -0.6461   -2.9998 H   0  0  0  0  0  0  0  0  0  0  0  0
    3.1754    0.0648   -4.0669 H   0  0  0  0  0  0  0  0  0  0  0  0
    3.5223   -0.1582   -2.3381 H   0  0  0  0  0  0  0  0  0  0  0  0
    0.7858   -0.2389    1.3496 C   0  0  0  0  0  0  0  0  0  0  0  0
    1.9708   -0.3264    1.6439 O   0  0  0  0  0  0  0  0  0  0  0  0
   -0.0971    0.3023    2.2668 N   0  0  0  0  0  0  0  0  0  0  0  0
   -1.0806    0.2460    2.0247 H   0  0  0  0  0  0  0  0  0  0  0  0
    0.2690    0.5563    3.6547 C   0  0  0  0  0  0  0  0  0  0  0  0
    1.1059    1.2606    3.7088 H   0  0  0  0  0  0  0  0  0  0  0  0
   -0.5780    0.9871    4.1969 H   0  0  0  0  0  0  0  0  0  0  0  0
    0.5613   -0.3761    4.1494 H   0  0  0  0  0  0  0  0  0  0  0  0
  1  2  1  0  0  0  0
  2  3  1  0  0  0  0
  2  4  1  0  0  0  0
  2  5  1  0  0  0  0
  5  6  2  0  0  0  0
  5  7  1  0  0  0  0
  7  8  1  0  0  0  0
  7  9  1  0  0  0  0
  9 10  1  0  0  0  0
  9 11  1  0  0  0  0
  9 22  1  0  0  0  0
 11 12  1  0  0  0  0
 11 13  1  0  0  0  0
 11 14  1  0  0  0  0
 14 15  1  0  0  0  0
 14 16  1  0  0  0  0
 14 17  1  0  0  0  0
 17 18  1  0  0  0  0
 18 19  1  0  0  0  0
 18 20  1  0  0  0  0
 18 21  1  0  0  0  0
 22 23  2  0  0  0  0
 22 24  1  0  0  0  0
 24 25  1  0  0  0  0
 24 26  1  0  0  0  0
 26 27  1  0  0  0  0
 26 28  1  0  0  0  0
 26 29  1  0  0  0  0
M  END
$$$$

  -OEChem-04042216023D

 29 28  0     1  0  0  0  0  0999 V2000
   -2.7065   -4.0422    0.6565 H   0  0  0  0  0  0  0  0  0  0  0  0
   -2.6663   -3.0652    0.1662 C   0  0  0  0  0  0  0  0  0  0  0  0
   -3.4588   -2.4340    0.5750 H   0  0  0  0  0  0  0  0  0  0  0  0
   -2.8341   -3.2037   -0.9045 H   0  0  0  0  0  0  0  0  0  0  0  0
   -1.3138   -2.4195    0.4009 C   0  0  0  0  0  0  0  0  0  0  0  0
   -0.4816   -2.9864    1.0844 O   0  0  0  0  0  0  0  0  0  0  0  0
   -1.0342   -1.1900   -0.1630 N   0  0  0  0  0  0  0  0  0  0  0  0
   -1.7345   -0.8101   -0.7928 H   0  0  0  0  0  0  0  0  0  0  0  0
    0.2848   -0.5306   -0.1075 C   0  0  1  0  0  0  0  0  0  0  0  0
    1.0281   -1.1852   -0.5766 H   0  0  0  0  0  0  0  0  0  0  0  0
    0.1722    0.7668   -0.9294 C   0  0  0  0  0  0  0  0  0  0  0  0
   -0.1225    0.5002   -1.9491 H   0  0  0  0  0  0  0  0  0  0  0  0
   -0.6190    1.4017   -0.5175 H   0  0  0  0  0  0  0  0  0  0  0  0
    1.4789    1.5780   -0.9729 C   0  0  0  0  0  0  0  0  0  0  0  0
    1.4033    2.4359   -0.2968 H   0  0  0  0  0  0  0  0  0  0  0  0
    2.3302    0.9732   -0.6433 H   0  0  0  0  0  0  0  0  0  0  0  0
    1.8164    2.1536   -2.6854 S   0  0  0  0  0  0  0  0  0  0  0  0
    2.4824    0.6283   -3.4635 C   0  0  0  0  0  0  0  0  0  0  0  0
    1.7327   -0.1679   -3.4504 H   0  0  0  0  0  0  0  0  0  0  0  0
    2.7618    0.8286   -4.5020 H   0  0  0  0  0  0  0  0  0  0  0  0
    3.3696    0.2845   -2.9229 H   0  0  0  0  0  0  0  0  0  0  0  0
    0.7780   -0.2452    1.3327 C   0  0  0  0  0  0  0  0  0  0  0  0
    1.9721   -0.3072    1.5951 O   0  0  0  0  0  0  0  0  0  0  0  0
   -0.0887    0.2928    2.2668 N   0  0  0  0  0  0  0  0  0  0  0  0
   -1.0772    0.2230    2.0503 H   0  0  0  0  0  0  0  0  0  0  0  0
    0.3099    0.5735    3.6403 C   0  0  0  0  0  0  0  0  0  0  0  0
    1.1410    1.2864    3.6608 H   0  0  0  0  0  0  0  0  0  0  0  0
   -0.5270    1.0057    4.1968 H   0  0  0  0  0  0  0  0  0  0  0  0
    0.6237   -0.3475    4.1429 H   0  0  0  0  0  0  0  0  0  0  0  0
  1  2  1  0  0  0  0
  2  3  1  0  0  0  0
  2  4  1  0  0  0  0
  2  5  1  0  0  0  0
  5  6  2  0  0  0  0
  5  7  1  0  0  0  0
  7  8  1  0  0  0  0
  7  9  1  0  0  0  0
  9 10  1  0  0  0  0
  9 11  1  0  0  0  0
  9 22  1  0  0  0  0
 11 12  1  0  0  0  0
 11 13  1  0  0  0  0
 11 14  1  0  0  0  0
 14 15  1  0  0  0  0
 14 16  1  0  0  0  0
 14 17  1  0  0  0  0
 17 18  1  0  0  0  0
 18 19  1  0  0  0  0
 18 20  1  0  0  0  0
 18 21  1  0  0  0  0
 22 23  2  0  0  0  0
 22 24  1  0  0  0  0
 24 25  1  0  0  0  0
 24 26  1  0  0  0  0
 26 27  1  0  0  0  0
 26 28  1  0  0  0  0
 26 29  1  0  0  0  0
M  END
$$$$

  -OEChem-04042216023D

 29 28  0     1  0  0  0  0  0999 V2000
   -2.7113   -4.0601    0.6720 H   0  0  0  0  0  0  0  0  0  0  0  0
   -2.6762   -3.0855    0.1765 C   0  0  0  0  0  0  0  0  0  0  0  0
   -3.4711   -2.4558    0.5829 H   0  0  0  0  0  0  0  0  0  0  0  0
   -2.8444   -3.2303   -0.8935 H   0  0  0  0  0  0  0  0  0  0  0  0
   -1.3266   -2.4318    0.4060 C   0  0  0  0  0  0  0  0  0  0  0  0
   -0.4842   -2.9974    1.0781 O   0  0  0  0  0  0  0  0  0  0  0  0
   -1.0587   -1.1982   -0.1544 N   0  0  0  0  0  0  0  0  0  0  0  0
   -1.7680   -0.8168   -0.7733 H   0  0  0  0  0  0  0  0  0  0  0  0
    0.2572   -0.5327   -0.1074 C   0  0  1  0  0  0  0  0  0  0  0  0
    0.9962   -1.1869   -0.5838 H   0  0  0  0  0  0  0  0  0  0  0  0
    0.1394    0.7641   -0.9277 C   0  0  0  0  0  0  0  0  0  0  0  0
   -0.1464    0.4941   -1.9490 H   0  0  0  0  0  0  0  0  0  0  0  0
   -0.6529    1.4008   -0.5209 H   0  0  0  0  0  0  0  0  0  0  0  0
    1.4482    1.5667   -0.9676 C   0  0  0  0  0  0  0  0  0  0  0  0
    1.4902    2.2523   -0.1145 H   0  0  0  0  0  0  0  0  0  0  0  0
    2.3136    0.8984   -0.8973 H   0  0  0  0  0  0  0  0  0  0  0  0
    1.5616    2.5092   -2.5413 S   0  0  0  0  0  0  0  0  0  0  0  0
    2.1637    1.2252   -3.7095 C   0  0  0  0  0  0  0  0  0  0  0  0
    1.4434    0.4059   -3.7853 H   0  0  0  0  0  0  0  0  0  0  0  0
    2.3046    1.6599   -4.7035 H   0  0  0  0  0  0  0  0  0  0  0  0
    3.1207    0.8209   -3.3662 H   0  0  0  0  0  0  0  0  0  0  0  0
    0.7717   -0.2470    1.3243 C   0  0  0  0  0  0  0  0  0  0  0  0
    1.9729   -0.2832    1.5578 O   0  0  0  0  0  0  0  0  0  0  0  0
   -0.0818    0.2853    2.2738 N   0  0  0  0  0  0  0  0  0  0  0  0
   -1.0740    0.2034    2.0789 H   0  0  0  0  0  0  0  0  0  0  0  0
    0.3431    0.5880    3.6347 C   0  0  0  0  0  0  0  0  0  0  0  0
    1.1646    1.3122    3.6286 H   0  0  0  0  0  0  0  0  0  0  0  0
   -0.4874    1.0162    4.2040 H   0  0  0  0  0  0  0  0  0  0  0  0
    0.6803   -0.3225    4.1414 H   0  0  0  0  0  0  0  0  0  0  0  0
  1  2  1  0  0  0  0
  2  3  1  0  0  0  0
  2  4  1  0  0  0  0
  2  5  1  0  0  0  0
  5  6  2  0  0  0  0
  5  7  1  0  0  0  0
  7  8  1  0  0  0  0
  7  9  1  0  0  0  0
  9 10  1  0  0  0  0
  9 11  1  0  0  0  0
  9 22  1  0  0  0  0
 11 12  1  0  0  0  0
 11 13  1  0  0  0  0
 11 14  1  0  0  0  0
 14 15  1  0  0  0  0
 14 16  1  0  0  0  0
 14 17  1  0  0  0  0
 17 18  1  0  0  0  0
 18 19  1  0  0  0  0
 18 20  1  0  0  0  0
 18 21  1  0  0  0  0
 22 23  2  0  0  0  0
 22 24  1  0  0  0  0
 24 25  1  0  0  0  0
 24 26  1  0  0  0  0
 26 27  1  0  0  0  0
 26 28  1  0  0  0  0
 26 29  1  0  0  0  0
M  END
$$$$

  -OEChem-04042216023D

 29 28  0     1  0  0  0  0  0999 V2000
   -2.6993   -4.0667    0.6735 H   0  0  0  0  0  0  0  0  0  0  0  0
   -2.6656   -3.0920    0.1783 C   0  0  0  0  0  0  0  0  0  0  0  0
   -3.4597   -2.4625    0.5866 H   0  0  0  0  0  0  0  0  0  0  0  0
   -2.8360   -3.2363   -0.8913 H   0  0  0  0  0  0  0  0  0  0  0  0
   -1.3156   -2.4388    0.4054 C   0  0  0  0  0  0  0  0  0  0  0  0
   -0.4719   -3.0041    1.0762 O   0  0  0  0  0  0  0  0  0  0  0  0
   -1.0503   -1.2034   -0.1519 N   0  0  0  0  0  0  0  0  0  0  0  0
   -1.7607   -0.8209   -0.7686 H   0  0  0  0  0  0  0  0  0  0  0  0
    0.2626   -0.5328   -0.0994 C   0  0  1  0  0  0  0  0  0  0  0  0
    1.0056   -1.1852   -0.5719 H   0  0  0  0  0  0  0  0  0  0  0  0
    0.1434    0.7606   -0.9254 C   0  0  0  0  0  0  0  0  0  0  0  0
   -0.1374    0.4914   -1.9477 H   0  0  0  0  0  0  0  0  0  0  0  0
   -0.6510    1.3941   -0.5173 H   0  0  0  0  0  0  0  0  0  0  0  0
    1.4471    1.5684   -0.9612 C   0  0  0  0  0  0  0  0  0  0  0  0
    1.6042    2.0686    0.0006 H   0  0  0  0  0  0  0  0  0  0  0  0
    2.3034    0.9083   -1.1362 H   0  0  0  0  0  0  0  0  0  0  0  0
    1.3618    2.8266   -2.2982 S   0  0  0  0  0  0  0  0  0  0  0  0
    1.7713    1.8418   -3.7939 C   0  0  0  0  0  0  0  0  0  0  0  0
    1.0247    1.0593   -3.9550 H   0  0  0  0  0  0  0  0  0  0  0  0
    1.7919    2.4909   -4.6743 H   0  0  0  0  0  0  0  0  0  0  0  0
    2.7540    1.3739   -3.6816 H   0  0  0  0  0  0  0  0  0  0  0  0
    0.7719   -0.2469    1.3337 C   0  0  0  0  0  0  0  0  0  0  0  0
    1.9733   -0.2758    1.5676 O   0  0  0  0  0  0  0  0  0  0  0  0
   -0.0855    0.2806    2.2822 N   0  0  0  0  0  0  0  0  0  0  0  0
   -1.0770    0.1968    2.0847 H   0  0  0  0  0  0  0  0  0  0  0  0
    0.3362    0.5862    3.6437 C   0  0  0  0  0  0  0  0  0  0  0  0
    1.1514    1.3178    3.6386 H   0  0  0  0  0  0  0  0  0  0  0  0
   -0.4984    1.0062    4.2131 H   0  0  0  0  0  0  0  0  0  0  0  0
    0.6814   -0.3218    4.1495 H   0  0  0  0  0  0  0  0  0  0  0  0
  1  2  1  0  0  0  0
  2  3  1  0  0  0  0
  2  4  1  0  0  0  0
  2  5  1  0  0  0  0
  5  6  2  0  0  0  0
  5  7  1  0  0  0  0
  7  8  1  0  0  0  0
  7  9  1  0  0  0  0
  9 10  1  0  0  0  0
  9 11  1  0  0  0  0
  9 22  1  0  0  0  0
 11 12  1  0  0  0  0
 11 13  1  0  0  0  0
 11 14  1  0  0  0  0
 14 15  1  0  0  0  0
 14 16  1  0  0  0  0
 14 17  1  0  0  0  0
 17 18  1  0  0  0  0
 18 19  1  0  0  0  0
 18 20  1  0  0  0  0
 18 21  1  0  0  0  0
 22 23  2  0  0  0  0
 22 24  1  0  0  0  0
 24 25  1  0  0  0  0
 24 26  1  0  0  0  0
 26 27  1  0  0  0  0
 26 28  1  0  0  0  0
 26 29  1  0  0  0  0
M  END
$$$$

  -OEChem-04042216023D

 29 28  0     1  0  0  0  0  0999 V2000
   -2.6851   -4.0725    0.6815 H   0  0  0  0  0  0  0  0  0  0  0  0
   -2.6514   -3.1038    0.1745 C   0  0  0  0  0  0  0  0  0  0  0  0
   -3.4437   -2.4689    0.5781 H   0  0  0  0  0  0  0  0  0  0  0  0
   -2.8255   -3.2599   -0.8929 H   0  0  0  0  0  0  0  0  0  0  0  0
   -1.2999   -2.4494    0.3906 C   0  0  0  0  0  0  0  0  0  0  0  0
   -0.4491   -3.0171    1.0502 O   0  0  0  0  0  0  0  0  0  0  0  0
   -1.0437   -1.2082   -0.1581 N   0  0  0  0  0  0  0  0  0  0  0  0
   -1.7642   -0.8165   -0.7568 H   0  0  0  0  0  0  0  0  0  0  0  0
    0.2625   -0.5255   -0.0941 C   0  0  1  0  0  0  0  0  0  0  0  0
    1.0053   -1.1782   -0.5667 H   0  0  0  0  0  0  0  0  0  0  0  0
    0.1476    0.7697   -0.9179 C   0  0  0  0  0  0  0  0  0  0  0  0
   -0.3597    0.5503   -1.8620 H   0  0  0  0  0  0  0  0  0  0  0  0
   -0.4593    1.5014   -0.3745 H   0  0  0  0  0  0  0  0  0  0  0  0
    1.5167    1.3813   -1.2354 C   0  0  0  0  0  0  0  0  0  0  0  0
    2.0404    1.6314   -0.3066 H   0  0  0  0  0  0  0  0  0  0  0  0
    2.1385    0.6690   -1.7873 H   0  0  0  0  0  0  0  0  0  0  0  0
    1.2945    2.9183   -2.2184 S   0  0  0  0  0  0  0  0  0  0  0  0
    0.9720    2.2748   -3.9084 C   0  0  0  0  0  0  0  0  0  0  0  0
    0.0464    1.6931   -3.9280 H   0  0  0  0  0  0  0  0  0  0  0  0
    0.8748    3.1066   -4.6125 H   0  0  0  0  0  0  0  0  0  0  0  0
    1.7984    1.6363   -4.2344 H   0  0  0  0  0  0  0  0  0  0  0  0
    0.7724   -0.2376    1.3377 C   0  0  0  0  0  0  0  0  0  0  0  0
    1.9728   -0.2747    1.5740 O   0  0  0  0  0  0  0  0  0  0  0  0
   -0.0866    0.2803    2.2900 N   0  0  0  0  0  0  0  0  0  0  0  0
   -1.0780    0.2139    2.0862 H   0  0  0  0  0  0  0  0  0  0  0  0
    0.3339    0.5832    3.6522 C   0  0  0  0  0  0  0  0  0  0  0  0
    1.1372    1.3276    3.6494 H   0  0  0  0  0  0  0  0  0  0  0  0
   -0.5054    0.9859    4.2269 H   0  0  0  0  0  0  0  0  0  0  0  0
    0.6949   -0.3226    4.1509 H   0  0  0  0  0  0  0  0  0  0  0  0
  1  2  1  0  0  0  0
  2  3  1  0  0  0  0
  2  4  1  0  0  0  0
  2  5  1  0  0  0  0
  5  6  2  0  0  0  0
  5  7  1  0  0  0  0
  7  8  1  0  0  0  0
  7  9  1  0  0  0  0
  9 10  1  0  0  0  0
  9 11  1  0  0  0  0
  9 22  1  0  0  0  0
 11 12  1  0  0  0  0
 11 13  1  0  0  0  0
 11 14  1  0  0  0  0
 14 15  1  0  0  0  0
 14 16  1  0  0  0  0
 14 17  1  0  0  0  0
 17 18  1  0  0  0  0
 18 19  1  0  0  0  0
 18 20  1  0  0  0  0
 18 21  1  0  0  0  0
 22 23  2  0  0  0  0
 22 24  1  0  0  0  0
 24 25  1  0  0  0  0
 24 26  1  0  0  0  0
 26 27  1  0  0  0  0
 26 28  1  0  0  0  0
 26 29  1  0  0  0  0
M  END
$$$$

  -OEChem-04042216023D

 29 28  0     1  0  0  0  0  0999 V2000
   -2.6785   -4.0585    0.6271 H   0  0  0  0  0  0  0  0  0  0  0  0
   -2.6395   -3.0776    0.1446 C   0  0  0  0  0  0  0  0  0  0  0  0
   -3.4278   -2.4480    0.5637 H   0  0  0  0  0  0  0  0  0  0  0  0
   -2.8137   -3.2064   -0.9263 H   0  0  0  0  0  0  0  0  0  0  0  0
   -1.2844   -2.4369    0.3776 C   0  0  0  0  0  0  0  0  0  0  0  0
   -0.4498   -3.0115    1.0516 O   0  0  0  0  0  0  0  0  0  0  0  0
   -1.0045   -1.2033   -0.1768 N   0  0  0  0  0  0  0  0  0  0  0  0
   -1.7120   -0.8061   -0.7871 H   0  0  0  0  0  0  0  0  0  0  0  0
    0.3073   -0.5330   -0.0920 C   0  0  1  0  0  0  0  0  0  0  0  0
    1.0551   -1.1949   -0.5431 H   0  0  0  0  0  0  0  0  0  0  0  0
    0.2173    0.7544   -0.9320 C   0  0  0  0  0  0  0  0  0  0  0  0
   -0.2832    0.5403   -1.8809 H   0  0  0  0  0  0  0  0  0  0  0  0
   -0.3895    1.4894   -0.3923 H   0  0  0  0  0  0  0  0  0  0  0  0
    1.5927    1.3620   -1.2367 C   0  0  0  0  0  0  0  0  0  0  0  0
    2.2072    1.3899   -0.3314 H   0  0  0  0  0  0  0  0  0  0  0  0
    2.1229    0.7562   -1.9783 H   0  0  0  0  0  0  0  0  0  0  0  0
    1.3946    3.0879   -1.8380 S   0  0  0  0  0  0  0  0  0  0  0  0
    0.6766    2.8587   -3.5130 C   0  0  0  0  0  0  0  0  0  0  0  0
   -0.3139    2.4003   -3.4462 H   0  0  0  0  0  0  0  0  0  0  0  0
    0.5787    3.8273   -4.0122 H   0  0  0  0  0  0  0  0  0  0  0  0
    1.3239    2.2173   -4.1184 H   0  0  0  0  0  0  0  0  0  0  0  0
    0.7830   -0.2407    1.3514 C   0  0  0  0  0  0  0  0  0  0  0  0
    1.9737   -0.3081    1.6270 O   0  0  0  0  0  0  0  0  0  0  0  0
   -0.0949    0.2922    2.2783 N   0  0  0  0  0  0  0  0  0  0  0  0
   -1.0809    0.2463    2.0448 H   0  0  0  0  0  0  0  0  0  0  0  0
    0.2907    0.5908    3.6518 C   0  0  0  0  0  0  0  0  0  0  0  0
    1.1110    1.3162    3.6708 H   0  0  0  0  0  0  0  0  0  0  0  0
   -0.5560    1.0155    4.1991 H   0  0  0  0  0  0  0  0  0  0  0  0
    0.6148   -0.3210    4.1644 H   0  0  0  0  0  0  0  0  0  0  0  0
  1  2  1  0  0  0  0
  2  3  1  0  0  0  0
  2  4  1  0  0  0  0
  2  5  1  0  0  0  0
  5  6  2  0  0  0  0
  5  7  1  0  0  0  0
  7  8  1  0  0  0  0
  7  9  1  0  0  0  0
  9 10  1  0  0  0  0
  9 11  1  0  0  0  0
  9 22  1  0  0  0  0
 11 12  1  0  0  0  0
 11 13  1  0  0  0  0
 11 14  1  0  0  0  0
 14 15  1  0  0  0  0
 14 16  1  0  0  0  0
 14 17  1  0  0  0  0
 17 18  1  0  0  0  0
 18 19  1  0  0  0  0
 18 20  1  0  0  0  0
 18 21  1  0  0  0  0
 22 23  2  0  0  0  0
 22 24  1  0  0  0  0
 24 25  1  0  0  0  0
 24 26  1  0  0  0  0
 26 27  1  0  0  0  0
 26 28  1  0  0  0  0
 26 29  1  0  0  0  0
M  END
$$$$

  -OEChem-04042216023D

 29 28  0     1  0  0  0  0  0999 V2000
   -2.6940   -4.0347    0.6209 H   0  0  0  0  0  0  0  0  0  0  0  0
   -2.6443   -3.0521    0.1428 C   0  0  0  0  0  0  0  0  0  0  0  0
   -3.4162   -2.4115    0.5757 H   0  0  0  0  0  0  0  0  0  0  0  0
   -2.8354   -3.1725   -0.9262 H   0  0  0  0  0  0  0  0  0  0  0  0
   -1.2754   -2.4353    0.3603 C   0  0  0  0  0  0  0  0  0  0  0  0
   -0.4418   -3.0251    1.0223 O   0  0  0  0  0  0  0  0  0  0  0  0
   -0.9832   -1.2043   -0.1933 N   0  0  0  0  0  0  0  0  0  0  0  0
   -1.6952   -0.7880   -0.7852 H   0  0  0  0  0  0  0  0  0  0  0  0
    0.3296   -0.5378   -0.0954 C   0  0  1  0  0  0  0  0  0  0  0  0
    1.0815   -1.2021   -0.5366 H   0  0  0  0  0  0  0  0  0  0  0  0
    0.2478    0.7452   -0.9435 C   0  0  0  0  0  0  0  0  0  0  0  0
   -0.2468    0.5333   -1.8965 H   0  0  0  0  0  0  0  0  0  0  0  0
   -0.3660    1.4761   -0.4062 H   0  0  0  0  0  0  0  0  0  0  0  0
    1.6240    1.3586   -1.2423 C   0  0  0  0  0  0  0  0  0  0  0  0
    2.3217    1.1616   -0.4225 H   0  0  0  0  0  0  0  0  0  0  0  0
    2.0498    0.9155   -2.1480 H   0  0  0  0  0  0  0  0  0  0  0  0
    1.4753    3.1823   -1.4209 S   0  0  0  0  0  0  0  0  0  0  0  0
    0.5285    3.3500   -2.9857 C   0  0  0  0  0  0  0  0  0  0  0  0
   -0.4655    2.9066   -2.8803 H   0  0  0  0  0  0  0  0  0  0  0  0
    0.4136    4.4074   -3.2416 H   0  0  0  0  0  0  0  0  0  0  0  0
    1.0550    2.8481   -3.8028 H   0  0  0  0  0  0  0  0  0  0  0  0
    0.7894   -0.2431    1.3533 C   0  0  0  0  0  0  0  0  0  0  0  0
    1.9734   -0.3332    1.6497 O   0  0  0  0  0  0  0  0  0  0  0  0
   -0.0960    0.2952    2.2697 N   0  0  0  0  0  0  0  0  0  0  0  0
   -1.0783    0.2718    2.0192 H   0  0  0  0  0  0  0  0  0  0  0  0
    0.2750    0.5905    3.6480 C   0  0  0  0  0  0  0  0  0  0  0  0
    1.1028    1.3069    3.6771 H   0  0  0  0  0  0  0  0  0  0  0  0
   -0.5741    1.0245    4.1844 H   0  0  0  0  0  0  0  0  0  0  0  0
    0.5830   -0.3245    4.1652 H   0  0  0  0  0  0  0  0  0  0  0  0
  1  2  1  0  0  0  0
  2  3  1  0  0  0  0
  2  4  1  0  0  0  0
  2  5  1  0  0  0  0
  5  6  2  0  0  0  0
  5  7  1  0  0  0  0
  7  8  1  0  0  0  0
  7  9  1  0  0  0  0
  9 10  1  0  0  0  0
  9 11  1  0  0  0  0
  9 22  1  0  0  0  0
 11 12  1  0  0  0  0
 11 13  1  0  0  0  0
 11 14  1  0  0  0  0
 14 15  1  0  0  0  0
 14 16  1  0  0  0  0
 14 17  1  0  0  0  0
 17 18  1  0  0  0  0
 18 19  1  0  0  0  0
 18 20  1  0  0  0  0
 18 21  1  0  0  0  0
 22 23  2  0  0  0  0
 22 24  1  0  0  0  0
 24 25  1  0  0  0  0
 24 26  1  0  0  0  0
 26 27  1  0  0  0  0
 26 28  1  0  0  0  0
 26 29  1  0  0  0  0
M  END
$$$$

  -OEChem-04042216023D

 29 28  0     1  0  0  0  0  0999 V2000
   -2.6941   -4.0421    0.6339 H   0  0  0  0  0  0  0  0  0  0  0  0
   -2.6474   -3.0626    0.1489 C   0  0  0  0  0  0  0  0  0  0  0  0
   -3.4246   -2.4233    0.5740 H   0  0  0  0  0  0  0  0  0  0  0  0
   -2.8330   -3.1917   -0.9200 H   0  0  0  0  0  0  0  0  0  0  0  0
   -1.2821   -2.4379    0.3684 C   0  0  0  0  0  0  0  0  0  0  0  0
   -0.4505   -3.0207    1.0389 O   0  0  0  0  0  0  0  0  0  0  0  0
   -0.9905   -1.2093   -0.1918 N   0  0  0  0  0  0  0  0  0  0  0  0
   -1.6995   -0.8009   -0.7928 H   0  0  0  0  0  0  0  0  0  0  0  0
    0.3241   -0.5445   -0.0993 C   0  0  1  0  0  0  0  0  0  0  0  0
    1.0728   -1.2119   -0.5411 H   0  0  0  0  0  0  0  0  0  0  0  0
    0.2453    0.7404   -0.9453 C   0  0  0  0  0  0  0  0  0  0  0  0
   -0.2503    0.5295   -1.8982 H   0  0  0  0  0  0  0  0  0  0  0  0
   -0.3707    1.4697   -0.4089 H   0  0  0  0  0  0  0  0  0  0  0  0
    1.6247    1.3505   -1.2478 C   0  0  0  0  0  0  0  0  0  0  0  0
    2.3902    0.9272   -0.5897 H   0  0  0  0  0  0  0  0  0  0  0  0
    1.9206    1.1226   -2.2767 H   0  0  0  0  0  0  0  0  0  0  0  0
    1.5918    3.1703   -0.9849 S   0  0  0  0  0  0  0  0  0  0  0  0
    0.5181    3.7476   -2.3587 C   0  0  0  0  0  0  0  0  0  0  0  0
   -0.4834    3.3178   -2.2692 H   0  0  0  0  0  0  0  0  0  0  0  0
    0.4333    4.8381   -2.3335 H   0  0  0  0  0  0  0  0  0  0  0  0
    0.9445    3.4524   -3.3219 H   0  0  0  0  0  0  0  0  0  0  0  0
    0.7889   -0.2438    1.3465 C   0  0  0  0  0  0  0  0  0  0  0  0
    1.9727   -0.3412    1.6419 O   0  0  0  0  0  0  0  0  0  0  0  0
   -0.0935    0.3002    2.2624 N   0  0  0  0  0  0  0  0  0  0  0  0
   -1.0759    0.2831    2.0122 H   0  0  0  0  0  0  0  0  0  0  0  0
    0.2804    0.6010    3.6382 C   0  0  0  0  0  0  0  0  0  0  0  0
    1.1056    1.3207    3.6622 H   0  0  0  0  0  0  0  0  0  0  0  0
   -0.5687    1.0333    4.1761 H   0  0  0  0  0  0  0  0  0  0  0  0
    0.5929   -0.3117    4.1568 H   0  0  0  0  0  0  0  0  0  0  0  0
  1  2  1  0  0  0  0
  2  3  1  0  0  0  0
  2  4  1  0  0  0  0
  2  5  1  0  0  0  0
  5  6  2  0  0  0  0
  5  7  1  0  0  0  0
  7  8  1  0  0  0  0
  7  9  1  0  0  0  0
  9 10  1  0  0  0  0
  9 11  1  0  0  0  0
  9 22  1  0  0  0  0
 11 12  1  0  0  0  0
 11 13  1  0  0  0  0
 11 14  1  0  0  0  0
 14 15  1  0  0  0  0
 14 16  1  0  0  0  0
 14 17  1  0  0  0  0
 17 18  1  0  0  0  0
 18 19  1  0  0  0  0
 18 20  1  0  0  0  0
 18 21  1  0  0  0  0
 22 23  2  0  0  0  0
 22 24  1  0  0  0  0
 24 25  1  0  0  0  0
 24 26  1  0  0  0  0
 26 27  1  0  0  0  0
 26 28  1  0  0  0  0
 26 29  1  0  0  0  0
M  END
$$$$

  -OEChem-04042216023D

 29 28  0     1  0  0  0  0  0999 V2000
   -2.6857   -4.0682    0.6326 H   0  0  0  0  0  0  0  0  0  0  0  0
   -2.6456   -3.0874    0.1496 C   0  0  0  0  0  0  0  0  0  0  0  0
   -3.4245   -2.4526    0.5786 H   0  0  0  0  0  0  0  0  0  0  0  0
   -2.8341   -3.2151   -0.9191 H   0  0  0  0  0  0  0  0  0  0  0  0
   -1.2831   -2.4559    0.3658 C   0  0  0  0  0  0  0  0  0  0  0  0
   -0.4442   -3.0377    1.0280 O   0  0  0  0  0  0  0  0  0  0  0  0
   -1.0028   -1.2227   -0.1893 N   0  0  0  0  0  0  0  0  0  0  0  0
   -1.7181   -0.8142   -0.7824 H   0  0  0  0  0  0  0  0  0  0  0  0
    0.3065   -0.5489   -0.0971 C   0  0  1  0  0  0  0  0  0  0  0  0
    1.0560   -1.2115   -0.5447 H   0  0  0  0  0  0  0  0  0  0  0  0
    0.2188    0.7383   -0.9370 C   0  0  0  0  0  0  0  0  0  0  0  0
   -0.2609    0.5117   -1.8944 H   0  0  0  0  0  0  0  0  0  0  0  0
   -0.4153    1.4635   -0.4166 H   0  0  0  0  0  0  0  0  0  0  0  0
    1.5979    1.3526   -1.2339 C   0  0  0  0  0  0  0  0  0  0  0  0
    2.3973    0.7458   -0.7947 H   0  0  0  0  0  0  0  0  0  0  0  0
    1.7699    1.3818   -2.3144 H   0  0  0  0  0  0  0  0  0  0  0  0
    1.7062    3.0562   -0.5499 S   0  0  0  0  0  0  0  0  0  0  0  0
    0.6227    4.0079   -1.6875 C   0  0  0  0  0  0  0  0  0  0  0  0
   -0.4019    3.6276   -1.6492 H   0  0  0  0  0  0  0  0  0  0  0  0
    0.6143    5.0631   -1.3988 H   0  0  0  0  0  0  0  0  0  0  0  0
    0.9904    3.9297   -2.7149 H   0  0  0  0  0  0  0  0  0  0  0  0
    0.7833   -0.2468    1.3437 C   0  0  0  0  0  0  0  0  0  0  0  0
    1.9704   -0.3410    1.6263 O   0  0  0  0  0  0  0  0  0  0  0  0
   -0.0929    0.2900    2.2698 N   0  0  0  0  0  0  0  0  0  0  0  0
   -1.0773    0.2767    2.0277 H   0  0  0  0  0  0  0  0  0  0  0  0
    0.2972    0.6103    3.6367 C   0  0  0  0  0  0  0  0  0  0  0  0
    1.1193    1.3341    3.6406 H   0  0  0  0  0  0  0  0  0  0  0  0
   -0.5466    1.0459    4.1800 H   0  0  0  0  0  0  0  0  0  0  0  0
    0.6212   -0.2938    4.1629 H   0  0  0  0  0  0  0  0  0  0  0  0
  1  2  1  0  0  0  0
  2  3  1  0  0  0  0
  2  4  1  0  0  0  0
  2  5  1  0  0  0  0
  5  6  2  0  0  0  0
  5  7  1  0  0  0  0
  7  8  1  0  0  0  0
  7  9  1  0  0  0  0
  9 10  1  0  0  0  0
  9 11  1  0  0  0  0
  9 22  1  0  0  0  0
 11 12  1  0  0  0  0
 11 13  1  0  0  0  0
 11 14  1  0  0  0  0
 14 15  1  0  0  0  0
 14 16  1  0  0  0  0
 14 17  1  0  0  0  0
 17 18  1  0  0  0  0
 18 19  1  0  0  0  0
 18 20  1  0  0  0  0
 18 21  1  0  0  0  0
 22 23  2  0  0  0  0
 22 24  1  0  0  0  0
 24 25  1  0  0  0  0
 24 26  1  0  0  0  0
 26 27  1  0  0  0  0
 26 28  1  0  0  0  0
 26 29  1  0  0  0  0
M  END
$$$$

  -OEChem-04042216023D

 29 28  0     1  0  0  0  0  0999 V2000
   -2.6807   -4.0820    0.6299 H   0  0  0  0  0  0  0  0  0  0  0  0
   -2.6435   -3.1005    0.1480 C   0  0  0  0  0  0  0  0  0  0  0  0
   -3.4230   -2.4679    0.5792 H   0  0  0  0  0  0  0  0  0  0  0  0
   -2.8335   -3.2272   -0.9205 H   0  0  0  0  0  0  0  0  0  0  0  0
   -1.2821   -2.4664    0.3632 C   0  0  0  0  0  0  0  0  0  0  0  0
   -0.4412   -3.0485    1.0227 O   0  0  0  0  0  0  0  0  0  0  0  0
   -1.0070   -1.2298   -0.1869 N   0  0  0  0  0  0  0  0  0  0  0  0
   -1.7219   -0.8251   -0.7831 H   0  0  0  0  0  0  0  0  0  0  0  0
    0.2996   -0.5507   -0.0917 C   0  0  1  0  0  0  0  0  0  0  0  0
    1.0503   -1.2117   -0.5396 H   0  0  0  0  0  0  0  0  0  0  0  0
    0.2068    0.7355   -0.9333 C   0  0  0  0  0  0  0  0  0  0  0  0
   -0.2551    0.4889   -1.8946 H   0  0  0  0  0  0  0  0  0  0  0  0
   -0.4436    1.4608   -0.4343 H   0  0  0  0  0  0  0  0  0  0  0  0
    1.5827    1.3559   -1.2265 C   0  0  0  0  0  0  0  0  0  0  0  0
    2.3822    0.6307   -1.0389 H   0  0  0  0  0  0  0  0  0  0  0  0
    1.6432    1.6433   -2.2807 H   0  0  0  0  0  0  0  0  0  0  0  0
    1.8555    2.8479   -0.1863 S   0  0  0  0  0  0  0  0  0  0  0  0
    0.7930    4.1063   -0.9994 C   0  0  0  0  0  0  0  0  0  0  0  0
   -0.2562    3.7999   -0.9710 H   0  0  0  0  0  0  0  0  0  0  0  0
    0.8898    5.0660   -0.4832 H   0  0  0  0  0  0  0  0  0  0  0  0
    1.0945    4.2386   -2.0426 H   0  0  0  0  0  0  0  0  0  0  0  0
    0.7808   -0.2495    1.3470 C   0  0  0  0  0  0  0  0  0  0  0  0
    1.9669   -0.3585    1.6284 O   0  0  0  0  0  0  0  0  0  0  0  0
   -0.0930    0.2822    2.2782 N   0  0  0  0  0  0  0  0  0  0  0  0
   -1.0775    0.2780    2.0369 H   0  0  0  0  0  0  0  0  0  0  0  0
    0.3032    0.5993    3.6439 C   0  0  0  0  0  0  0  0  0  0  0  0
    1.1260    1.3222    3.6452 H   0  0  0  0  0  0  0  0  0  0  0  0
   -0.5379    1.0347    4.1914 H   0  0  0  0  0  0  0  0  0  0  0  0
    0.6286   -0.3062    4.1668 H   0  0  0  0  0  0  0  0  0  0  0  0
  1  2  1  0  0  0  0
  2  3  1  0  0  0  0
  2  4  1  0  0  0  0
  2  5  1  0  0  0  0
  5  6  2  0  0  0  0
  5  7  1  0  0  0  0
  7  8  1  0  0  0  0
  7  9  1  0  0  0  0
  9 10  1  0  0  0  0
  9 11  1  0  0  0  0
  9 22  1  0  0  0  0
 11 12  1  0  0  0  0
 11 13  1  0  0  0  0
 11 14  1  0  0  0  0
 14 15  1  0  0  0  0
 14 16  1  0  0  0  0
 14 17  1  0  0  0  0
 17 18  1  0  0  0  0
 18 19  1  0  0  0  0
 18 20  1  0  0  0  0
 18 21  1  0  0  0  0
 22 23  2  0  0  0  0
 22 24  1  0  0  0  0
 24 25  1  0  0  0  0
 24 26  1  0  0  0  0
 26 27  1  0  0  0  0
 26 28  1  0  0  0  0
 26 29  1  0  0  0  0
M  END
$$$$

  -OEChem-04042216023D

 29 28  0     1  0  0  0  0  0999 V2000
   -2.6932   -4.0563    0.6296 H   0  0  0  0  0  0  0  0  0  0  0  0
   -2.6440   -3.0761    0.1465 C   0  0  0  0  0  0  0  0  0  0  0  0
   -3.4237   -2.4374    0.5682 H   0  0  0  0  0  0  0  0  0  0  0  0
   -2.8233   -3.2036   -0.9237 H   0  0  0  0  0  0  0  0  0  0  0  0
   -1.2805   -2.4510    0.3743 C   0  0  0  0  0  0  0  0  0  0  0  0
   -0.4505   -3.0381    1.0427 O   0  0  0  0  0  0  0  0  0  0  0  0
   -0.9915   -1.2190   -0.1794 N   0  0  0  0  0  0  0  0  0  0  0  0
   -1.6995   -0.8128   -0.7825 H   0  0  0  0  0  0  0  0  0  0  0  0
    0.3213   -0.5503   -0.0840 C   0  0  1  0  0  0  0  0  0  0  0  0
    1.0711   -1.2177   -0.5238 H   0  0  0  0  0  0  0  0  0  0  0  0
    0.2287    0.7259   -0.9452 C   0  0  0  0  0  0  0  0  0  0  0  0
   -0.2312    0.4593   -1.9022 H   0  0  0  0  0  0  0  0  0  0  0  0
   -0.4243    1.4577   -0.4611 H   0  0  0  0  0  0  0  0  0  0  0  0
    1.5946    1.3564   -1.2583 C   0  0  0  0  0  0  0  0  0  0  0  0
    2.3617    0.5778   -1.3303 H   0  0  0  0  0  0  0  0  0  0  0  0
    1.5498    1.8637   -2.2271 H   0  0  0  0  0  0  0  0  0  0  0  0
    2.0852    2.5844    0.0209 S   0  0  0  0  0  0  0  0  0  0  0  0
    0.9927    4.0198   -0.3254 C   0  0  0  0  0  0  0  0  0  0  0  0
   -0.0564    3.7513   -0.1751 H   0  0  0  0  0  0  0  0  0  0  0  0
    1.2395    4.8453    0.3488 H   0  0  0  0  0  0  0  0  0  0  0  0
    1.1273    4.3586   -1.3567 H   0  0  0  0  0  0  0  0  0  0  0  0
    0.7926   -0.2520    1.3586 C   0  0  0  0  0  0  0  0  0  0  0  0
    1.9652   -0.4171    1.6674 O   0  0  0  0  0  0  0  0  0  0  0  0
   -0.0861    0.2882    2.2805 N   0  0  0  0  0  0  0  0  0  0  0  0
   -1.0661    0.3014    2.0223 H   0  0  0  0  0  0  0  0  0  0  0  0
    0.2883    0.5610    3.6617 C   0  0  0  0  0  0  0  0  0  0  0  0
    1.1297    1.2611    3.6982 H   0  0  0  0  0  0  0  0  0  0  0  0
   -0.5529    1.0052    4.2020 H   0  0  0  0  0  0  0  0  0  0  0  0
    0.5781   -0.3655    4.1687 H   0  0  0  0  0  0  0  0  0  0  0  0
  1  2  1  0  0  0  0
  2  3  1  0  0  0  0
  2  4  1  0  0  0  0
  2  5  1  0  0  0  0
  5  6  2  0  0  0  0
  5  7  1  0  0  0  0
  7  8  1  0  0  0  0
  7  9  1  0  0  0  0
  9 10  1  0  0  0  0
  9 11  1  0  0  0  0
  9 22  1  0  0  0  0
 11 12  1  0  0  0  0
 11 13  1  0  0  0  0
 11 14  1  0  0  0  0
 14 15  1  0  0  0  0
 14 16  1  0  0  0  0
 14 17  1  0  0  0  0
 17 18  1  0  0  0  0
 18 19  1  0  0  0  0
 18 20  1  0  0  0  0
 18 21  1  0  0  0  0
 22 23  2  0  0  0  0
 22 24  1  0  0  0  0
 24 25  1  0  0  0  0
 24 26  1  0  0  0  0
 26 27  1  0  0  0  0
 26 28  1  0  0  0  0
 26 29  1  0  0  0  0
M  END
$$$$

  -OEChem-04042216023D

 29 28  0     1  0  0  0  0  0999 V2000
   -2.7356   -3.9422    0.7094 H   0  0  0  0  0  0  0  0  0  0  0  0
   -2.6436   -3.0007    0.1601 C   0  0  0  0  0  0  0  0  0  0  0  0
   -3.4265   -2.3183    0.4993 H   0  0  0  0  0  0  0  0  0  0  0  0
   -2.7788   -3.2017   -0.9054 H   0  0  0  0  0  0  0  0  0  0  0  0
   -1.2774   -2.3876    0.4041 C   0  0  0  0  0  0  0  0  0  0  0  0
   -0.4754   -2.9652    1.1131 O   0  0  0  0  0  0  0  0  0  0  0  0
   -0.9555   -1.1799   -0.1847 N   0  0  0  0  0  0  0  0  0  0  0  0
   -1.6396   -0.7931   -0.8268 H   0  0  0  0  0  0  0  0  0  0  0  0
    0.3719   -0.5372   -0.1020 C   0  0  1  0  0  0  0  0  0  0  0  0
    1.1177   -1.2235   -0.5187 H   0  0  0  0  0  0  0  0  0  0  0  0
    0.2839    0.7126   -1.0065 C   0  0  0  0  0  0  0  0  0  0  0  0
   -0.1887    0.4172   -1.9487 H   0  0  0  0  0  0  0  0  0  0  0  0
   -0.3649    1.4589   -0.5403 H   0  0  0  0  0  0  0  0  0  0  0  0
    1.6349    1.3506   -1.3722 C   0  0  0  0  0  0  0  0  0  0  0  0
    2.3293    0.5689   -1.6978 H   0  0  0  0  0  0  0  0  0  0  0  0
    1.4851    2.0285   -2.2182 H   0  0  0  0  0  0  0  0  0  0  0  0
    2.4181    2.3093   -0.0094 S   0  0  0  0  0  0  0  0  0  0  0  0
    1.1800    3.5893    0.4387 C   0  0  0  0  0  0  0  0  0  0  0  0
    0.3033    3.1297    0.9030 H   0  0  0  0  0  0  0  0  0  0  0  0
    1.6171    4.2939    1.1524 H   0  0  0  0  0  0  0  0  0  0  0  0
    0.8652    4.1417   -0.4513 H   0  0  0  0  0  0  0  0  0  0  0  0
    0.8223   -0.2134    1.3429 C   0  0  0  0  0  0  0  0  0  0  0  0
    1.9688   -0.4466    1.7009 O   0  0  0  0  0  0  0  0  0  0  0  0
   -0.0638    0.3685    2.2328 N   0  0  0  0  0  0  0  0  0  0  0  0
   -1.0383    0.3772    1.9542 H   0  0  0  0  0  0  0  0  0  0  0  0
    0.2716    0.6021    3.6314 C   0  0  0  0  0  0  0  0  0  0  0  0
    1.1697    1.2240    3.7113 H   0  0  0  0  0  0  0  0  0  0  0  0
   -0.5493    1.1183    4.1378 H   0  0  0  0  0  0  0  0  0  0  0  0
    0.4554   -0.3486    4.1431 H   0  0  0  0  0  0  0  0  0  0  0  0
  1  2  1  0  0  0  0
  2  3  1  0  0  0  0
  2  4  1  0  0  0  0
  2  5  1  0  0  0  0
  5  6  2  0  0  0  0
  5  7  1  0  0  0  0
  7  8  1  0  0  0  0
  7  9  1  0  0  0  0
  9 10  1  0  0  0  0
  9 11  1  0  0  0  0
  9 22  1  0  0  0  0
 11 12  1  0  0  0  0
 11 13  1  0  0  0  0
 11 14  1  0  0  0  0
 14 15  1  0  0  0  0
 14 16  1  0  0  0  0
 14 17  1  0  0  0  0
 17 18  1  0  0  0  0
 18 19  1  0  0  0  0
 18 20  1  0  0  0  0
 18 21  1  0  0  0  0
 22 23  2  0  0  0  0
 22 24  1  0  0  0  0
 24 25  1  0  0  0  0
 24 26  1  0  0  0  0
 26 27  1  0  0  0  0
 26 28  1  0  0  0  0
 26 29  1  0  0  0  0
M  END
$$$$

  -OEChem-04042216023D

 29 28  0     1  0  0  0  0  0999 V2000
   -2.7176   -3.9629    0.6783 H   0  0  0  0  0  0  0  0  0  0  0  0
   -2.6386   -2.9910    0.1825 C   0  0  0  0  0  0  0  0  0  0  0  0
   -3.4053   -2.3269    0.5883 H   0  0  0  0  0  0  0  0  0  0  0  0
   -2.8111   -3.1284   -0.8876 H   0  0  0  0  0  0  0  0  0  0  0  0
   -1.2615   -2.3982    0.4149 C   0  0  0  0  0  0  0  0  0  0  0  0
   -0.4560   -2.9973    1.1016 O   0  0  0  0  0  0  0  0  0  0  0  0
   -0.9360   -1.1849   -0.1607 N   0  0  0  0  0  0  0  0  0  0  0  0
   -1.6268   -0.7814   -0.7852 H   0  0  0  0  0  0  0  0  0  0  0  0
    0.3936   -0.5442   -0.0759 C   0  0  1  0  0  0  0  0  0  0  0  0
    1.1447   -1.2208   -0.4988 H   0  0  0  0  0  0  0  0  0  0  0  0
    0.2855    0.7109   -0.9775 C   0  0  0  0  0  0  0  0  0  0  0  0
   -0.2151    0.4248   -1.9083 H   0  0  0  0  0  0  0  0  0  0  0  0
   -0.3520    1.4471   -0.4789 H   0  0  0  0  0  0  0  0  0  0  0  0
    1.6033    1.3978   -1.3829 C   0  0  0  0  0  0  0  0  0  0  0  0
    2.2047    0.6831   -1.9541 H   0  0  0  0  0  0  0  0  0  0  0  0
    1.3729    2.2353   -2.0487 H   0  0  0  0  0  0  0  0  0  0  0  0
    2.6399    2.0281   -0.0026 S   0  0  0  0  0  0  0  0  0  0  0  0
    1.5800    3.3043    0.7843 C   0  0  0  0  0  0  0  0  0  0  0  0
    0.6826    2.8486    1.2106 H   0  0  0  0  0  0  0  0  0  0  0  0
    2.1312    3.8004    1.5887 H   0  0  0  0  0  0  0  0  0  0  0  0
    1.2808    4.0558    0.0481 H   0  0  0  0  0  0  0  0  0  0  0  0
    0.8208   -0.2486    1.3837 C   0  0  0  0  0  0  0  0  0  0  0  0
    1.9446   -0.5302    1.7767 O   0  0  0  0  0  0  0  0  0  0  0  0
   -0.0826    0.3162    2.2680 N   0  0  0  0  0  0  0  0  0  0  0  0
   -1.0484    0.3435    1.9613 H   0  0  0  0  0  0  0  0  0  0  0  0
    0.2067    0.4695    3.6881 C   0  0  0  0  0  0  0  0  0  0  0  0
    1.1031    1.0823    3.8321 H   0  0  0  0  0  0  0  0  0  0  0  0
   -0.6300    0.9595    4.1949 H   0  0  0  0  0  0  0  0  0  0  0  0
    0.3712   -0.5088    4.1522 H   0  0  0  0  0  0  0  0  0  0  0  0
  1  2  1  0  0  0  0
  2  3  1  0  0  0  0
  2  4  1  0  0  0  0
  2  5  1  0  0  0  0
  5  6  2  0  0  0  0
  5  7  1  0  0  0  0
  7  8  1  0  0  0  0
  7  9  1  0  0  0  0
  9 10  1  0  0  0  0
  9 11  1  0  0  0  0
  9 22  1  0  0  0  0
 11 12  1  0  0  0  0
 11 13  1  0  0  0  0
 11 14  1  0  0  0  0
 14 15  1  0  0  0  0
 14 16  1  0  0  0  0
 14 17  1  0  0  0  0
 17 18  1  0  0  0  0
 18 19  1  0  0  0  0
 18 20  1  0  0  0  0
 18 21  1  0  0  0  0
 22 23  2  0  0  0  0
 22 24  1  0  0  0  0
 24 25  1  0  0  0  0
 24 26  1  0  0  0  0
 26 27  1  0  0  0  0
 26 28  1  0  0  0  0
 26 29  1  0  0  0  0
M  END
$$$$

  -OEChem-04042216023D

 29 28  0     1  0  0  0  0  0999 V2000
   -2.7393   -3.9817    0.6641 H   0  0  0  0  0  0  0  0  0  0  0  0
   -2.6505   -3.0075    0.1745 C   0  0  0  0  0  0  0  0  0  0  0  0
   -3.4150   -2.3402    0.5793 H   0  0  0  0  0  0  0  0  0  0  0  0
   -2.8179   -3.1379   -0.8974 H   0  0  0  0  0  0  0  0  0  0  0  0
   -1.2705   -2.4266    0.4192 C   0  0  0  0  0  0  0  0  0  0  0  0
   -0.4744   -3.0379    1.1057 O   0  0  0  0  0  0  0  0  0  0  0  0
   -0.9333   -1.2111   -0.1452 N   0  0  0  0  0  0  0  0  0  0  0  0
   -1.6151   -0.8041   -0.7771 H   0  0  0  0  0  0  0  0  0  0  0  0
    0.3999   -0.5774   -0.0505 C   0  0  1  0  0  0  0  0  0  0  0  0
    1.1562   -1.2441   -0.4797 H   0  0  0  0  0  0  0  0  0  0  0  0
    0.2780    0.6939   -0.9317 C   0  0  0  0  0  0  0  0  0  0  0  0
   -0.2508    0.4324   -1.8543 H   0  0  0  0  0  0  0  0  0  0  0  0
   -0.3459    1.4142   -0.3929 H   0  0  0  0  0  0  0  0  0  0  0  0
    1.5690    1.4217   -1.3595 C   0  0  0  0  0  0  0  0  0  0  0  0
    2.0398    0.8246   -2.1471 H   0  0  0  0  0  0  0  0  0  0  0  0
    1.3027    2.3870   -1.8014 H   0  0  0  0  0  0  0  0  0  0  0  0
    2.8437    1.6965   -0.0690 S   0  0  0  0  0  0  0  0  0  0  0  0
    2.0763    2.9740    1.0039 C   0  0  0  0  0  0  0  0  0  0  0  0
    1.1279    2.6152    1.4114 H   0  0  0  0  0  0  0  0  0  0  0  0
    2.7450    3.2089    1.8373 H   0  0  0  0  0  0  0  0  0  0  0  0
    1.8917    3.8886    0.4331 H   0  0  0  0  0  0  0  0  0  0  0  0
    0.8005   -0.3043    1.4230 C   0  0  0  0  0  0  0  0  0  0  0  0
    1.9034   -0.6162    1.8504 O   0  0  0  0  0  0  0  0  0  0  0  0
   -0.1217    0.2522    2.2936 N   0  0  0  0  0  0  0  0  0  0  0  0
   -1.0774    0.2944    1.9583 H   0  0  0  0  0  0  0  0  0  0  0  0
    0.1200    0.3511    3.7276 C   0  0  0  0  0  0  0  0  0  0  0  0
    1.0209    0.9422    3.9241 H   0  0  0  0  0  0  0  0  0  0  0  0
   -0.7257    0.8380    4.2222 H   0  0  0  0  0  0  0  0  0  0  0  0
    0.2512   -0.6457    4.1620 H   0  0  0  0  0  0  0  0  0  0  0  0
  1  2  1  0  0  0  0
  2  3  1  0  0  0  0
  2  4  1  0  0  0  0
  2  5  1  0  0  0  0
  5  6  2  0  0  0  0
  5  7  1  0  0  0  0
  7  8  1  0  0  0  0
  7  9  1  0  0  0  0
  9 10  1  0  0  0  0
  9 11  1  0  0  0  0
  9 22  1  0  0  0  0
 11 12  1  0  0  0  0
 11 13  1  0  0  0  0
 11 14  1  0  0  0  0
 14 15  1  0  0  0  0
 14 16  1  0  0  0  0
 14 17  1  0  0  0  0
 17 18  1  0  0  0  0
 18 19  1  0  0  0  0
 18 20  1  0  0  0  0
 18 21  1  0  0  0  0
 22 23  2  0  0  0  0
 22 24  1  0  0  0  0
 24 25  1  0  0  0  0
 24 26  1  0  0  0  0
 26 27  1  0  0  0  0
 26 28  1  0  0  0  0
 26 29  1  0  0  0  0
M  END
$$$$

  -OEChem-04042216023D

 29 28  0     1  0  0  0  0  0999 V2000
   -2.7987   -4.0031    0.6269 H   0  0  0  0  0  0  0  0  0  0  0  0
   -2.6913   -3.0283    0.1423 C   0  0  0  0  0  0  0  0  0  0  0  0
   -3.4574   -2.3553    0.5343 H   0  0  0  0  0  0  0  0  0  0  0  0
   -2.8389   -3.1537   -0.9330 H   0  0  0  0  0  0  0  0  0  0  0  0
   -1.3111   -2.4599    0.4148 C   0  0  0  0  0  0  0  0  0  0  0  0
   -0.5338   -3.0801    1.1148 O   0  0  0  0  0  0  0  0  0  0  0  0
   -0.9533   -1.2463   -0.1416 N   0  0  0  0  0  0  0  0  0  0  0  0
   -1.6179   -0.8381   -0.7908 H   0  0  0  0  0  0  0  0  0  0  0  0
    0.3857   -0.6262   -0.0303 C   0  0  1  0  0  0  0  0  0  0  0  0
    1.1449   -1.2888   -0.4610 H   0  0  0  0  0  0  0  0  0  0  0  0
    0.2706    0.6647   -0.8845 C   0  0  0  0  0  0  0  0  0  0  0  0
   -0.2727    0.4320   -1.8062 H   0  0  0  0  0  0  0  0  0  0  0  0
   -0.3434    1.3739   -0.3199 H   0  0  0  0  0  0  0  0  0  0  0  0
    1.5552    1.4097   -1.3094 C   0  0  0  0  0  0  0  0  0  0  0  0
    1.8750    0.9824   -2.2654 H   0  0  0  0  0  0  0  0  0  0  0  0
    1.3157    2.4619   -1.4933 H   0  0  0  0  0  0  0  0  0  0  0  0
    3.0095    1.3129   -0.1968 S   0  0  0  0  0  0  0  0  0  0  0  0
    2.6152    2.5601    1.0927 C   0  0  0  0  0  0  0  0  0  0  0  0
    1.6597    2.3308    1.5713 H   0  0  0  0  0  0  0  0  0  0  0  0
    3.3959    2.5604    1.8593 H   0  0  0  0  0  0  0  0  0  0  0  0
    2.5571    3.5585    0.6499 H   0  0  0  0  0  0  0  0  0  0  0  0
    0.7608   -0.3662    1.4539 C   0  0  0  0  0  0  0  0  0  0  0  0
    1.8496   -0.6893    1.9085 O   0  0  0  0  0  0  0  0  0  0  0  0
   -0.1751    0.1942    2.3076 N   0  0  0  0  0  0  0  0  0  0  0  0
   -1.1222    0.2477    1.9500 H   0  0  0  0  0  0  0  0  0  0  0  0
    0.0321    0.2796    3.7479 C   0  0  0  0  0  0  0  0  0  0  0  0
    0.9386    0.8520    3.9716 H   0  0  0  0  0  0  0  0  0  0  0  0
   -0.8165    0.7799    4.2238 H   0  0  0  0  0  0  0  0  0  0  0  0
    0.1335   -0.7221    4.1791 H   0  0  0  0  0  0  0  0  0  0  0  0
  1  2  1  0  0  0  0
  2  3  1  0  0  0  0
  2  4  1  0  0  0  0
  2  5  1  0  0  0  0
  5  6  2  0  0  0  0
  5  7  1  0  0  0  0
  7  8  1  0  0  0  0
  7  9  1  0  0  0  0
  9 10  1  0  0  0  0
  9 11  1  0  0  0  0
  9 22  1  0  0  0  0
 11 12  1  0  0  0  0
 11 13  1  0  0  0  0
 11 14  1  0  0  0  0
 14 15  1  0  0  0  0
 14 16  1  0  0  0  0
 14 17  1  0  0  0  0
 17 18  1  0  0  0  0
 18 19  1  0  0  0  0
 18 20  1  0  0  0  0
 18 21  1  0  0  0  0
 22 23  2  0  0  0  0
 22 24  1  0  0  0  0
 24 25  1  0  0  0  0
 24 26  1  0  0  0  0
 26 27  1  0  0  0  0
 26 28  1  0  0  0  0
 26 29  1  0  0  0  0
M  END
$$$$

  -OEChem-04042216023D

 29 28  0     1  0  0  0  0  0999 V2000
   -2.8866   -4.0134    0.5816 H   0  0  0  0  0  0  0  0  0  0  0  0
   -2.7570   -3.0430    0.0936 C   0  0  0  0  0  0  0  0  0  0  0  0
   -3.5301   -2.3616    0.4559 H   0  0  0  0  0  0  0  0  0  0  0  0
   -2.8709   -3.1754   -0.9850 H   0  0  0  0  0  0  0  0  0  0  0  0
   -1.3823   -2.4824    0.4062 C   0  0  0  0  0  0  0  0  0  0  0  0
   -0.6328   -3.1027    1.1358 O   0  0  0  0  0  0  0  0  0  0  0  0
   -0.9997   -1.2740   -0.1451 N   0  0  0  0  0  0  0  0  0  0  0  0
   -1.6359   -0.8739   -0.8269 H   0  0  0  0  0  0  0  0  0  0  0  0
    0.3472   -0.6753   -0.0146 C   0  0  1  0  0  0  0  0  0  0  0  0
    1.1011   -1.3445   -0.4443 H   0  0  0  0  0  0  0  0  0  0  0  0
    0.2607    0.6338   -0.8430 C   0  0  0  0  0  0  0  0  0  0  0  0
   -0.2756    0.4225   -1.7741 H   0  0  0  0  0  0  0  0  0  0  0  0
   -0.3526    1.3419   -0.2762 H   0  0  0  0  0  0  0  0  0  0  0  0
    1.5605    1.3676   -1.2452 C   0  0  0  0  0  0  0  0  0  0  0  0
    1.7317    1.1687   -2.3082 H   0  0  0  0  0  0  0  0  0  0  0  0
    1.4107    2.4473   -1.1442 H   0  0  0  0  0  0  0  0  0  0  0  0
    3.1062    0.8953   -0.3778 S   0  0  0  0  0  0  0  0  0  0  0  0
    3.1477    2.0754    1.0296 C   0  0  0  0  0  0  0  0  0  0  0  0
    2.2306    2.0019    1.6202 H   0  0  0  0  0  0  0  0  0  0  0  0
    3.9977    1.8480    1.6798 H   0  0  0  0  0  0  0  0  0  0  0  0
    3.2496    3.1007    0.6628 H   0  0  0  0  0  0  0  0  0  0  0  0
    0.7083   -0.4213    1.4749 C   0  0  0  0  0  0  0  0  0  0  0  0
    1.7895   -0.7489    1.9441 O   0  0  0  0  0  0  0  0  0  0  0  0
   -0.2294    0.1539    2.3167 N   0  0  0  0  0  0  0  0  0  0  0  0
   -1.1724    0.2154    1.9493 H   0  0  0  0  0  0  0  0  0  0  0  0
   -0.0367    0.2431    3.7590 C   0  0  0  0  0  0  0  0  0  0  0  0
    0.8817    0.7932    3.9904 H   0  0  0  0  0  0  0  0  0  0  0  0
   -0.8772    0.7683    4.2222 H   0  0  0  0  0  0  0  0  0  0  0  0
    0.0336   -0.7584    4.1970 H   0  0  0  0  0  0  0  0  0  0  0  0
  1  2  1  0  0  0  0
  2  3  1  0  0  0  0
  2  4  1  0  0  0  0
  2  5  1  0  0  0  0
  5  6  2  0  0  0  0
  5  7  1  0  0  0  0
  7  8  1  0  0  0  0
  7  9  1  0  0  0  0
  9 10  1  0  0  0  0
  9 11  1  0  0  0  0
  9 22  1  0  0  0  0
 11 12  1  0  0  0  0
 11 13  1  0  0  0  0
 11 14  1  0  0  0  0
 14 15  1  0  0  0  0
 14 16  1  0  0  0  0
 14 17  1  0  0  0  0
 17 18  1  0  0  0  0
 18 19  1  0  0  0  0
 18 20  1  0  0  0  0
 18 21  1  0  0  0  0
 22 23  2  0  0  0  0
 22 24  1  0  0  0  0
 24 25  1  0  0  0  0
 24 26  1  0  0  0  0
 26 27  1  0  0  0  0
 26 28  1  0  0  0  0
 26 29  1  0  0  0  0
M  END
$$$$

  -OEChem-04042216023D

 29 28  0     1  0  0  0  0  0999 V2000
   -2.4761   -4.4155    0.5619 H   0  0  0  0  0  0  0  0  0  0  0  0
   -2.4907   -3.4163    0.1170 C   0  0  0  0  0  0  0  0  0  0  0  0
   -3.3325   -2.8585    0.5338 H   0  0  0  0  0  0  0  0  0  0  0  0
   -2.6252   -3.5163   -0.9627 H   0  0  0  0  0  0  0  0  0  0  0  0
   -1.1896   -2.6947    0.4148 C   0  0  0  0  0  0  0  0  0  0  0  0
   -0.3495   -3.2338    1.1097 O   0  0  0  0  0  0  0  0  0  0  0  0
   -0.9751   -1.4339   -0.1094 N   0  0  0  0  0  0  0  0  0  0  0  0
   -1.6729   -1.1007   -0.7667 H   0  0  0  0  0  0  0  0  0  0  0  0
    0.3002   -0.6899   -0.0146 C   0  0  1  0  0  0  0  0  0  0  0  0
    1.0968   -1.2616   -0.5035 H   0  0  0  0  0  0  0  0  0  0  0  0
    0.0433    0.6387   -0.7704 C   0  0  0  0  0  0  0  0  0  0  0  0
   -0.4895    0.3992   -1.6965 H   0  0  0  0  0  0  0  0  0  0  0  0
   -0.6308    1.2556   -0.1671 H   0  0  0  0  0  0  0  0  0  0  0  0
    1.2504    1.5128   -1.1821 C   0  0  0  0  0  0  0  0  0  0  0  0
    1.2284    1.6371   -2.2696 H   0  0  0  0  0  0  0  0  0  0  0  0
    1.1278    2.5093   -0.7460 H   0  0  0  0  0  0  0  0  0  0  0  0
    2.9168    0.8835   -0.7337 S   0  0  0  0  0  0  0  0  0  0  0  0
    3.3979    1.9895    0.6517 C   0  0  0  0  0  0  0  0  0  0  0  0
    3.5038    3.0187    0.2974 H   0  0  0  0  0  0  0  0  0  0  0  0
    2.6420    1.9636    1.4420 H   0  0  0  0  0  0  0  0  0  0  0  0
    4.3522    1.6623    1.0750 H   0  0  0  0  0  0  0  0  0  0  0  0
    0.7101   -0.4366    1.4629 C   0  0  0  0  0  0  0  0  0  0  0  0
    1.8568   -0.5979    1.8572 O   0  0  0  0  0  0  0  0  0  0  0  0
   -0.2417    0.0042    2.3674 N   0  0  0  0  0  0  0  0  0  0  0  0
   -1.2050   -0.0607    2.0577 H   0  0  0  0  0  0  0  0  0  0  0  0
    0.0243    0.1085    3.7970 C   0  0  0  0  0  0  0  0  0  0  0  0
    0.8481    0.8051    3.9841 H   0  0  0  0  0  0  0  0  0  0  0  0
   -0.8625    0.4762    4.3217 H   0  0  0  0  0  0  0  0  0  0  0  0
    0.2914   -0.8709    4.2083 H   0  0  0  0  0  0  0  0  0  0  0  0
  1  2  1  0  0  0  0
  2  3  1  0  0  0  0
  2  4  1  0  0  0  0
  2  5  1  0  0  0  0
  5  6  2  0  0  0  0
  5  7  1  0  0  0  0
  7  8  1  0  0  0  0
  7  9  1  0  0  0  0
  9 10  1  0  0  0  0
  9 11  1  0  0  0  0
  9 22  1  0  0  0  0
 11 12  1  0  0  0  0
 11 13  1  0  0  0  0
 11 14  1  0  0  0  0
 14 15  1  0  0  0  0
 14 16  1  0  0  0  0
 14 17  1  0  0  0  0
 17 18  1  0  0  0  0
 18 19  1  0  0  0  0
 18 20  1  0  0  0  0
 18 21  1  0  0  0  0
 22 23  2  0  0  0  0
 22 24  1  0  0  0  0
 24 25  1  0  0  0  0
 24 26  1  0  0  0  0
 26 27  1  0  0  0  0
 26 28  1  0  0  0  0
 26 29  1  0  0  0  0
M  END
$$$$

  -OEChem-04042216023D

 29 28  0     1  0  0  0  0  0999 V2000
   -3.0982   -4.0987    1.0822 H   0  0  0  0  0  0  0  0  0  0  0  0
   -2.9398   -3.2058    0.4703 C   0  0  0  0  0  0  0  0  0  0  0  0
   -3.7323   -2.4861    0.6884 H   0  0  0  0  0  0  0  0  0  0  0  0
   -2.9916   -3.4892   -0.5837 H   0  0  0  0  0  0  0  0  0  0  0  0
   -1.5843   -2.5978    0.7783 C   0  0  0  0  0  0  0  0  0  0  0  0
   -0.8481   -3.1448    1.5775 O   0  0  0  0  0  0  0  0  0  0  0  0
   -1.2058   -1.4233    0.1565 N   0  0  0  0  0  0  0  0  0  0  0  0
   -1.8249   -1.0854   -0.5733 H   0  0  0  0  0  0  0  0  0  0  0  0
    0.1429   -0.8254    0.2521 C   0  0  1  0  0  0  0  0  0  0  0  0
    0.8689   -1.5441   -0.1420 H   0  0  0  0  0  0  0  0  0  0  0  0
    0.1117    0.4553   -0.6160 C   0  0  0  0  0  0  0  0  0  0  0  0
   -0.3777    0.1946   -1.5598 H   0  0  0  0  0  0  0  0  0  0  0  0
   -0.5133    1.2110   -0.1287 H   0  0  0  0  0  0  0  0  0  0  0  0
    1.4623    1.1006   -0.9990 C   0  0  0  0  0  0  0  0  0  0  0  0
    1.4238    1.4339   -2.0410 H   0  0  0  0  0  0  0  0  0  0  0  0
    1.5933    1.9917   -0.3765 H   0  0  0  0  0  0  0  0  0  0  0  0
    2.9521    0.0495   -0.7570 S   0  0  0  0  0  0  0  0  0  0  0  0
    4.3106    1.2694   -0.9413 C   0  0  0  0  0  0  0  0  0  0  0  0
    4.2716    1.7369   -1.9293 H   0  0  0  0  0  0  0  0  0  0  0  0
    5.2779    0.7713   -0.8264 H   0  0  0  0  0  0  0  0  0  0  0  0
    4.2263    2.0475   -0.1769 H   0  0  0  0  0  0  0  0  0  0  0  0
    0.5454   -0.4764    1.7101 C   0  0  0  0  0  0  0  0  0  0  0  0
    1.6875   -0.6332    2.1188 O   0  0  0  0  0  0  0  0  0  0  0  0
   -0.3696    0.1584    2.5329 N   0  0  0  0  0  0  0  0  0  0  0  0
   -1.3350    0.1245    2.2245 H   0  0  0  0  0  0  0  0  0  0  0  0
   -0.0949    0.4499    3.9343 C   0  0  0  0  0  0  0  0  0  0  0  0
    0.7679    1.1183    4.0250 H   0  0  0  0  0  0  0  0  0  0  0  0
   -0.9584    0.9382    4.3954 H   0  0  0  0  0  0  0  0  0  0  0  0
    0.1167   -0.4742    4.4827 H   0  0  0  0  0  0  0  0  0  0  0  0
  1  2  1  0  0  0  0
  2  3  1  0  0  0  0
  2  4  1  0  0  0  0
  2  5  1  0  0  0  0
  5  6  2  0  0  0  0
  5  7  1  0  0  0  0
  7  8  1  0  0  0  0
  7  9  1  0  0  0  0
  9 10  1  0  0  0  0
  9 11  1  0  0  0  0
  9 22  1  0  0  0  0
 11 12  1  0  0  0  0
 11 13  1  0  0  0  0
 11 14  1  0  0  0  0
 14 15  1  0  0  0  0
 14 16  1  0  0  0  0
 14 17  1  0  0  0  0
 17 18  1  0  0  0  0
 18 19  1  0  0  0  0
 18 20  1  0  0  0  0
 18 21  1  0  0  0  0
 22 23  2  0  0  0  0
 22 24  1  0  0  0  0
 24 25  1  0  0  0  0
 24 26  1  0  0  0  0
 26 27  1  0  0  0  0
 26 28  1  0  0  0  0
 26 29  1  0  0  0  0
M  END
$$$$

  -OEChem-04042216023D

 29 28  0     1  0  0  0  0  0999 V2000
   -2.5565   -4.0740    0.9538 H   0  0  0  0  0  0  0  0  0  0  0  0
   -2.3631   -3.2133    0.3068 C   0  0  0  0  0  0  0  0  0  0  0  0
   -3.2513   -2.5770    0.2944 H   0  0  0  0  0  0  0  0  0  0  0  0
   -2.1654   -3.5735   -0.7056 H   0  0  0  0  0  0  0  0  0  0  0  0
   -1.1694   -2.4318    0.8225 C   0  0  0  0  0  0  0  0  0  0  0  0
   -0.5851   -2.8111    1.8198 O   0  0  0  0  0  0  0  0  0  0  0  0
   -0.7598   -1.2918    0.1583 N   0  0  0  0  0  0  0  0  0  0  0  0
   -1.2346   -1.0831   -0.7140 H   0  0  0  0  0  0  0  0  0  0  0  0
    0.4620   -0.5295    0.4877 C   0  0  1  0  0  0  0  0  0  0  0  0
    1.3151   -1.2067    0.3865 H   0  0  0  0  0  0  0  0  0  0  0  0
    0.5581    0.6300   -0.5300 C   0  0  0  0  0  0  0  0  0  0  0  0
    0.3573    0.2130   -1.5219 H   0  0  0  0  0  0  0  0  0  0  0  0
   -0.2244    1.3678   -0.3240 H   0  0  0  0  0  0  0  0  0  0  0  0
    1.9155    1.3565   -0.6299 C   0  0  0  0  0  0  0  0  0  0  0  0
    2.0193    1.8062   -1.6224 H   0  0  0  0  0  0  0  0  0  0  0  0
    1.9115    2.1743    0.0986 H   0  0  0  0  0  0  0  0  0  0  0  0
    3.3966    0.3265   -0.2637 S   0  0  0  0  0  0  0  0  0  0  0  0
    3.4499   -0.8191   -1.6982 C   0  0  0  0  0  0  0  0  0  0  0  0
    3.5513   -0.2550   -2.6298 H   0  0  0  0  0  0  0  0  0  0  0  0
    4.3054   -1.4948   -1.6034 H   0  0  0  0  0  0  0  0  0  0  0  0
    2.5362   -1.4179   -1.7453 H   0  0  0  0  0  0  0  0  0  0  0  0
    0.4807    0.0245    1.9343 C   0  0  0  0  0  0  0  0  0  0  0  0
    1.5226    0.0913    2.5710 O   0  0  0  0  0  0  0  0  0  0  0  0
   -0.6510    0.6358    2.4459 N   0  0  0  0  0  0  0  0  0  0  0  0
   -1.5174    0.4419    1.9560 H   0  0  0  0  0  0  0  0  0  0  0  0
   -0.7194    1.1415    3.8114 C   0  0  0  0  0  0  0  0  0  0  0  0
    0.0531    1.8996    3.9790 H   0  0  0  0  0  0  0  0  0  0  0  0
   -1.6956    1.5991    3.9974 H   0  0  0  0  0  0  0  0  0  0  0  0
   -0.5739    0.3264    4.5283 H   0  0  0  0  0  0  0  0  0  0  0  0
  1  2  1  0  0  0  0
  2  3  1  0  0  0  0
  2  4  1  0  0  0  0
  2  5  1  0  0  0  0
  5  6  2  0  0  0  0
  5  7  1  0  0  0  0
  7  8  1  0  0  0  0
  7  9  1  0  0  0  0
  9 10  1  0  0  0  0
  9 11  1  0  0  0  0
  9 22  1  0  0  0  0
 11 12  1  0  0  0  0
 11 13  1  0  0  0  0
 11 14  1  0  0  0  0
 14 15  1  0  0  0  0
 14 16  1  0  0  0  0
 14 17  1  0  0  0  0
 17 18  1  0  0  0  0
 18 19  1  0  0  0  0
 18 20  1  0  0  0  0
 18 21  1  0  0  0  0
 22 23  2  0  0  0  0
 22 24  1  0  0  0  0
 24 25  1  0  0  0  0
 24 26  1  0  0  0  0
 26 27  1  0  0  0  0
 26 28  1  0  0  0  0
 26 29  1  0  0  0  0
M  END
$$$$

  -OEChem-04042216023D

 29 28  0     1  0  0  0  0  0999 V2000
   -3.4112   -3.7921    0.7252 H   0  0  0  0  0  0  0  0  0  0  0  0
   -3.1679   -2.9110    0.1244 C   0  0  0  0  0  0  0  0  0  0  0  0
   -3.9223   -2.1424    0.3075 H   0  0  0  0  0  0  0  0  0  0  0  0
   -3.1885   -3.1899   -0.9318 H   0  0  0  0  0  0  0  0  0  0  0  0
   -1.7919   -2.3908    0.4953 C   0  0  0  0  0  0  0  0  0  0  0  0
   -1.1193   -2.9900    1.3139 O   0  0  0  0  0  0  0  0  0  0  0  0
   -1.3205   -1.2306   -0.0877 N   0  0  0  0  0  0  0  0  0  0  0  0
   -1.8880   -0.8515   -0.8392 H   0  0  0  0  0  0  0  0  0  0  0  0
    0.0764   -0.7638    0.0181 C   0  0  1  0  0  0  0  0  0  0  0  0
    0.7117   -1.5530   -0.3946 H   0  0  0  0  0  0  0  0  0  0  0  0
    0.2028    0.5282   -0.8197 C   0  0  0  0  0  0  0  0  0  0  0  0
   -0.2925    0.3611   -1.7813 H   0  0  0  0  0  0  0  0  0  0  0  0
   -0.3206    1.3485   -0.3178 H   0  0  0  0  0  0  0  0  0  0  0  0
    1.6467    0.9630   -1.1266 C   0  0  0  0  0  0  0  0  0  0  0  0
    1.6437    1.7479   -1.8894 H   0  0  0  0  0  0  0  0  0  0  0  0
    2.0777    1.3916   -0.2155 H   0  0  0  0  0  0  0  0  0  0  0  0
    2.7230   -0.4244   -1.6798 S   0  0  0  0  0  0  0  0  0  0  0  0
    4.2921   -0.0464   -0.8047 C   0  0  0  0  0  0  0  0  0  0  0  0
    4.1308   -0.0539    0.2780 H   0  0  0  0  0  0  0  0  0  0  0  0
    5.0486   -0.7978   -1.0488 H   0  0  0  0  0  0  0  0  0  0  0  0
    4.6662    0.9381   -1.0995 H   0  0  0  0  0  0  0  0  0  0  0  0
    0.5634   -0.4989    1.4634 C   0  0  0  0  0  0  0  0  0  0  0  0
    1.7394   -0.6645    1.7627 O   0  0  0  0  0  0  0  0  0  0  0  0
   -0.2530    0.1923    2.3413 N   0  0  0  0  0  0  0  0  0  0  0  0
   -1.2405    0.1966    2.1081 H   0  0  0  0  0  0  0  0  0  0  0  0
    0.1388    0.4771    3.7159 C   0  0  0  0  0  0  0  0  0  0  0  0
    1.0560    1.0752    3.7380 H   0  0  0  0  0  0  0  0  0  0  0  0
   -0.6496    1.0389    4.2255 H   0  0  0  0  0  0  0  0  0  0  0  0
    0.3125   -0.4551    4.2637 H   0  0  0  0  0  0  0  0  0  0  0  0
  1  2  1  0  0  0  0
  2  3  1  0  0  0  0
  2  4  1  0  0  0  0
  2  5  1  0  0  0  0
  5  6  2  0  0  0  0
  5  7  1  0  0  0  0
  7  8  1  0  0  0  0
  7  9  1  0  0  0  0
  9 10  1  0  0  0  0
  9 11  1  0  0  0  0
  9 22  1  0  0  0  0
 11 12  1  0  0  0  0
 11 13  1  0  0  0  0
 11 14  1  0  0  0  0
 14 15  1  0  0  0  0
 14 16  1  0  0  0  0
 14 17  1  0  0  0  0
 17 18  1  0  0  0  0
 18 19  1  0  0  0  0
 18 20  1  0  0  0  0
 18 21  1  0  0  0  0
 22 23  2  0  0  0  0
 22 24  1  0  0  0  0
 24 25  1  0  0  0  0
 24 26  1  0  0  0  0
 26 27  1  0  0  0  0
 26 28  1  0  0  0  0
 26 29  1  0  0  0  0
M  END
$$$$

  -OEChem-04042216023D

 29 28  0     1  0  0  0  0  0999 V2000
   -1.8804   -4.0466   -0.0627 H   0  0  0  0  0  0  0  0  0  0  0  0
   -2.2435   -3.0176   -0.1392 C   0  0  0  0  0  0  0  0  0  0  0  0
   -3.0426   -2.8722    0.5916 H   0  0  0  0  0  0  0  0  0  0  0  0
   -2.6434   -2.8612   -1.1440 H   0  0  0  0  0  0  0  0  0  0  0  0
   -1.1106   -2.0441    0.1258 C   0  0  0  0  0  0  0  0  0  0  0  0
   -0.0022   -2.4685    0.3935 O   0  0  0  0  0  0  0  0  0  0  0  0
   -1.3565   -0.6836    0.0831 N   0  0  0  0  0  0  0  0  0  0  0  0
   -2.2962   -0.4176   -0.1969 H   0  0  0  0  0  0  0  0  0  0  0  0
   -0.3365    0.3932    0.1406 C   0  0  1  0  0  0  0  0  0  0  0  0
   -0.8525    1.3545    0.2212 H   0  0  0  0  0  0  0  0  0  0  0  0
    0.3272    0.3853   -1.2813 C   0  0  0  0  0  0  0  0  0  0  0  0
    0.4957   -0.6599   -1.5553 H   0  0  0  0  0  0  0  0  0  0  0  0
   -0.4243    0.7733   -1.9757 H   0  0  0  0  0  0  0  0  0  0  0  0
    1.6593    1.0869   -1.6395 C   0  0  0  0  0  0  0  0  0  0  0  0
    1.8280    0.9409   -2.7108 H   0  0  0  0  0  0  0  0  0  0  0  0
    1.5241    2.1606   -1.4772 H   0  0  0  0  0  0  0  0  0  0  0  0
    3.2155    0.6047   -0.7806 S   0  0  0  0  0  0  0  0  0  0  0  0
    3.1667   -1.2291   -0.7322 C   0  0  0  0  0  0  0  0  0  0  0  0
    2.9879   -1.6346   -1.7317 H   0  0  0  0  0  0  0  0  0  0  0  0
    2.3720   -1.5674   -0.0635 H   0  0  0  0  0  0  0  0  0  0  0  0
    4.1185   -1.6174   -0.3589 H   0  0  0  0  0  0  0  0  0  0  0  0
    0.4835    0.3293    1.4604 C   0  0  0  0  0  0  0  0  0  0  0  0
    1.5486    0.9032    1.6029 O   0  0  0  0  0  0  0  0  0  0  0  0
   -0.2296    0.1284    2.6316 N   0  0  0  0  0  0  0  0  0  0  0  0
   -1.1018   -0.3781    2.5274 H   0  0  0  0  0  0  0  0  0  0  0  0
    0.3735    0.2016    3.9585 C   0  0  0  0  0  0  0  0  0  0  0  0
    0.7615    1.2077    4.1499 H   0  0  0  0  0  0  0  0  0  0  0  0
   -0.3709   -0.0306    4.7259 H   0  0  0  0  0  0  0  0  0  0  0  0
    1.1969   -0.5152    4.0441 H   0  0  0  0  0  0  0  0  0  0  0  0
  1  2  1  0  0  0  0
  2  3  1  0  0  0  0
  2  4  1  0  0  0  0
  2  5  1  0  0  0  0
  5  6  2  0  0  0  0
  5  7  1  0  0  0  0
  7  8  1  0  0  0  0
  7  9  1  0  0  0  0
  9 10  1  0  0  0  0
  9 11  1  0  0  0  0
  9 22  1  0  0  0  0
 11 12  1  0  0  0  0
 11 13  1  0  0  0  0
 11 14  1  0  0  0  0
 14 15  1  0  0  0  0
 14 16  1  0  0  0  0
 14 17  1  0  0  0  0
 17 18  1  0  0  0  0
 18 19  1  0  0  0  0
 18 20  1  0  0  0  0
 18 21  1  0  0  0  0
 22 23  2  0  0  0  0
 22 24  1  0  0  0  0
 24 25  1  0  0  0  0
 24 26  1  0  0  0  0
 26 27  1  0  0  0  0
 26 28  1  0  0  0  0
 26 29  1  0  0  0  0
M  END
$$$$

  -OEChem-04042216023D

 29 28  0     1  0  0  0  0  0999 V2000
   -1.9136   -4.0499    0.0846 H   0  0  0  0  0  0  0  0  0  0  0  0
   -2.2809   -3.0241   -0.0120 C   0  0  0  0  0  0  0  0  0  0  0  0
   -3.0490   -2.8543    0.7463 H   0  0  0  0  0  0  0  0  0  0  0  0
   -2.7225   -2.9012   -1.0038 H   0  0  0  0  0  0  0  0  0  0  0  0
   -1.1396   -2.0415    0.1727 C   0  0  0  0  0  0  0  0  0  0  0  0
   -0.0086   -2.4562    0.3455 O   0  0  0  0  0  0  0  0  0  0  0  0
   -1.4021   -0.6836    0.1738 N   0  0  0  0  0  0  0  0  0  0  0  0
   -2.3623   -0.4204   -0.0279 H   0  0  0  0  0  0  0  0  0  0  0  0
   -0.3855    0.3957    0.1798 C   0  0  1  0  0  0  0  0  0  0  0  0
   -0.9033    1.3513    0.3054 H   0  0  0  0  0  0  0  0  0  0  0  0
    0.2055    0.4138   -1.2686 C   0  0  0  0  0  0  0  0  0  0  0  0
    0.3463   -0.6157   -1.6049 H   0  0  0  0  0  0  0  0  0  0  0  0
   -0.5659    0.8458   -1.9132 H   0  0  0  0  0  0  0  0  0  0  0  0
    1.5204    1.1544   -1.5878 C   0  0  0  0  0  0  0  0  0  0  0  0
    1.5856    1.2822   -2.6726 H   0  0  0  0  0  0  0  0  0  0  0  0
    1.4822    2.1532   -1.1414 H   0  0  0  0  0  0  0  0  0  0  0  0
    3.0767    0.3297   -1.0342 S   0  0  0  0  0  0  0  0  0  0  0  0
    2.9566   -1.3978   -1.6450 C   0  0  0  0  0  0  0  0  0  0  0  0
    2.7224   -1.4088   -2.7130 H   0  0  0  0  0  0  0  0  0  0  0  0
    3.9074   -1.9151   -1.4880 H   0  0  0  0  0  0  0  0  0  0  0  0
    2.1777   -1.9405   -1.1027 H   0  0  0  0  0  0  0  0  0  0  0  0
    0.5415    0.3354    1.4260 C   0  0  0  0  0  0  0  0  0  0  0  0
    1.5940    0.9508    1.4784 O   0  0  0  0  0  0  0  0  0  0  0  0
   -0.0687    0.1174    2.6505 N   0  0  0  0  0  0  0  0  0  0  0  0
   -0.9282   -0.4195    2.6168 H   0  0  0  0  0  0  0  0  0  0  0  0
    0.6407    0.2071    3.9226 C   0  0  0  0  0  0  0  0  0  0  0  0
    0.9939    1.2295    4.0940 H   0  0  0  0  0  0  0  0  0  0  0  0
   -0.0236   -0.0696    4.7467 H   0  0  0  0  0  0  0  0  0  0  0  0
    1.5023   -0.4691    3.9290 H   0  0  0  0  0  0  0  0  0  0  0  0
  1  2  1  0  0  0  0
  2  3  1  0  0  0  0
  2  4  1  0  0  0  0
  2  5  1  0  0  0  0
  5  6  2  0  0  0  0
  5  7  1  0  0  0  0
  7  8  1  0  0  0  0
  7  9  1  0  0  0  0
  9 10  1  0  0  0  0
  9 11  1  0  0  0  0
  9 22  1  0  0  0  0
 11 12  1  0  0  0  0
 11 13  1  0  0  0  0
 11 14  1  0  0  0  0
 14 15  1  0  0  0  0
 14 16  1  0  0  0  0
 14 17  1  0  0  0  0
 17 18  1  0  0  0  0
 18 19  1  0  0  0  0
 18 20  1  0  0  0  0
 18 21  1  0  0  0  0
 22 23  2  0  0  0  0
 22 24  1  0  0  0  0
 24 25  1  0  0  0  0
 24 26  1  0  0  0  0
 26 27  1  0  0  0  0
 26 28  1  0  0  0  0
 26 29  1  0  0  0  0
M  END
$$$$

  -OEChem-04042216023D

 29 28  0     1  0  0  0  0  0999 V2000
   -3.0585   -3.9042    0.8371 H   0  0  0  0  0  0  0  0  0  0  0  0
   -2.9439   -2.9880    0.2506 C   0  0  0  0  0  0  0  0  0  0  0  0
   -3.7127   -2.2755    0.5586 H   0  0  0  0  0  0  0  0  0  0  0  0
   -3.0804   -3.2287   -0.8064 H   0  0  0  0  0  0  0  0  0  0  0  0
   -1.5653   -2.3954    0.4735 C   0  0  0  0  0  0  0  0  0  0  0  0
   -0.7578   -2.9845    1.1683 O   0  0  0  0  0  0  0  0  0  0  0  0
   -1.2382   -1.1863   -0.1087 N   0  0  0  0  0  0  0  0  0  0  0  0
   -1.9146   -0.8087   -0.7654 H   0  0  0  0  0  0  0  0  0  0  0  0
    0.1210   -0.6114   -0.1131 C   0  0  1  0  0  0  0  0  0  0  0  0
    0.7882   -1.3242   -0.6106 H   0  0  0  0  0  0  0  0  0  0  0  0
    0.0671    0.6819   -0.9490 C   0  0  0  0  0  0  0  0  0  0  0  0
   -0.5237    0.5217   -1.8568 H   0  0  0  0  0  0  0  0  0  0  0  0
   -0.4378    1.4566   -0.3628 H   0  0  0  0  0  0  0  0  0  0  0  0
    1.4589    1.1922   -1.3481 C   0  0  0  0  0  0  0  0  0  0  0  0
    1.4150    2.2786   -1.4731 H   0  0  0  0  0  0  0  0  0  0  0  0
    2.2095    0.9868   -0.5791 H   0  0  0  0  0  0  0  0  0  0  0  0
    1.9486    0.4524   -2.9569 S   0  0  0  0  0  0  0  0  0  0  0  0
    3.3449   -0.6243   -2.4413 C   0  0  0  0  0  0  0  0  0  0  0  0
    3.0122   -1.3480   -1.6911 H   0  0  0  0  0  0  0  0  0  0  0  0
    3.7369   -1.1702   -3.3044 H   0  0  0  0  0  0  0  0  0  0  0  0
    4.1510   -0.0213   -2.0127 H   0  0  0  0  0  0  0  0  0  0  0  0
    0.7075   -0.3497    1.2952 C   0  0  0  0  0  0  0  0  0  0  0  0
    1.9088   -0.4802    1.4937 O   0  0  0  0  0  0  0  0  0  0  0  0
   -0.0742    0.2473    2.2678 N   0  0  0  0  0  0  0  0  0  0  0  0
   -1.0757    0.2217    2.1071 H   0  0  0  0  0  0  0  0  0  0  0  0
    0.4103    0.5009    3.6188 C   0  0  0  0  0  0  0  0  0  0  0  0
    1.2794    1.1668    3.5963 H   0  0  0  0  0  0  0  0  0  0  0  0
   -0.3713    0.9765    4.2188 H   0  0  0  0  0  0  0  0  0  0  0  0
    0.6984   -0.4379    4.1034 H   0  0  0  0  0  0  0  0  0  0  0  0
  1  2  1  0  0  0  0
  2  3  1  0  0  0  0
  2  4  1  0  0  0  0
  2  5  1  0  0  0  0
  5  6  2  0  0  0  0
  5  7  1  0  0  0  0
  7  8  1  0  0  0  0
  7  9  1  0  0  0  0
  9 10  1  0  0  0  0
  9 11  1  0  0  0  0
  9 22  1  0  0  0  0
 11 12  1  0  0  0  0
 11 13  1  0  0  0  0
 11 14  1  0  0  0  0
 14 15  1  0  0  0  0
 14 16  1  0  0  0  0
 14 17  1  0  0  0  0
 17 18  1  0  0  0  0
 18 19  1  0  0  0  0
 18 20  1  0  0  0  0
 18 21  1  0  0  0  0
 22 23  2  0  0  0  0
 22 24  1  0  0  0  0
 24 25  1  0  0  0  0
 24 26  1  0  0  0  0
 26 27  1  0  0  0  0
 26 28  1  0  0  0  0
 26 29  1  0  0  0  0
M  END
$$$$

  -OEChem-04042216023D

 29 28  0     1  0  0  0  0  0999 V2000
   -2.6770   -4.0496    0.6144 H   0  0  0  0  0  0  0  0  0  0  0  0
   -2.6387   -3.0691    0.1309 C   0  0  0  0  0  0  0  0  0  0  0  0
   -3.4398   -2.4459    0.5353 H   0  0  0  0  0  0  0  0  0  0  0  0
   -2.7941   -3.2019   -0.9425 H   0  0  0  0  0  0  0  0  0  0  0  0
   -1.2935   -2.4149    0.3843 C   0  0  0  0  0  0  0  0  0  0  0  0
   -0.4648   -2.9784    1.0750 O   0  0  0  0  0  0  0  0  0  0  0  0
   -1.0153   -1.1819   -0.1722 N   0  0  0  0  0  0  0  0  0  0  0  0
   -1.7068   -0.8084   -0.8155 H   0  0  0  0  0  0  0  0  0  0  0  0
    0.2988   -0.5150   -0.0974 C   0  0  1  0  0  0  0  0  0  0  0  0
    1.0423   -1.1773   -0.5523 H   0  0  0  0  0  0  0  0  0  0  0  0
    0.2038    0.7810   -0.9252 C   0  0  0  0  0  0  0  0  0  0  0  0
   -0.3267    0.5861   -1.8628 H   0  0  0  0  0  0  0  0  0  0  0  0
   -0.3882    1.5126   -0.3657 H   0  0  0  0  0  0  0  0  0  0  0  0
    1.5752    1.3978   -1.2484 C   0  0  0  0  0  0  0  0  0  0  0  0
    1.5241    2.4791   -1.0860 H   0  0  0  0  0  0  0  0  0  0  0  0
    2.3606    1.0091   -0.5929 H   0  0  0  0  0  0  0  0  0  0  0  0
    2.0277    1.0996   -3.0068 S   0  0  0  0  0  0  0  0  0  0  0  0
    2.4128   -0.6962   -3.0341 C   0  0  0  0  0  0  0  0  0  0  0  0
    1.5084   -1.2840   -2.8550 H   0  0  0  0  0  0  0  0  0  0  0  0
    2.8212   -0.9768   -4.0095 H   0  0  0  0  0  0  0  0  0  0  0  0
    3.1510   -0.9378   -2.2631 H   0  0  0  0  0  0  0  0  0  0  0  0
    0.7830   -0.2260    1.3441 C   0  0  0  0  0  0  0  0  0  0  0  0
    1.9766   -0.2739    1.6107 O   0  0  0  0  0  0  0  0  0  0  0  0
   -0.0925    0.3073    2.2730 N   0  0  0  0  0  0  0  0  0  0  0  0
   -1.0794    0.2244    2.0528 H   0  0  0  0  0  0  0  0  0  0  0  0
    0.2955    0.5873    3.6498 C   0  0  0  0  0  0  0  0  0  0  0  0
    1.1200    1.3076    3.6779 H   0  0  0  0  0  0  0  0  0  0  0  0
   -0.5489    1.0102    4.2024 H   0  0  0  0  0  0  0  0  0  0  0  0
    0.6139   -0.3326    4.1515 H   0  0  0  0  0  0  0  0  0  0  0  0
  1  2  1  0  0  0  0
  2  3  1  0  0  0  0
  2  4  1  0  0  0  0
  2  5  1  0  0  0  0
  5  6  2  0  0  0  0
  5  7  1  0  0  0  0
  7  8  1  0  0  0  0
  7  9  1  0  0  0  0
  9 10  1  0  0  0  0
  9 11  1  0  0  0  0
  9 22  1  0  0  0  0
 11 12  1  0  0  0  0
 11 13  1  0  0  0  0
 11 14  1  0  0  0  0
 14 15  1  0  0  0  0
 14 16  1  0  0  0  0
 14 17  1  0  0  0  0
 17 18  1  0  0  0  0
 18 19  1  0  0  0  0
 18 20  1  0  0  0  0
 18 21  1  0  0  0  0
 22 23  2  0  0  0  0
 22 24  1  0  0  0  0
 24 25  1  0  0  0  0
 24 26  1  0  0  0  0
 26 27  1  0  0  0  0
 26 28  1  0  0  0  0
 26 29  1  0  0  0  0
M  END
$$$$

  -OEChem-04042216023D

 29 28  0     1  0  0  0  0  0999 V2000
   -2.6876   -4.0548    0.6109 H   0  0  0  0  0  0  0  0  0  0  0  0
   -2.6535   -3.0725    0.1309 C   0  0  0  0  0  0  0  0  0  0  0  0
   -3.4501   -2.4506    0.5460 H   0  0  0  0  0  0  0  0  0  0  0  0
   -2.8203   -3.2009   -0.9413 H   0  0  0  0  0  0  0  0  0  0  0  0
   -1.3052   -2.4205    0.3729 C   0  0  0  0  0  0  0  0  0  0  0  0
   -0.4701   -2.9863    1.0540 O   0  0  0  0  0  0  0  0  0  0  0  0
   -1.0331   -1.1838   -0.1780 N   0  0  0  0  0  0  0  0  0  0  0  0
   -1.7354   -0.8003   -0.8035 H   0  0  0  0  0  0  0  0  0  0  0  0
    0.2798   -0.5146   -0.1078 C   0  0  1  0  0  0  0  0  0  0  0  0
    1.0186   -1.1748   -0.5765 H   0  0  0  0  0  0  0  0  0  0  0  0
    0.1845    0.7844   -0.9276 C   0  0  0  0  0  0  0  0  0  0  0  0
   -0.3401    0.5803   -1.8664 H   0  0  0  0  0  0  0  0  0  0  0  0
   -0.4128    1.5198   -0.3789 H   0  0  0  0  0  0  0  0  0  0  0  0
    1.5630    1.3903   -1.2439 C   0  0  0  0  0  0  0  0  0  0  0  0
    1.6221    2.3956   -0.8143 H   0  0  0  0  0  0  0  0  0  0  0  0
    2.3727    0.8008   -0.8012 H   0  0  0  0  0  0  0  0  0  0  0  0
    1.8188    1.4974   -3.0615 S   0  0  0  0  0  0  0  0  0  0  0  0
    2.1232   -0.2619   -3.4940 C   0  0  0  0  0  0  0  0  0  0  0  0
    1.2450   -0.8710   -3.2618 H   0  0  0  0  0  0  0  0  0  0  0  0
    2.3396   -0.3528   -4.5625 H   0  0  0  0  0  0  0  0  0  0  0  0
    2.9778   -0.6476   -2.9298 H   0  0  0  0  0  0  0  0  0  0  0  0
    0.7797   -0.2297    1.3286 C   0  0  0  0  0  0  0  0  0  0  0  0
    1.9780   -0.2616    1.5757 O   0  0  0  0  0  0  0  0  0  0  0  0
   -0.0865    0.2983    2.2690 N   0  0  0  0  0  0  0  0  0  0  0  0
   -1.0758    0.2106    2.0621 H   0  0  0  0  0  0  0  0  0  0  0  0
    0.3191    0.5889    3.6385 C   0  0  0  0  0  0  0  0  0  0  0  0
    1.1387    1.3151    3.6510 H   0  0  0  0  0  0  0  0  0  0  0  0
   -0.5202    1.0090    4.2006 H   0  0  0  0  0  0  0  0  0  0  0  0
    0.6517   -0.3255    4.1412 H   0  0  0  0  0  0  0  0  0  0  0  0
  1  2  1  0  0  0  0
  2  3  1  0  0  0  0
  2  4  1  0  0  0  0
  2  5  1  0  0  0  0
  5  6  2  0  0  0  0
  5  7  1  0  0  0  0
  7  8  1  0  0  0  0
  7  9  1  0  0  0  0
  9 10  1  0  0  0  0
  9 11  1  0  0  0  0
  9 22  1  0  0  0  0
 11 12  1  0  0  0  0
 11 13  1  0  0  0  0
 11 14  1  0  0  0  0
 14 15  1  0  0  0  0
 14 16  1  0  0  0  0
 14 17  1  0  0  0  0
 17 18  1  0  0  0  0
 18 19  1  0  0  0  0
 18 20  1  0  0  0  0
 18 21  1  0  0  0  0
 22 23  2  0  0  0  0
 22 24  1  0  0  0  0
 24 25  1  0  0  0  0
 24 26  1  0  0  0  0
 26 27  1  0  0  0  0
 26 28  1  0  0  0  0
 26 29  1  0  0  0  0
M  END
$$$$

  -OEChem-04042216023D

 29 28  0     1  0  0  0  0  0999 V2000
   -2.7083   -4.0646    0.6405 H   0  0  0  0  0  0  0  0  0  0  0  0
   -2.6790   -3.0852    0.1542 C   0  0  0  0  0  0  0  0  0  0  0  0
   -3.4735   -2.4620    0.5715 H   0  0  0  0  0  0  0  0  0  0  0  0
   -2.8533   -3.2199   -0.9160 H   0  0  0  0  0  0  0  0  0  0  0  0
   -1.3297   -2.4303    0.3822 C   0  0  0  0  0  0  0  0  0  0  0  0
   -0.4831   -2.9984    1.0468 O   0  0  0  0  0  0  0  0  0  0  0  0
   -1.0675   -1.1903   -0.1661 N   0  0  0  0  0  0  0  0  0  0  0  0
   -1.7816   -0.8007   -0.7741 H   0  0  0  0  0  0  0  0  0  0  0  0
    0.2444   -0.5181   -0.1083 C   0  0  1  0  0  0  0  0  0  0  0  0
    0.9750   -1.1794   -0.5879 H   0  0  0  0  0  0  0  0  0  0  0  0
    0.1457    0.7837   -0.9218 C   0  0  0  0  0  0  0  0  0  0  0  0
   -0.3705    0.5655   -1.8618 H   0  0  0  0  0  0  0  0  0  0  0  0
   -0.4565    1.5238   -0.3848 H   0  0  0  0  0  0  0  0  0  0  0  0
    1.5269    1.3799   -1.2404 C   0  0  0  0  0  0  0  0  0  0  0  0
    1.7141    2.2370   -0.5853 H   0  0  0  0  0  0  0  0  0  0  0  0
    2.3235    0.6510   -1.0558 H   0  0  0  0  0  0  0  0  0  0  0  0
    1.6082    1.9085   -2.9993 S   0  0  0  0  0  0  0  0  0  0  0  0
    1.8672    0.3049   -3.8582 C   0  0  0  0  0  0  0  0  0  0  0  0
    1.0228   -0.3669   -3.6792 H   0  0  0  0  0  0  0  0  0  0  0  0
    1.9620    0.4679   -4.9360 H   0  0  0  0  0  0  0  0  0  0  0  0
    2.7815   -0.1748   -3.4955 H   0  0  0  0  0  0  0  0  0  0  0  0
    0.7701   -0.2339    1.3181 C   0  0  0  0  0  0  0  0  0  0  0  0
    1.9748   -0.2466    1.5344 O   0  0  0  0  0  0  0  0  0  0  0  0
   -0.0792    0.2907    2.2755 N   0  0  0  0  0  0  0  0  0  0  0  0
   -1.0722    0.1939    2.0916 H   0  0  0  0  0  0  0  0  0  0  0  0
    0.3551    0.5964    3.6327 C   0  0  0  0  0  0  0  0  0  0  0  0
    1.1698    1.3281    3.6198 H   0  0  0  0  0  0  0  0  0  0  0  0
   -0.4744    1.0163    4.2093 H   0  0  0  0  0  0  0  0  0  0  0  0
    0.7047   -0.3114    4.1357 H   0  0  0  0  0  0  0  0  0  0  0  0
  1  2  1  0  0  0  0
  2  3  1  0  0  0  0
  2  4  1  0  0  0  0
  2  5  1  0  0  0  0
  5  6  2  0  0  0  0
  5  7  1  0  0  0  0
  7  8  1  0  0  0  0
  7  9  1  0  0  0  0
  9 10  1  0  0  0  0
  9 11  1  0  0  0  0
  9 22  1  0  0  0  0
 11 12  1  0  0  0  0
 11 13  1  0  0  0  0
 11 14  1  0  0  0  0
 14 15  1  0  0  0  0
 14 16  1  0  0  0  0
 14 17  1  0  0  0  0
 17 18  1  0  0  0  0
 18 19  1  0  0  0  0
 18 20  1  0  0  0  0
 18 21  1  0  0  0  0
 22 23  2  0  0  0  0
 22 24  1  0  0  0  0
 24 25  1  0  0  0  0
 24 26  1  0  0  0  0
 26 27  1  0  0  0  0
 26 28  1  0  0  0  0
 26 29  1  0  0  0  0
M  END
$$$$

  -OEChem-04042216023D

 29 28  0     1  0  0  0  0  0999 V2000
   -2.7062   -4.0814    0.6668 H   0  0  0  0  0  0  0  0  0  0  0  0
   -2.6844   -3.1045    0.1752 C   0  0  0  0  0  0  0  0  0  0  0  0
   -3.4822   -2.4842    0.5905 H   0  0  0  0  0  0  0  0  0  0  0  0
   -2.8598   -3.2466   -0.8938 H   0  0  0  0  0  0  0  0  0  0  0  0
   -1.3388   -2.4397    0.3969 C   0  0  0  0  0  0  0  0  0  0  0  0
   -0.4838   -3.0036    1.0547 O   0  0  0  0  0  0  0  0  0  0  0  0
   -1.0875   -1.1973   -0.1516 N   0  0  0  0  0  0  0  0  0  0  0  0
   -1.8102   -0.8078   -0.7496 H   0  0  0  0  0  0  0  0  0  0  0  0
    0.2225   -0.5205   -0.1048 C   0  0  1  0  0  0  0  0  0  0  0  0
    0.9503   -1.1802   -0.5911 H   0  0  0  0  0  0  0  0  0  0  0  0
    0.1145    0.7820   -0.9156 C   0  0  0  0  0  0  0  0  0  0  0  0
   -0.3990    0.5586   -1.8558 H   0  0  0  0  0  0  0  0  0  0  0  0
   -0.4880    1.5224   -0.3794 H   0  0  0  0  0  0  0  0  0  0  0  0
    1.4932    1.3749   -1.2399 C   0  0  0  0  0  0  0  0  0  0  0  0
    1.8070    2.0410   -0.4289 H   0  0  0  0  0  0  0  0  0  0  0  0
    2.2467    0.5845   -1.3239 H   0  0  0  0  0  0  0  0  0  0  0  0
    1.4275    2.2997   -2.8271 S   0  0  0  0  0  0  0  0  0  0  0  0
    1.5906    0.9517   -4.0647 C   0  0  0  0  0  0  0  0  0  0  0  0
    0.7596    0.2463   -3.9764 H   0  0  0  0  0  0  0  0  0  0  0  0
    1.5880    1.3697   -5.0759 H   0  0  0  0  0  0  0  0  0  0  0  0
    2.5294    0.4104   -3.9128 H   0  0  0  0  0  0  0  0  0  0  0  0
    0.7640   -0.2361    1.3151 C   0  0  0  0  0  0  0  0  0  0  0  0
    1.9718   -0.2417    1.5148 O   0  0  0  0  0  0  0  0  0  0  0  0
   -0.0752    0.2844    2.2836 N   0  0  0  0  0  0  0  0  0  0  0  0
   -1.0704    0.1888    2.1118 H   0  0  0  0  0  0  0  0  0  0  0  0
    0.3773    0.5998    3.6325 C   0  0  0  0  0  0  0  0  0  0  0  0
    1.1839    1.3401    3.6035 H   0  0  0  0  0  0  0  0  0  0  0  0
   -0.4468    1.0130    4.2216 H   0  0  0  0  0  0  0  0  0  0  0  0
    0.7449   -0.3023    4.1329 H   0  0  0  0  0  0  0  0  0  0  0  0
  1  2  1  0  0  0  0
  2  3  1  0  0  0  0
  2  4  1  0  0  0  0
  2  5  1  0  0  0  0
  5  6  2  0  0  0  0
  5  7  1  0  0  0  0
  7  8  1  0  0  0  0
  7  9  1  0  0  0  0
  9 10  1  0  0  0  0
  9 11  1  0  0  0  0
  9 22  1  0  0  0  0
 11 12  1  0  0  0  0
 11 13  1  0  0  0  0
 11 14  1  0  0  0  0
 14 15  1  0  0  0  0
 14 16  1  0  0  0  0
 14 17  1  0  0  0  0
 17 18  1  0  0  0  0
 18 19  1  0  0  0  0
 18 20  1  0  0  0  0
 18 21  1  0  0  0  0
 22 23  2  0  0  0  0
 22 24  1  0  0  0  0
 24 25  1  0  0  0  0
 24 26  1  0  0  0  0
 26 27  1  0  0  0  0
 26 28  1  0  0  0  0
 26 29  1  0  0  0  0
M  END
$$$$

  -OEChem-04042216023D

 29 28  0     1  0  0  0  0  0999 V2000
   -2.6964   -4.0827    0.6882 H   0  0  0  0  0  0  0  0  0  0  0  0
   -2.6708   -3.1108    0.1869 C   0  0  0  0  0  0  0  0  0  0  0  0
   -3.4658   -2.4834    0.5966 H   0  0  0  0  0  0  0  0  0  0  0  0
   -2.8478   -3.2621   -0.8807 H   0  0  0  0  0  0  0  0  0  0  0  0
   -1.3229   -2.4482    0.4010 C   0  0  0  0  0  0  0  0  0  0  0  0
   -0.4659   -3.0115    1.0564 O   0  0  0  0  0  0  0  0  0  0  0  0
   -1.0750   -1.2054   -0.1480 N   0  0  0  0  0  0  0  0  0  0  0  0
   -1.8002   -0.8169   -0.7433 H   0  0  0  0  0  0  0  0  0  0  0  0
    0.2318   -0.5227   -0.1001 C   0  0  1  0  0  0  0  0  0  0  0  0
    0.9654   -1.1771   -0.5847 H   0  0  0  0  0  0  0  0  0  0  0  0
    0.1138    0.7774   -0.9141 C   0  0  0  0  0  0  0  0  0  0  0  0
   -0.3983    0.5546   -1.8549 H   0  0  0  0  0  0  0  0  0  0  0  0
   -0.4903    1.5135   -0.3735 H   0  0  0  0  0  0  0  0  0  0  0  0
    1.4857    1.3795   -1.2403 C   0  0  0  0  0  0  0  0  0  0  0  0
    1.9108    1.8411   -0.3423 H   0  0  0  0  0  0  0  0  0  0  0  0
    2.1803    0.6017   -1.5740 H   0  0  0  0  0  0  0  0  0  0  0  0
    1.3109    2.6460   -2.5608 S   0  0  0  0  0  0  0  0  0  0  0  0
    1.2860    1.6238   -4.0870 C   0  0  0  0  0  0  0  0  0  0  0  0
    0.4288    0.9450   -4.0806 H   0  0  0  0  0  0  0  0  0  0  0  0
    1.2138    2.2687   -4.9678 H   0  0  0  0  0  0  0  0  0  0  0  0
    2.2037    1.0328   -4.1615 H   0  0  0  0  0  0  0  0  0  0  0  0
    0.7663   -0.2362    1.3222 C   0  0  0  0  0  0  0  0  0  0  0  0
    1.9724   -0.2510    1.5310 O   0  0  0  0  0  0  0  0  0  0  0  0
   -0.0783    0.2805    2.2878 N   0  0  0  0  0  0  0  0  0  0  0  0
   -1.0727    0.1950    2.1061 H   0  0  0  0  0  0  0  0  0  0  0  0
    0.3651    0.5909    3.6410 C   0  0  0  0  0  0  0  0  0  0  0  0
    1.1640    1.3396    3.6208 H   0  0  0  0  0  0  0  0  0  0  0  0
   -0.4660    0.9915    4.2291 H   0  0  0  0  0  0  0  0  0  0  0  0
    0.7398   -0.3109    4.1368 H   0  0  0  0  0  0  0  0  0  0  0  0
  1  2  1  0  0  0  0
  2  3  1  0  0  0  0
  2  4  1  0  0  0  0
  2  5  1  0  0  0  0
  5  6  2  0  0  0  0
  5  7  1  0  0  0  0
  7  8  1  0  0  0  0
  7  9  1  0  0  0  0
  9 10  1  0  0  0  0
  9 11  1  0  0  0  0
  9 22  1  0  0  0  0
 11 12  1  0  0  0  0
 11 13  1  0  0  0  0
 11 14  1  0  0  0  0
 14 15  1  0  0  0  0
 14 16  1  0  0  0  0
 14 17  1  0  0  0  0
 17 18  1  0  0  0  0
 18 19  1  0  0  0  0
 18 20  1  0  0  0  0
 18 21  1  0  0  0  0
 22 23  2  0  0  0  0
 22 24  1  0  0  0  0
 24 25  1  0  0  0  0
 24 26  1  0  0  0  0
 26 27  1  0  0  0  0
 26 28  1  0  0  0  0
 26 29  1  0  0  0  0
M  END
$$$$

  -OEChem-04042216023D

 29 28  0     1  0  0  0  0  0999 V2000
   -2.6655   -4.1050    0.6495 H   0  0  0  0  0  0  0  0  0  0  0  0
   -2.6488   -3.1269    0.1598 C   0  0  0  0  0  0  0  0  0  0  0  0
   -3.4495   -2.5114    0.5765 H   0  0  0  0  0  0  0  0  0  0  0  0
   -2.8234   -3.2672   -0.9097 H   0  0  0  0  0  0  0  0  0  0  0  0
   -1.3069   -2.4557    0.3837 C   0  0  0  0  0  0  0  0  0  0  0  0
   -0.4497   -3.0165    1.0411 O   0  0  0  0  0  0  0  0  0  0  0  0
   -1.0645   -1.2082   -0.1568 N   0  0  0  0  0  0  0  0  0  0  0  0
   -1.7898   -0.8189   -0.7513 H   0  0  0  0  0  0  0  0  0  0  0  0
    0.2366   -0.5160   -0.0911 C   0  0  1  0  0  0  0  0  0  0  0  0
    0.9727   -1.1759   -0.5647 H   0  0  0  0  0  0  0  0  0  0  0  0
    0.1384    0.7835   -0.9115 C   0  0  0  0  0  0  0  0  0  0  0  0
   -0.5711    0.6447   -1.7321 H   0  0  0  0  0  0  0  0  0  0  0  0
   -0.2374    1.5987   -0.2838 H   0  0  0  0  0  0  0  0  0  0  0  0
    1.4934    1.1719   -1.5124 C   0  0  0  0  0  0  0  0  0  0  0  0
    2.2211    1.3294   -0.7086 H   0  0  0  0  0  0  0  0  0  0  0  0
    1.8748    0.3722   -2.1554 H   0  0  0  0  0  0  0  0  0  0  0  0
    1.3274    2.7254   -2.4811 S   0  0  0  0  0  0  0  0  0  0  0  0
    0.5133    2.1638   -4.0292 C   0  0  0  0  0  0  0  0  0  0  0  0
   -0.4846    1.7702   -3.8181 H   0  0  0  0  0  0  0  0  0  0  0  0
    0.4154    3.0031   -4.7241 H   0  0  0  0  0  0  0  0  0  0  0  0
    1.1087    1.3810   -4.5084 H   0  0  0  0  0  0  0  0  0  0  0  0
    0.7639   -0.2276    1.3333 C   0  0  0  0  0  0  0  0  0  0  0  0
    1.9693   -0.2349    1.5446 O   0  0  0  0  0  0  0  0  0  0  0  0
   -0.0860    0.2814    2.2986 N   0  0  0  0  0  0  0  0  0  0  0  0
   -1.0798    0.1959    2.1142 H   0  0  0  0  0  0  0  0  0  0  0  0
    0.3544    0.6004    3.6509 C   0  0  0  0  0  0  0  0  0  0  0  0
    1.1464    1.3565    3.6284 H   0  0  0  0  0  0  0  0  0  0  0  0
   -0.4804    0.9948    4.2379 H   0  0  0  0  0  0  0  0  0  0  0  0
    0.7374   -0.2962    4.1497 H   0  0  0  0  0  0  0  0  0  0  0  0
  1  2  1  0  0  0  0
  2  3  1  0  0  0  0
  2  4  1  0  0  0  0
  2  5  1  0  0  0  0
  5  6  2  0  0  0  0
  5  7  1  0  0  0  0
  7  8  1  0  0  0  0
  7  9  1  0  0  0  0
  9 10  1  0  0  0  0
  9 11  1  0  0  0  0
  9 22  1  0  0  0  0
 11 12  1  0  0  0  0
 11 13  1  0  0  0  0
 11 14  1  0  0  0  0
 14 15  1  0  0  0  0
 14 16  1  0  0  0  0
 14 17  1  0  0  0  0
 17 18  1  0  0  0  0
 18 19  1  0  0  0  0
 18 20  1  0  0  0  0
 18 21  1  0  0  0  0
 22 23  2  0  0  0  0
 22 24  1  0  0  0  0
 24 25  1  0  0  0  0
 24 26  1  0  0  0  0
 26 27  1  0  0  0  0
 26 28  1  0  0  0  0
 26 29  1  0  0  0  0
M  END
$$$$

  -OEChem-04042216023D

 29 28  0     1  0  0  0  0  0999 V2000
   -2.6611   -4.0919    0.6345 H   0  0  0  0  0  0  0  0  0  0  0  0
   -2.6382   -3.1112    0.1506 C   0  0  0  0  0  0  0  0  0  0  0  0
   -3.4304   -2.4906    0.5761 H   0  0  0  0  0  0  0  0  0  0  0  0
   -2.8208   -3.2439   -0.9184 H   0  0  0  0  0  0  0  0  0  0  0  0
   -1.2887   -2.4539    0.3700 C   0  0  0  0  0  0  0  0  0  0  0  0
   -0.4393   -3.0178    1.0347 O   0  0  0  0  0  0  0  0  0  0  0  0
   -1.0323   -1.2134   -0.1798 N   0  0  0  0  0  0  0  0  0  0  0  0
   -1.7533   -0.8191   -0.7759 H   0  0  0  0  0  0  0  0  0  0  0  0
    0.2701   -0.5248   -0.1005 C   0  0  1  0  0  0  0  0  0  0  0  0
    1.0134   -1.1902   -0.5547 H   0  0  0  0  0  0  0  0  0  0  0  0
    0.1879    0.7646   -0.9389 C   0  0  0  0  0  0  0  0  0  0  0  0
   -0.5129    0.6296   -1.7680 H   0  0  0  0  0  0  0  0  0  0  0  0
   -0.1887    1.5827   -0.3154 H   0  0  0  0  0  0  0  0  0  0  0  0
    1.5523    1.1449   -1.5243 C   0  0  0  0  0  0  0  0  0  0  0  0
    2.3244    1.0669   -0.7510 H   0  0  0  0  0  0  0  0  0  0  0  0
    1.8246    0.4636   -2.3365 H   0  0  0  0  0  0  0  0  0  0  0  0
    1.5189    2.8809   -2.1279 S   0  0  0  0  0  0  0  0  0  0  0  0
    0.4202    2.7879   -3.5966 C   0  0  0  0  0  0  0  0  0  0  0  0
   -0.5943    2.5090   -3.2991 H   0  0  0  0  0  0  0  0  0  0  0  0
    0.3811    3.7609   -4.0952 H   0  0  0  0  0  0  0  0  0  0  0  0
    0.7982    2.0464   -4.3065 H   0  0  0  0  0  0  0  0  0  0  0  0
    0.7688   -0.2255    1.3321 C   0  0  0  0  0  0  0  0  0  0  0  0
    1.9680   -0.2489    1.5750 O   0  0  0  0  0  0  0  0  0  0  0  0
   -0.1001    0.2947    2.2743 N   0  0  0  0  0  0  0  0  0  0  0  0
   -1.0896    0.2114    2.0681 H   0  0  0  0  0  0  0  0  0  0  0  0
    0.3107    0.6133    3.6358 C   0  0  0  0  0  0  0  0  0  0  0  0
    1.1171    1.3544    3.6298 H   0  0  0  0  0  0  0  0  0  0  0  0
   -0.5316    1.0266    4.1987 H   0  0  0  0  0  0  0  0  0  0  0  0
    0.6641   -0.2875    4.1486 H   0  0  0  0  0  0  0  0  0  0  0  0
  1  2  1  0  0  0  0
  2  3  1  0  0  0  0
  2  4  1  0  0  0  0
  2  5  1  0  0  0  0
  5  6  2  0  0  0  0
  5  7  1  0  0  0  0
  7  8  1  0  0  0  0
  7  9  1  0  0  0  0
  9 10  1  0  0  0  0
  9 11  1  0  0  0  0
  9 22  1  0  0  0  0
 11 12  1  0  0  0  0
 11 13  1  0  0  0  0
 11 14  1  0  0  0  0
 14 15  1  0  0  0  0
 14 16  1  0  0  0  0
 14 17  1  0  0  0  0
 17 18  1  0  0  0  0
 18 19  1  0  0  0  0
 18 20  1  0  0  0  0
 18 21  1  0  0  0  0
 22 23  2  0  0  0  0
 22 24  1  0  0  0  0
 24 25  1  0  0  0  0
 24 26  1  0  0  0  0
 26 27  1  0  0  0  0
 26 28  1  0  0  0  0
 26 29  1  0  0  0  0
M  END
$$$$

  -OEChem-04042216023D

 29 28  0     1  0  0  0  0  0999 V2000
   -2.6647   -4.0851    0.6276 H   0  0  0  0  0  0  0  0  0  0  0  0
   -2.6400   -3.1037    0.1452 C   0  0  0  0  0  0  0  0  0  0  0  0
   -3.4304   -2.4822    0.5725 H   0  0  0  0  0  0  0  0  0  0  0  0
   -2.8241   -3.2342   -0.9238 H   0  0  0  0  0  0  0  0  0  0  0  0
   -1.2886   -2.4503    0.3647 C   0  0  0  0  0  0  0  0  0  0  0  0
   -0.4435   -3.0156    1.0335 O   0  0  0  0  0  0  0  0  0  0  0  0
   -1.0248   -1.2133   -0.1898 N   0  0  0  0  0  0  0  0  0  0  0  0
   -1.7418   -0.8180   -0.7899 H   0  0  0  0  0  0  0  0  0  0  0  0
    0.2797   -0.5290   -0.1055 C   0  0  1  0  0  0  0  0  0  0  0  0
    1.0228   -1.2002   -0.5516 H   0  0  0  0  0  0  0  0  0  0  0  0
    0.2071    0.7557   -0.9531 C   0  0  0  0  0  0  0  0  0  0  0  0
   -0.4924    0.6272   -1.7847 H   0  0  0  0  0  0  0  0  0  0  0  0
   -0.1706    1.5727   -0.3287 H   0  0  0  0  0  0  0  0  0  0  0  0
    1.5756    1.1345   -1.5357 C   0  0  0  0  0  0  0  0  0  0  0  0
    2.3742    0.8207   -0.8545 H   0  0  0  0  0  0  0  0  0  0  0  0
    1.7378    0.6275   -2.4921 H   0  0  0  0  0  0  0  0  0  0  0  0
    1.6985    2.9575   -1.7382 S   0  0  0  0  0  0  0  0  0  0  0  0
    0.4727    3.2988   -3.0623 C   0  0  0  0  0  0  0  0  0  0  0  0
   -0.5344    3.0339   -2.7286 H   0  0  0  0  0  0  0  0  0  0  0  0
    0.4863    4.3623   -3.3192 H   0  0  0  0  0  0  0  0  0  0  0  0
    0.7131    2.7196   -3.9586 H   0  0  0  0  0  0  0  0  0  0  0  0
    0.7708   -0.2242    1.3289 C   0  0  0  0  0  0  0  0  0  0  0  0
    1.9674   -0.2607    1.5826 O   0  0  0  0  0  0  0  0  0  0  0  0
   -0.1020    0.3042    2.2628 N   0  0  0  0  0  0  0  0  0  0  0  0
   -1.0905    0.2315    2.0478 H   0  0  0  0  0  0  0  0  0  0  0  0
    0.3007    0.6243    3.6263 C   0  0  0  0  0  0  0  0  0  0  0  0
    1.1136    1.3582    3.6237 H   0  0  0  0  0  0  0  0  0  0  0  0
   -0.5423    1.0473    4.1807 H   0  0  0  0  0  0  0  0  0  0  0  0
    0.6423   -0.2773    4.1456 H   0  0  0  0  0  0  0  0  0  0  0  0
  1  2  1  0  0  0  0
  2  3  1  0  0  0  0
  2  4  1  0  0  0  0
  2  5  1  0  0  0  0
  5  6  2  0  0  0  0
  5  7  1  0  0  0  0
  7  8  1  0  0  0  0
  7  9  1  0  0  0  0
  9 10  1  0  0  0  0
  9 11  1  0  0  0  0
  9 22  1  0  0  0  0
 11 12  1  0  0  0  0
 11 13  1  0  0  0  0
 11 14  1  0  0  0  0
 14 15  1  0  0  0  0
 14 16  1  0  0  0  0
 14 17  1  0  0  0  0
 17 18  1  0  0  0  0
 18 19  1  0  0  0  0
 18 20  1  0  0  0  0
 18 21  1  0  0  0  0
 22 23  2  0  0  0  0
 22 24  1  0  0  0  0
 24 25  1  0  0  0  0
 24 26  1  0  0  0  0
 26 27  1  0  0  0  0
 26 28  1  0  0  0  0
 26 29  1  0  0  0  0
M  END
$$$$

  -OEChem-04042216023D

 29 28  0     1  0  0  0  0  0999 V2000
   -2.6675   -4.0922    0.6217 H   0  0  0  0  0  0  0  0  0  0  0  0
   -2.6433   -3.1087    0.1433 C   0  0  0  0  0  0  0  0  0  0  0  0
   -3.4300   -2.4873    0.5775 H   0  0  0  0  0  0  0  0  0  0  0  0
   -2.8331   -3.2343   -0.9254 H   0  0  0  0  0  0  0  0  0  0  0  0
   -1.2897   -2.4585    0.3582 C   0  0  0  0  0  0  0  0  0  0  0  0
   -0.4408   -3.0289    1.0178 O   0  0  0  0  0  0  0  0  0  0  0  0
   -1.0278   -1.2194   -0.1926 N   0  0  0  0  0  0  0  0  0  0  0  0
   -1.7510   -0.8170   -0.7804 H   0  0  0  0  0  0  0  0  0  0  0  0
    0.2749   -0.5323   -0.1039 C   0  0  1  0  0  0  0  0  0  0  0  0
    1.0167   -1.2050   -0.5493 H   0  0  0  0  0  0  0  0  0  0  0  0
    0.2036    0.7523   -0.9526 C   0  0  0  0  0  0  0  0  0  0  0  0
   -0.4900    0.6176   -1.7884 H   0  0  0  0  0  0  0  0  0  0  0  0
   -0.1880    1.5655   -0.3322 H   0  0  0  0  0  0  0  0  0  0  0  0
    1.5732    1.1401   -1.5334 C   0  0  0  0  0  0  0  0  0  0  0  0
    2.3736    0.6076   -1.0079 H   0  0  0  0  0  0  0  0  0  0  0  0
    1.6315    0.8618   -2.5903 H   0  0  0  0  0  0  0  0  0  0  0  0
    1.8751    2.9421   -1.3271 S   0  0  0  0  0  0  0  0  0  0  0  0
    0.6464    3.6842   -2.4723 C   0  0  0  0  0  0  0  0  0  0  0  0
   -0.3706    3.4314   -2.1594 H   0  0  0  0  0  0  0  0  0  0  0  0
    0.7496    4.7735   -2.4758 H   0  0  0  0  0  0  0  0  0  0  0  0
    0.8061    3.3145   -3.4894 H   0  0  0  0  0  0  0  0  0  0  0  0
    0.7695   -0.2262    1.3289 C   0  0  0  0  0  0  0  0  0  0  0  0
    1.9661   -0.2699    1.5807 O   0  0  0  0  0  0  0  0  0  0  0  0
   -0.1001    0.3007    2.2668 N   0  0  0  0  0  0  0  0  0  0  0  0
   -1.0893    0.2397    2.0522 H   0  0  0  0  0  0  0  0  0  0  0  0
    0.3083    0.6316    3.6261 C   0  0  0  0  0  0  0  0  0  0  0  0
    1.1286    1.3573    3.6147 H   0  0  0  0  0  0  0  0  0  0  0  0
   -0.5293    1.0695    4.1772 H   0  0  0  0  0  0  0  0  0  0  0  0
    0.6412   -0.2679    4.1545 H   0  0  0  0  0  0  0  0  0  0  0  0
  1  2  1  0  0  0  0
  2  3  1  0  0  0  0
  2  4  1  0  0  0  0
  2  5  1  0  0  0  0
  5  6  2  0  0  0  0
  5  7  1  0  0  0  0
  7  8  1  0  0  0  0
  7  9  1  0  0  0  0
  9 10  1  0  0  0  0
  9 11  1  0  0  0  0
  9 22  1  0  0  0  0
 11 12  1  0  0  0  0
 11 13  1  0  0  0  0
 11 14  1  0  0  0  0
 14 15  1  0  0  0  0
 14 16  1  0  0  0  0
 14 17  1  0  0  0  0
 17 18  1  0  0  0  0
 18 19  1  0  0  0  0
 18 20  1  0  0  0  0
 18 21  1  0  0  0  0
 22 23  2  0  0  0  0
 22 24  1  0  0  0  0
 24 25  1  0  0  0  0
 24 26  1  0  0  0  0
 26 27  1  0  0  0  0
 26 28  1  0  0  0  0
 26 29  1  0  0  0  0
M  END
$$$$

  -OEChem-04042216023D

 29 28  0     1  0  0  0  0  0999 V2000
   -2.6714   -4.1003    0.6160 H   0  0  0  0  0  0  0  0  0  0  0  0
   -2.6452   -3.1171    0.1372 C   0  0  0  0  0  0  0  0  0  0  0  0
   -3.4387   -2.4979    0.5624 H   0  0  0  0  0  0  0  0  0  0  0  0
   -2.8229   -3.2436   -0.9334 H   0  0  0  0  0  0  0  0  0  0  0  0
   -1.2959   -2.4627    0.3665 C   0  0  0  0  0  0  0  0  0  0  0  0
   -0.4537   -3.0295    1.0376 O   0  0  0  0  0  0  0  0  0  0  0  0
   -1.0320   -1.2239   -0.1841 N   0  0  0  0  0  0  0  0  0  0  0  0
   -1.7470   -0.8300   -0.7874 H   0  0  0  0  0  0  0  0  0  0  0  0
    0.2719   -0.5385   -0.0956 C   0  0  1  0  0  0  0  0  0  0  0  0
    1.0112   -1.2127   -0.5427 H   0  0  0  0  0  0  0  0  0  0  0  0
    0.1956    0.7496   -0.9397 C   0  0  0  0  0  0  0  0  0  0  0  0
   -0.4919    0.5979   -1.7776 H   0  0  0  0  0  0  0  0  0  0  0  0
   -0.2136    1.5612   -0.3292 H   0  0  0  0  0  0  0  0  0  0  0  0
    1.5591    1.1500   -1.5290 C   0  0  0  0  0  0  0  0  0  0  0  0
    2.3347    0.4357   -1.2321 H   0  0  0  0  0  0  0  0  0  0  0  0
    1.5123    1.1475   -2.6225 H   0  0  0  0  0  0  0  0  0  0  0  0
    2.0547    2.8182   -0.9358 S   0  0  0  0  0  0  0  0  0  0  0  0
    0.9081    3.9236   -1.8506 C   0  0  0  0  0  0  0  0  0  0  0  0
   -0.1301    3.7061   -1.5843 H   0  0  0  0  0  0  0  0  0  0  0  0
    1.1201    4.9679   -1.6025 H   0  0  0  0  0  0  0  0  0  0  0  0
    1.0324    3.7882   -2.9290 H   0  0  0  0  0  0  0  0  0  0  0  0
    0.7710   -0.2316    1.3349 C   0  0  0  0  0  0  0  0  0  0  0  0
    1.9666   -0.2935    1.5877 O   0  0  0  0  0  0  0  0  0  0  0  0
   -0.0946    0.2979    2.2752 N   0  0  0  0  0  0  0  0  0  0  0  0
   -1.0843    0.2446    2.0611 H   0  0  0  0  0  0  0  0  0  0  0  0
    0.3191    0.6269    3.6331 C   0  0  0  0  0  0  0  0  0  0  0  0
    1.1384    1.3536    3.6184 H   0  0  0  0  0  0  0  0  0  0  0  0
   -0.5163    1.0628    4.1889 H   0  0  0  0  0  0  0  0  0  0  0  0
    0.6557   -0.2732    4.1581 H   0  0  0  0  0  0  0  0  0  0  0  0
  1  2  1  0  0  0  0
  2  3  1  0  0  0  0
  2  4  1  0  0  0  0
  2  5  1  0  0  0  0
  5  6  2  0  0  0  0
  5  7  1  0  0  0  0
  7  8  1  0  0  0  0
  7  9  1  0  0  0  0
  9 10  1  0  0  0  0
  9 11  1  0  0  0  0
  9 22  1  0  0  0  0
 11 12  1  0  0  0  0
 11 13  1  0  0  0  0
 11 14  1  0  0  0  0
 14 15  1  0  0  0  0
 14 16  1  0  0  0  0
 14 17  1  0  0  0  0
 17 18  1  0  0  0  0
 18 19  1  0  0  0  0
 18 20  1  0  0  0  0
 18 21  1  0  0  0  0
 22 23  2  0  0  0  0
 22 24  1  0  0  0  0
 24 25  1  0  0  0  0
 24 26  1  0  0  0  0
 26 27  1  0  0  0  0
 26 28  1  0  0  0  0
 26 29  1  0  0  0  0
M  END
$$$$

  -OEChem-04042216023D

 29 28  0     1  0  0  0  0  0999 V2000
   -2.6746   -4.0948    0.6266 H   0  0  0  0  0  0  0  0  0  0  0  0
   -2.6432   -3.1139    0.1435 C   0  0  0  0  0  0  0  0  0  0  0  0
   -3.4354   -2.4898    0.5638 H   0  0  0  0  0  0  0  0  0  0  0  0
   -2.8184   -3.2448   -0.9270 H   0  0  0  0  0  0  0  0  0  0  0  0
   -1.2922   -2.4632    0.3730 C   0  0  0  0  0  0  0  0  0  0  0  0
   -0.4525   -3.0312    1.0461 O   0  0  0  0  0  0  0  0  0  0  0  0
   -1.0252   -1.2263   -0.1803 N   0  0  0  0  0  0  0  0  0  0  0  0
   -1.7401   -0.8321   -0.7834 H   0  0  0  0  0  0  0  0  0  0  0  0
    0.2795   -0.5415   -0.0925 C   0  0  1  0  0  0  0  0  0  0  0  0
    1.0200   -1.2165   -0.5358 H   0  0  0  0  0  0  0  0  0  0  0  0
    0.1982    0.7450   -0.9401 C   0  0  0  0  0  0  0  0  0  0  0  0
   -0.4795    0.5698   -1.7812 H   0  0  0  0  0  0  0  0  0  0  0  0
   -0.2285    1.5600   -0.3471 H   0  0  0  0  0  0  0  0  0  0  0  0
    1.5552    1.1541   -1.5366 C   0  0  0  0  0  0  0  0  0  0  0  0
    2.2659    0.3217   -1.4986 H   0  0  0  0  0  0  0  0  0  0  0  0
    1.4299    1.4292   -2.5885 H   0  0  0  0  0  0  0  0  0  0  0  0
    2.2570    2.5905   -0.6285 S   0  0  0  0  0  0  0  0  0  0  0  0
    1.2238    3.9926   -1.2123 C   0  0  0  0  0  0  0  0  0  0  0  0
    0.1767    3.8405   -0.9365 H   0  0  0  0  0  0  0  0  0  0  0  0
    1.5717    4.9252   -0.7581 H   0  0  0  0  0  0  0  0  0  0  0  0
    1.2931    4.0864   -2.3000 H   0  0  0  0  0  0  0  0  0  0  0  0
    0.7745   -0.2326    1.3389 C   0  0  0  0  0  0  0  0  0  0  0  0
    1.9648   -0.3234    1.6071 O   0  0  0  0  0  0  0  0  0  0  0  0
   -0.0943    0.2994    2.2750 N   0  0  0  0  0  0  0  0  0  0  0  0
   -1.0824    0.2554    2.0519 H   0  0  0  0  0  0  0  0  0  0  0  0
    0.3096    0.6039    3.6416 C   0  0  0  0  0  0  0  0  0  0  0  0
    1.1372    1.3214    3.6455 H   0  0  0  0  0  0  0  0  0  0  0  0
   -0.5265    1.0408    4.1957 H   0  0  0  0  0  0  0  0  0  0  0  0
    0.6312   -0.3074    4.1567 H   0  0  0  0  0  0  0  0  0  0  0  0
  1  2  1  0  0  0  0
  2  3  1  0  0  0  0
  2  4  1  0  0  0  0
  2  5  1  0  0  0  0
  5  6  2  0  0  0  0
  5  7  1  0  0  0  0
  7  8  1  0  0  0  0
  7  9  1  0  0  0  0
  9 10  1  0  0  0  0
  9 11  1  0  0  0  0
  9 22  1  0  0  0  0
 11 12  1  0  0  0  0
 11 13  1  0  0  0  0
 11 14  1  0  0  0  0
 14 15  1  0  0  0  0
 14 16  1  0  0  0  0
 14 17  1  0  0  0  0
 17 18  1  0  0  0  0
 18 19  1  0  0  0  0
 18 20  1  0  0  0  0
 18 21  1  0  0  0  0
 22 23  2  0  0  0  0
 22 24  1  0  0  0  0
 24 25  1  0  0  0  0
 24 26  1  0  0  0  0
 26 27  1  0  0  0  0
 26 28  1  0  0  0  0
 26 29  1  0  0  0  0
M  END
$$$$

  -OEChem-04042216023D

 29 28  0     1  0  0  0  0  0999 V2000
   -2.6821   -4.0648    0.6434 H   0  0  0  0  0  0  0  0  0  0  0  0
   -2.6419   -3.0847    0.1594 C   0  0  0  0  0  0  0  0  0  0  0  0
   -3.4245   -2.4512    0.5837 H   0  0  0  0  0  0  0  0  0  0  0  0
   -2.8249   -3.2142   -0.9100 H   0  0  0  0  0  0  0  0  0  0  0  0
   -1.2821   -2.4496    0.3812 C   0  0  0  0  0  0  0  0  0  0  0  0
   -0.4486   -3.0244    1.0560 O   0  0  0  0  0  0  0  0  0  0  0  0
   -1.0012   -1.2206   -0.1830 N   0  0  0  0  0  0  0  0  0  0  0  0
   -1.7109   -0.8262   -0.7919 H   0  0  0  0  0  0  0  0  0  0  0  0
    0.3087   -0.5441   -0.0973 C   0  0  1  0  0  0  0  0  0  0  0  0
    1.0539   -1.2193   -0.5326 H   0  0  0  0  0  0  0  0  0  0  0  0
    0.2194    0.7350   -0.9586 C   0  0  0  0  0  0  0  0  0  0  0  0
   -0.4586    0.5433   -1.7963 H   0  0  0  0  0  0  0  0  0  0  0  0
   -0.2113    1.5550   -0.3767 H   0  0  0  0  0  0  0  0  0  0  0  0
    1.5659    1.1502   -1.5711 C   0  0  0  0  0  0  0  0  0  0  0  0
    2.1770    0.2678   -1.7872 H   0  0  0  0  0  0  0  0  0  0  0  0
    1.3898    1.6654   -2.5204 H   0  0  0  0  0  0  0  0  0  0  0  0
    2.4941    2.2849   -0.4618 S   0  0  0  0  0  0  0  0  0  0  0  0
    1.5543    3.8590   -0.5748 C   0  0  0  0  0  0  0  0  0  0  0  0
    0.5490    3.7382   -0.1627 H   0  0  0  0  0  0  0  0  0  0  0  0
    2.0691    4.6404   -0.0080 H   0  0  0  0  0  0  0  0  0  0  0  0
    1.4741    4.1790   -1.6177 H   0  0  0  0  0  0  0  0  0  0  0  0
    0.7864   -0.2303    1.3400 C   0  0  0  0  0  0  0  0  0  0  0  0
    1.9616   -0.3760    1.6465 O   0  0  0  0  0  0  0  0  0  0  0  0
   -0.0924    0.3135    2.2601 N   0  0  0  0  0  0  0  0  0  0  0  0
   -1.0751    0.2919    2.0124 H   0  0  0  0  0  0  0  0  0  0  0  0
    0.2815    0.5794    3.6432 C   0  0  0  0  0  0  0  0  0  0  0  0
    1.1311    1.2695    3.6838 H   0  0  0  0  0  0  0  0  0  0  0  0
   -0.5557    1.0328    4.1822 H   0  0  0  0  0  0  0  0  0  0  0  0
    0.5593   -0.3513    4.1493 H   0  0  0  0  0  0  0  0  0  0  0  0
  1  2  1  0  0  0  0
  2  3  1  0  0  0  0
  2  4  1  0  0  0  0
  2  5  1  0  0  0  0
  5  6  2  0  0  0  0
  5  7  1  0  0  0  0
  7  8  1  0  0  0  0
  7  9  1  0  0  0  0
  9 10  1  0  0  0  0
  9 11  1  0  0  0  0
  9 22  1  0  0  0  0
 11 12  1  0  0  0  0
 11 13  1  0  0  0  0
 11 14  1  0  0  0  0
 14 15  1  0  0  0  0
 14 16  1  0  0  0  0
 14 17  1  0  0  0  0
 17 18  1  0  0  0  0
 18 19  1  0  0  0  0
 18 20  1  0  0  0  0
 18 21  1  0  0  0  0
 22 23  2  0  0  0  0
 22 24  1  0  0  0  0
 24 25  1  0  0  0  0
 24 26  1  0  0  0  0
 26 27  1  0  0  0  0
 26 28  1  0  0  0  0
 26 29  1  0  0  0  0
M  END
$$$$

  -OEChem-04042216023D

 29 28  0     1  0  0  0  0  0999 V2000
   -2.6916   -3.9595    0.7721 H   0  0  0  0  0  0  0  0  0  0  0  0
   -2.6167   -3.0330    0.1954 C   0  0  0  0  0  0  0  0  0  0  0  0
   -3.4136   -2.3565    0.5132 H   0  0  0  0  0  0  0  0  0  0  0  0
   -2.7458   -3.2678   -0.8639 H   0  0  0  0  0  0  0  0  0  0  0  0
   -1.2631   -2.3862    0.4220 C   0  0  0  0  0  0  0  0  0  0  0  0
   -0.4471   -2.9290    1.1428 O   0  0  0  0  0  0  0  0  0  0  0  0
   -0.9692   -1.1853   -0.1947 N   0  0  0  0  0  0  0  0  0  0  0  0
   -1.6598   -0.8353   -0.8510 H   0  0  0  0  0  0  0  0  0  0  0  0
    0.3504   -0.5217   -0.1448 C   0  0  1  0  0  0  0  0  0  0  0  0
    1.0957   -1.2076   -0.5633 H   0  0  0  0  0  0  0  0  0  0  0  0
    0.2441    0.7312   -1.0457 C   0  0  0  0  0  0  0  0  0  0  0  0
   -0.4534    0.5157   -1.8615 H   0  0  0  0  0  0  0  0  0  0  0  0
   -0.1769    1.5680   -0.4820 H   0  0  0  0  0  0  0  0  0  0  0  0
    1.5675    1.1413   -1.7112 C   0  0  0  0  0  0  0  0  0  0  0  0
    2.0412    0.2635   -2.1627 H   0  0  0  0  0  0  0  0  0  0  0  0
    1.3459    1.8441   -2.5206 H   0  0  0  0  0  0  0  0  0  0  0  0
    2.7673    1.9529   -0.5768 S   0  0  0  0  0  0  0  0  0  0  0  0
    1.8415    3.3243    0.2205 C   0  0  0  0  0  0  0  0  0  0  0  0
    1.0819    2.9299    0.9010 H   0  0  0  0  0  0  0  0  0  0  0  0
    2.5298    3.9475    0.7991 H   0  0  0  0  0  0  0  0  0  0  0  0
    1.3561    3.9468   -0.5365 H   0  0  0  0  0  0  0  0  0  0  0  0
    0.8171   -0.1644    1.2881 C   0  0  0  0  0  0  0  0  0  0  0  0
    1.9766   -0.3428    1.6334 O   0  0  0  0  0  0  0  0  0  0  0  0
   -0.0697    0.4206    2.1758 N   0  0  0  0  0  0  0  0  0  0  0  0
   -1.0484    0.3871    1.9129 H   0  0  0  0  0  0  0  0  0  0  0  0
    0.2732    0.6790    3.5686 C   0  0  0  0  0  0  0  0  0  0  0  0
    1.1584    1.3209    3.6332 H   0  0  0  0  0  0  0  0  0  0  0  0
   -0.5547    1.1841    4.0752 H   0  0  0  0  0  0  0  0  0  0  0  0
    0.4809   -0.2609    4.0910 H   0  0  0  0  0  0  0  0  0  0  0  0
  1  2  1  0  0  0  0
  2  3  1  0  0  0  0
  2  4  1  0  0  0  0
  2  5  1  0  0  0  0
  5  6  2  0  0  0  0
  5  7  1  0  0  0  0
  7  8  1  0  0  0  0
  7  9  1  0  0  0  0
  9 10  1  0  0  0  0
  9 11  1  0  0  0  0
  9 22  1  0  0  0  0
 11 12  1  0  0  0  0
 11 13  1  0  0  0  0
 11 14  1  0  0  0  0
 14 15  1  0  0  0  0
 14 16  1  0  0  0  0
 14 17  1  0  0  0  0
 17 18  1  0  0  0  0
 18 19  1  0  0  0  0
 18 20  1  0  0  0  0
 18 21  1  0  0  0  0
 22 23  2  0  0  0  0
 22 24  1  0  0  0  0
 24 25  1  0  0  0  0
 24 26  1  0  0  0  0
 26 27  1  0  0  0  0
 26 28  1  0  0  0  0
 26 29  1  0  0  0  0
M  END
$$$$

  -OEChem-04042216023D

 29 28  0     1  0  0  0  0  0999 V2000
   -2.6724   -3.9913    0.7191 H   0  0  0  0  0  0  0  0  0  0  0  0
   -2.6176   -3.0255    0.2082 C   0  0  0  0  0  0  0  0  0  0  0  0
   -3.3980   -2.3730    0.6067 H   0  0  0  0  0  0  0  0  0  0  0  0
   -2.7915   -3.1833   -0.8588 H   0  0  0  0  0  0  0  0  0  0  0  0
   -1.2533   -2.3981    0.4264 C   0  0  0  0  0  0  0  0  0  0  0  0
   -0.4349   -2.9647    1.1256 O   0  0  0  0  0  0  0  0  0  0  0  0
   -0.9535   -1.1899   -0.1736 N   0  0  0  0  0  0  0  0  0  0  0  0
   -1.6492   -0.8197   -0.8130 H   0  0  0  0  0  0  0  0  0  0  0  0
    0.3685   -0.5299   -0.1159 C   0  0  1  0  0  0  0  0  0  0  0  0
    1.1197   -1.2033   -0.5446 H   0  0  0  0  0  0  0  0  0  0  0  0
    0.2482    0.7356   -1.0022 C   0  0  0  0  0  0  0  0  0  0  0  0
   -0.4719    0.5438   -1.8044 H   0  0  0  0  0  0  0  0  0  0  0  0
   -0.1503    1.5608   -0.4038 H   0  0  0  0  0  0  0  0  0  0  0  0
    1.5490    1.1865   -1.6891 C   0  0  0  0  0  0  0  0  0  0  0  0
    1.8898    0.3871   -2.3552 H   0  0  0  0  0  0  0  0  0  0  0  0
    1.3338    2.0609   -2.3113 H   0  0  0  0  0  0  0  0  0  0  0  0
    2.9319    1.6105   -0.5572 S   0  0  0  0  0  0  0  0  0  0  0  0
    2.2710    2.9867    0.4638 C   0  0  0  0  0  0  0  0  0  0  0  0
    1.4441    2.6391    1.0887 H   0  0  0  0  0  0  0  0  0  0  0  0
    3.0577    3.3734    1.1181 H   0  0  0  0  0  0  0  0  0  0  0  0
    1.9162    3.7993   -0.1764 H   0  0  0  0  0  0  0  0  0  0  0  0
    0.8116   -0.2040    1.3339 C   0  0  0  0  0  0  0  0  0  0  0  0
    1.9533   -0.4208    1.7143 O   0  0  0  0  0  0  0  0  0  0  0  0
   -0.0914    0.3633    2.2173 N   0  0  0  0  0  0  0  0  0  0  0  0
   -1.0626    0.3536    1.9263 H   0  0  0  0  0  0  0  0  0  0  0  0
    0.2135    0.5579    3.6293 C   0  0  0  0  0  0  0  0  0  0  0  0
    1.1000    1.1904    3.7467 H   0  0  0  0  0  0  0  0  0  0  0  0
   -0.6255    1.0451    4.1350 H   0  0  0  0  0  0  0  0  0  0  0  0
    0.4021   -0.4057    4.1147 H   0  0  0  0  0  0  0  0  0  0  0  0
  1  2  1  0  0  0  0
  2  3  1  0  0  0  0
  2  4  1  0  0  0  0
  2  5  1  0  0  0  0
  5  6  2  0  0  0  0
  5  7  1  0  0  0  0
  7  8  1  0  0  0  0
  7  9  1  0  0  0  0
  9 10  1  0  0  0  0
  9 11  1  0  0  0  0
  9 22  1  0  0  0  0
 11 12  1  0  0  0  0
 11 13  1  0  0  0  0
 11 14  1  0  0  0  0
 14 15  1  0  0  0  0
 14 16  1  0  0  0  0
 14 17  1  0  0  0  0
 17 18  1  0  0  0  0
 18 19  1  0  0  0  0
 18 20  1  0  0  0  0
 18 21  1  0  0  0  0
 22 23  2  0  0  0  0
 22 24  1  0  0  0  0
 24 25  1  0  0  0  0
 24 26  1  0  0  0  0
 26 27  1  0  0  0  0
 26 28  1  0  0  0  0
 26 29  1  0  0  0  0
M  END
$$$$

  -OEChem-04042216023D

 29 28  0     1  0  0  0  0  0999 V2000
   -2.7109   -4.0043    0.6886 H   0  0  0  0  0  0  0  0  0  0  0  0
   -2.6391   -3.0362    0.1843 C   0  0  0  0  0  0  0  0  0  0  0  0
   -3.4241   -2.3807    0.5688 H   0  0  0  0  0  0  0  0  0  0  0  0
   -2.7900   -3.1875   -0.8873 H   0  0  0  0  0  0  0  0  0  0  0  0
   -1.2760   -2.4189    0.4352 C   0  0  0  0  0  0  0  0  0  0  0  0
   -0.4759   -2.9960    1.1466 O   0  0  0  0  0  0  0  0  0  0  0  0
   -0.9588   -1.2079   -0.1502 N   0  0  0  0  0  0  0  0  0  0  0  0
   -1.6397   -0.8338   -0.8031 H   0  0  0  0  0  0  0  0  0  0  0  0
    0.3695   -0.5611   -0.0786 C   0  0  1  0  0  0  0  0  0  0  0  0
    1.1210   -1.2291   -0.5147 H   0  0  0  0  0  0  0  0  0  0  0  0
    0.2485    0.7219   -0.9426 C   0  0  0  0  0  0  0  0  0  0  0  0
   -0.4927    0.5628   -1.7321 H   0  0  0  0  0  0  0  0  0  0  0  0
   -0.1275    1.5318   -0.3092 H   0  0  0  0  0  0  0  0  0  0  0  0
    1.5317    1.2080   -1.6422 C   0  0  0  0  0  0  0  0  0  0  0  0
    1.7234    0.5464   -2.4932 H   0  0  0  0  0  0  0  0  0  0  0  0
    1.3628    2.2122   -2.0433 H   0  0  0  0  0  0  0  0  0  0  0  0
    3.0540    1.2256   -0.6185 S   0  0  0  0  0  0  0  0  0  0  0  0
    2.7351    2.5845    0.5756 C   0  0  0  0  0  0  0  0  0  0  0  0
    1.8384    2.3769    1.1655 H   0  0  0  0  0  0  0  0  0  0  0  0
    3.5831    2.6832    1.2597 H   0  0  0  0  0  0  0  0  0  0  0  0
    2.5985    3.5316    0.0462 H   0  0  0  0  0  0  0  0  0  0  0  0
    0.7917   -0.2610    1.3845 C   0  0  0  0  0  0  0  0  0  0  0  0
    1.9211   -0.4965    1.7900 O   0  0  0  0  0  0  0  0  0  0  0  0
   -0.1246    0.3010    2.2575 N   0  0  0  0  0  0  0  0  0  0  0  0
   -1.0888    0.3010    1.9441 H   0  0  0  0  0  0  0  0  0  0  0  0
    0.1449    0.4553    3.6815 C   0  0  0  0  0  0  0  0  0  0  0  0
    1.0297    1.0811    3.8389 H   0  0  0  0  0  0  0  0  0  0  0  0
   -0.7056    0.9310    4.1787 H   0  0  0  0  0  0  0  0  0  0  0  0
    0.3177   -0.5218    4.1450 H   0  0  0  0  0  0  0  0  0  0  0  0
  1  2  1  0  0  0  0
  2  3  1  0  0  0  0
  2  4  1  0  0  0  0
  2  5  1  0  0  0  0
  5  6  2  0  0  0  0
  5  7  1  0  0  0  0
  7  8  1  0  0  0  0
  7  9  1  0  0  0  0
  9 10  1  0  0  0  0
  9 11  1  0  0  0  0
  9 22  1  0  0  0  0
 11 12  1  0  0  0  0
 11 13  1  0  0  0  0
 11 14  1  0  0  0  0
 14 15  1  0  0  0  0
 14 16  1  0  0  0  0
 14 17  1  0  0  0  0
 17 18  1  0  0  0  0
 18 19  1  0  0  0  0
 18 20  1  0  0  0  0
 18 21  1  0  0  0  0
 22 23  2  0  0  0  0
 22 24  1  0  0  0  0
 24 25  1  0  0  0  0
 24 26  1  0  0  0  0
 26 27  1  0  0  0  0
 26 28  1  0  0  0  0
 26 29  1  0  0  0  0
M  END
$$$$

  -OEChem-04042216023D

 29 28  0     1  0  0  0  0  0999 V2000
   -2.7777   -4.0282    0.6389 H   0  0  0  0  0  0  0  0  0  0  0  0
   -2.6885   -3.0572    0.1430 C   0  0  0  0  0  0  0  0  0  0  0  0
   -3.4802   -2.4006    0.5116 H   0  0  0  0  0  0  0  0  0  0  0  0
   -2.8127   -3.2011   -0.9330 H   0  0  0  0  0  0  0  0  0  0  0  0
   -1.3298   -2.4472    0.4326 C   0  0  0  0  0  0  0  0  0  0  0  0
   -0.5528   -3.0302    1.1645 O   0  0  0  0  0  0  0  0  0  0  0  0
   -0.9916   -1.2351   -0.1389 N   0  0  0  0  0  0  0  0  0  0  0  0
   -1.6485   -0.8634   -0.8173 H   0  0  0  0  0  0  0  0  0  0  0  0
    0.3430   -0.6039   -0.0428 C   0  0  1  0  0  0  0  0  0  0  0  0
    1.0917   -1.2761   -0.4772 H   0  0  0  0  0  0  0  0  0  0  0  0
    0.2471    0.6955   -0.8866 C   0  0  0  0  0  0  0  0  0  0  0  0
   -0.4974    0.5654   -1.6787 H   0  0  0  0  0  0  0  0  0  0  0  0
   -0.1203    1.4952   -0.2353 H   0  0  0  0  0  0  0  0  0  0  0  0
    1.5348    1.1956   -1.5736 C   0  0  0  0  0  0  0  0  0  0  0  0
    1.5842    0.7256   -2.5612 H   0  0  0  0  0  0  0  0  0  0  0  0
    1.4645    2.2761   -1.7340 H   0  0  0  0  0  0  0  0  0  0  0  0
    3.1197    0.8111   -0.7335 S   0  0  0  0  0  0  0  0  0  0  0  0
    3.2068    2.1153    0.5572 C   0  0  0  0  0  0  0  0  0  0  0  0
    2.3182    2.0868    1.1935 H   0  0  0  0  0  0  0  0  0  0  0  0
    4.0881    1.9567    1.1859 H   0  0  0  0  0  0  0  0  0  0  0  0
    3.2771    3.1037    0.0948 H   0  0  0  0  0  0  0  0  0  0  0  0
    0.7458   -0.3206    1.4303 C   0  0  0  0  0  0  0  0  0  0  0  0
    1.8692   -0.5583    1.8515 O   0  0  0  0  0  0  0  0  0  0  0  0
   -0.1783    0.2442    2.2933 N   0  0  0  0  0  0  0  0  0  0  0  0
   -1.1381    0.2506    1.9664 H   0  0  0  0  0  0  0  0  0  0  0  0
    0.0720    0.3919    3.7220 C   0  0  0  0  0  0  0  0  0  0  0  0
    0.9594    1.0099    3.8949 H   0  0  0  0  0  0  0  0  0  0  0  0
   -0.7817    0.8730    4.2082 H   0  0  0  0  0  0  0  0  0  0  0  0
    0.2301   -0.5880    4.1849 H   0  0  0  0  0  0  0  0  0  0  0  0
  1  2  1  0  0  0  0
  2  3  1  0  0  0  0
  2  4  1  0  0  0  0
  2  5  1  0  0  0  0
  5  6  2  0  0  0  0
  5  7  1  0  0  0  0
  7  8  1  0  0  0  0
  7  9  1  0  0  0  0
  9 10  1  0  0  0  0
  9 11  1  0  0  0  0
  9 22  1  0  0  0  0
 11 12  1  0  0  0  0
 11 13  1  0  0  0  0
 11 14  1  0  0  0  0
 14 15  1  0  0  0  0
 14 16  1  0  0  0  0
 14 17  1  0  0  0  0
 17 18  1  0  0  0  0
 18 19  1  0  0  0  0
 18 20  1  0  0  0  0
 18 21  1  0  0  0  0
 22 23  2  0  0  0  0
 22 24  1  0  0  0  0
 24 25  1  0  0  0  0
 24 26  1  0  0  0  0
 26 27  1  0  0  0  0
 26 28  1  0  0  0  0
 26 29  1  0  0  0  0
M  END
$$$$

  -OEChem-04042216023D

 29 28  0     1  0  0  0  0  0999 V2000
   -2.8627   -4.0559    0.5793 H   0  0  0  0  0  0  0  0  0  0  0  0
   -2.7560   -3.0833    0.0901 C   0  0  0  0  0  0  0  0  0  0  0  0
   -3.5626   -2.4287    0.4285 H   0  0  0  0  0  0  0  0  0  0  0  0
   -2.8370   -3.2243   -0.9904 H   0  0  0  0  0  0  0  0  0  0  0  0
   -1.4113   -2.4718    0.4354 C   0  0  0  0  0  0  0  0  0  0  0  0
   -0.6674   -3.0495    1.2052 O   0  0  0  0  0  0  0  0  0  0  0  0
   -1.0491   -1.2629   -0.1272 N   0  0  0  0  0  0  0  0  0  0  0  0
   -1.6729   -0.9014   -0.8414 H   0  0  0  0  0  0  0  0  0  0  0  0
    0.2914   -0.6505   -0.0038 C   0  0  1  0  0  0  0  0  0  0  0  0
    1.0284   -1.3415   -0.4270 H   0  0  0  0  0  0  0  0  0  0  0  0
    0.2400    0.6571   -0.8376 C   0  0  0  0  0  0  0  0  0  0  0  0
   -0.4891    0.5411   -1.6460 H   0  0  0  0  0  0  0  0  0  0  0  0
   -0.1338    1.4576   -0.1907 H   0  0  0  0  0  0  0  0  0  0  0  0
    1.5478    1.1491   -1.4973 C   0  0  0  0  0  0  0  0  0  0  0  0
    1.4834    0.9233   -2.5666 H   0  0  0  0  0  0  0  0  0  0  0  0
    1.6128    2.2379   -1.4043 H   0  0  0  0  0  0  0  0  0  0  0  0
    3.1126    0.3967   -0.8978 S   0  0  0  0  0  0  0  0  0  0  0  0
    3.6476    1.5929    0.3896 C   0  0  0  0  0  0  0  0  0  0  0  0
    2.8551    1.7410    1.1286 H   0  0  0  0  0  0  0  0  0  0  0  0
    4.5352    1.2139    0.9046 H   0  0  0  0  0  0  0  0  0  0  0  0
    3.8897    2.5579   -0.0645 H   0  0  0  0  0  0  0  0  0  0  0  0
    0.6834   -0.3712    1.4726 C   0  0  0  0  0  0  0  0  0  0  0  0
    1.8110   -0.5876    1.8939 O   0  0  0  0  0  0  0  0  0  0  0  0
   -0.2416    0.2071    2.3254 N   0  0  0  0  0  0  0  0  0  0  0  0
   -1.2010    0.2072    1.9968 H   0  0  0  0  0  0  0  0  0  0  0  0
    0.0052    0.3742    3.7525 C   0  0  0  0  0  0  0  0  0  0  0  0
    0.8906    0.9969    3.9190 H   0  0  0  0  0  0  0  0  0  0  0  0
   -0.8508    0.8593    4.2310 H   0  0  0  0  0  0  0  0  0  0  0  0
    0.1653   -0.5989    4.2289 H   0  0  0  0  0  0  0  0  0  0  0  0
  1  2  1  0  0  0  0
  2  3  1  0  0  0  0
  2  4  1  0  0  0  0
  2  5  1  0  0  0  0
  5  6  2  0  0  0  0
  5  7  1  0  0  0  0
  7  8  1  0  0  0  0
  7  9  1  0  0  0  0
  9 10  1  0  0  0  0
  9 11  1  0  0  0  0
  9 22  1  0  0  0  0
 11 12  1  0  0  0  0
 11 13  1  0  0  0  0
 11 14  1  0  0  0  0
 14 15  1  0  0  0  0
 14 16  1  0  0  0  0
 14 17  1  0  0  0  0
 17 18  1  0  0  0  0
 18 19  1  0  0  0  0
 18 20  1  0  0  0  0
 18 21  1  0  0  0  0
 22 23  2  0  0  0  0
 22 24  1  0  0  0  0
 24 25  1  0  0  0  0
 24 26  1  0  0  0  0
 26 27  1  0  0  0  0
 26 28  1  0  0  0  0
 26 29  1  0  0  0  0
M  END
$$$$

  -OEChem-04042216023D

 29 28  0     1  0  0  0  0  0999 V2000
   -2.8011   -4.2690    0.5108 H   0  0  0  0  0  0  0  0  0  0  0  0
   -2.6913   -3.2882    0.0391 C   0  0  0  0  0  0  0  0  0  0  0  0
   -3.5654   -2.6804    0.2840 H   0  0  0  0  0  0  0  0  0  0  0  0
   -2.6403   -3.4242   -1.0437 H   0  0  0  0  0  0  0  0  0  0  0  0
   -1.4295   -2.6091    0.5373 C   0  0  0  0  0  0  0  0  0  0  0  0
   -0.7284   -3.1681    1.3596 O   0  0  0  0  0  0  0  0  0  0  0  0
   -1.0943   -1.3579    0.0568 N   0  0  0  0  0  0  0  0  0  0  0  0
   -1.6673   -1.0053   -0.7028 H   0  0  0  0  0  0  0  0  0  0  0  0
    0.1943   -0.6834    0.3213 C   0  0  1  0  0  0  0  0  0  0  0  0
    0.9839   -1.3364   -0.0623 H   0  0  0  0  0  0  0  0  0  0  0  0
    0.1735    0.6621   -0.4485 C   0  0  0  0  0  0  0  0  0  0  0  0
   -0.4519    0.5372   -1.3381 H   0  0  0  0  0  0  0  0  0  0  0  0
   -0.3154    1.4192    0.1736 H   0  0  0  0  0  0  0  0  0  0  0  0
    1.5209    1.2323   -0.9510 C   0  0  0  0  0  0  0  0  0  0  0  0
    1.4620    1.3698   -2.0353 H   0  0  0  0  0  0  0  0  0  0  0  0
    1.6579    2.2231   -0.5054 H   0  0  0  0  0  0  0  0  0  0  0  0
    3.0256    0.2411   -0.5814 S   0  0  0  0  0  0  0  0  0  0  0  0
    4.3543    1.3087   -1.2604 C   0  0  0  0  0  0  0  0  0  0  0  0
    4.2007    1.4720   -2.3309 H   0  0  0  0  0  0  0  0  0  0  0  0
    5.3278    0.8310   -1.1149 H   0  0  0  0  0  0  0  0  0  0  0  0
    4.3599    2.2766   -0.7506 H   0  0  0  0  0  0  0  0  0  0  0  0
    0.4723   -0.4400    1.8277 C   0  0  0  0  0  0  0  0  0  0  0  0
    1.6026   -0.5167    2.2887 O   0  0  0  0  0  0  0  0  0  0  0  0
   -0.5384    0.0559    2.6336 N   0  0  0  0  0  0  0  0  0  0  0  0
   -1.4784   -0.0300    2.2628 H   0  0  0  0  0  0  0  0  0  0  0  0
   -0.3692    0.2609    4.0669 C   0  0  0  0  0  0  0  0  0  0  0  0
    0.4278    0.9871    4.2586 H   0  0  0  0  0  0  0  0  0  0  0  0
   -1.2952    0.6421    4.5075 H   0  0  0  0  0  0  0  0  0  0  0  0
   -0.1118   -0.6827    4.5598 H   0  0  0  0  0  0  0  0  0  0  0  0
  1  2  1  0  0  0  0
  2  3  1  0  0  0  0
  2  4  1  0  0  0  0
  2  5  1  0  0  0  0
  5  6  2  0  0  0  0
  5  7  1  0  0  0  0
  7  8  1  0  0  0  0
  7  9  1  0  0  0  0
  9 10  1  0  0  0  0
  9 11  1  0  0  0  0
  9 22  1  0  0  0  0
 11 12  1  0  0  0  0
 11 13  1  0  0  0  0
 11 14  1  0  0  0  0
 14 15  1  0  0  0  0
 14 16  1  0  0  0  0
 14 17  1  0  0  0  0
 17 18  1  0  0  0  0
 18 19  1  0  0  0  0
 18 20  1  0  0  0  0
 18 21  1  0  0  0  0
 22 23  2  0  0  0  0
 22 24  1  0  0  0  0
 24 25  1  0  0  0  0
 24 26  1  0  0  0  0
 26 27  1  0  0  0  0
 26 28  1  0  0  0  0
 26 29  1  0  0  0  0
M  END
$$$$

  -OEChem-04042216023D

 29 28  0     1  0  0  0  0  0999 V2000
   -3.4840   -3.6381    1.2498 H   0  0  0  0  0  0  0  0  0  0  0  0
   -3.2084   -2.8291    0.5670 C   0  0  0  0  0  0  0  0  0  0  0  0
   -3.9559   -2.0359    0.6429 H   0  0  0  0  0  0  0  0  0  0  0  0
   -3.2000   -3.2189   -0.4538 H   0  0  0  0  0  0  0  0  0  0  0  0
   -1.8373   -2.2885    0.9269 C   0  0  0  0  0  0  0  0  0  0  0  0
   -1.2265   -2.7695    1.8631 O   0  0  0  0  0  0  0  0  0  0  0  0
   -1.3036   -1.2400    0.2029 N   0  0  0  0  0  0  0  0  0  0  0  0
   -1.8212   -0.9646   -0.6254 H   0  0  0  0  0  0  0  0  0  0  0  0
    0.0952   -0.7791    0.3263 C   0  0  1  0  0  0  0  0  0  0  0  0
    0.7227   -1.6417    0.0892 H   0  0  0  0  0  0  0  0  0  0  0  0
    0.3147    0.3663   -0.6937 C   0  0  0  0  0  0  0  0  0  0  0  0
   -0.3352    0.1691   -1.5521 H   0  0  0  0  0  0  0  0  0  0  0  0
   -0.0160    1.3155   -0.2590 H   0  0  0  0  0  0  0  0  0  0  0  0
    1.7343    0.5469   -1.2795 C   0  0  0  0  0  0  0  0  0  0  0  0
    1.6589    0.7797   -2.3463 H   0  0  0  0  0  0  0  0  0  0  0  0
    2.1819    1.4169   -0.7877 H   0  0  0  0  0  0  0  0  0  0  0  0
    2.9042   -0.8555   -1.0512 S   0  0  0  0  0  0  0  0  0  0  0  0
    4.4975   -0.0969   -1.5550 C   0  0  0  0  0  0  0  0  0  0  0  0
    4.4386    0.2638   -2.5861 H   0  0  0  0  0  0  0  0  0  0  0  0
    5.3014   -0.8359   -1.4867 H   0  0  0  0  0  0  0  0  0  0  0  0
    4.7399    0.7439   -0.8981 H   0  0  0  0  0  0  0  0  0  0  0  0
    0.4967   -0.2965    1.7417 C   0  0  0  0  0  0  0  0  0  0  0  0
    1.6412   -0.4389    2.1504 O   0  0  0  0  0  0  0  0  0  0  0  0
   -0.3587    0.5341    2.4449 N   0  0  0  0  0  0  0  0  0  0  0  0
   -1.3270    0.5229    2.1425 H   0  0  0  0  0  0  0  0  0  0  0  0
   -0.0519    1.0252    3.7826 C   0  0  0  0  0  0  0  0  0  0  0  0
    0.0387    0.1894    4.4844 H   0  0  0  0  0  0  0  0  0  0  0  0
   -0.8463    1.6907    4.1334 H   0  0  0  0  0  0  0  0  0  0  0  0
    0.8889    1.5859    3.7798 H   0  0  0  0  0  0  0  0  0  0  0  0
  1  2  1  0  0  0  0
  2  3  1  0  0  0  0
  2  4  1  0  0  0  0
  2  5  1  0  0  0  0
  5  6  2  0  0  0  0
  5  7  1  0  0  0  0
  7  8  1  0  0  0  0
  7  9  1  0  0  0  0
  9 10  1  0  0  0  0
  9 11  1  0  0  0  0
  9 22  1  0  0  0  0
 11 12  1  0  0  0  0
 11 13  1  0  0  0  0
 11 14  1  0  0  0  0
 14 15  1  0  0  0  0
 14 16  1  0  0  0  0
 14 17  1  0  0  0  0
 17 18  1  0  0  0  0
 18 19  1  0  0  0  0
 18 20  1  0  0  0  0
 18 21  1  0  0  0  0
 22 23  2  0  0  0  0
 22 24  1  0  0  0  0
 24 25  1  0  0  0  0
 24 26  1  0  0  0  0
 26 27  1  0  0  0  0
 26 28  1  0  0  0  0
 26 29  1  0  0  0  0
M  END
$$$$

  -OEChem-04042216023D

 29 28  0     1  0  0  0  0  0999 V2000
   -3.2949   -3.8507    0.7163 H   0  0  0  0  0  0  0  0  0  0  0  0
   -3.0753   -2.9626    0.1168 C   0  0  0  0  0  0  0  0  0  0  0  0
   -3.8535   -2.2171    0.2964 H   0  0  0  0  0  0  0  0  0  0  0  0
   -3.0826   -3.2417   -0.9396 H   0  0  0  0  0  0  0  0  0  0  0  0
   -1.7177   -2.4008    0.4951 C   0  0  0  0  0  0  0  0  0  0  0  0
   -1.0339   -2.9764    1.3214 O   0  0  0  0  0  0  0  0  0  0  0  0
   -1.2787   -1.2261   -0.0842 N   0  0  0  0  0  0  0  0  0  0  0  0
   -1.8489   -0.8689   -0.8442 H   0  0  0  0  0  0  0  0  0  0  0  0
    0.1025   -0.7155    0.0344 C   0  0  1  0  0  0  0  0  0  0  0  0
    0.7511   -1.5014   -0.3593 H   0  0  0  0  0  0  0  0  0  0  0  0
    0.2183    0.5778   -0.8102 C   0  0  0  0  0  0  0  0  0  0  0  0
   -0.4648    0.4782   -1.6595 H   0  0  0  0  0  0  0  0  0  0  0  0
   -0.1232    1.4385   -0.2258 H   0  0  0  0  0  0  0  0  0  0  0  0
    1.6005    0.8937   -1.4199 C   0  0  0  0  0  0  0  0  0  0  0  0
    1.4694    1.5069   -2.3172 H   0  0  0  0  0  0  0  0  0  0  0  0
    2.1528    1.4982   -0.6931 H   0  0  0  0  0  0  0  0  0  0  0  0
    2.6432   -0.5669   -1.8354 S   0  0  0  0  0  0  0  0  0  0  0  0
    4.1576   -0.2546   -0.8439 C   0  0  0  0  0  0  0  0  0  0  0  0
    3.9119   -0.2113    0.2215 H   0  0  0  0  0  0  0  0  0  0  0  0
    4.8814   -1.0594   -1.0008 H   0  0  0  0  0  0  0  0  0  0  0  0
    4.6170    0.6934   -1.1382 H   0  0  0  0  0  0  0  0  0  0  0  0
    0.5776   -0.4327    1.4793 C   0  0  0  0  0  0  0  0  0  0  0  0
    1.7591   -0.5554    1.7759 O   0  0  0  0  0  0  0  0  0  0  0  0
   -0.2595    0.2342    2.3562 N   0  0  0  0  0  0  0  0  0  0  0  0
   -1.2464    0.2112    2.1216 H   0  0  0  0  0  0  0  0  0  0  0  0
    0.1227    0.5324    3.7308 C   0  0  0  0  0  0  0  0  0  0  0  0
    0.9991    1.1887    3.7515 H   0  0  0  0  0  0  0  0  0  0  0  0
   -0.6970    1.0369    4.2509 H   0  0  0  0  0  0  0  0  0  0  0  0
    0.3611   -0.3906    4.2702 H   0  0  0  0  0  0  0  0  0  0  0  0
  1  2  1  0  0  0  0
  2  3  1  0  0  0  0
  2  4  1  0  0  0  0
  2  5  1  0  0  0  0
  5  6  2  0  0  0  0
  5  7  1  0  0  0  0
  7  8  1  0  0  0  0
  7  9  1  0  0  0  0
  9 10  1  0  0  0  0
  9 11  1  0  0  0  0
  9 22  1  0  0  0  0
 11 12  1  0  0  0  0
 11 13  1  0  0  0  0
 11 14  1  0  0  0  0
 14 15  1  0  0  0  0
 14 16  1  0  0  0  0
 14 17  1  0  0  0  0
 17 18  1  0  0  0  0
 18 19  1  0  0  0  0
 18 20  1  0  0  0  0
 18 21  1  0  0  0  0
 22 23  2  0  0  0  0
 22 24  1  0  0  0  0
 24 25  1  0  0  0  0
 24 26  1  0  0  0  0
 26 27  1  0  0  0  0
 26 28  1  0  0  0  0
 26 29  1  0  0  0  0
M  END
$$$$

  -OEChem-04042216023D

 29 28  0     1  0  0  0  0  0999 V2000
   -1.8927   -4.0730    0.0702 H   0  0  0  0  0  0  0  0  0  0  0  0
   -2.2549   -3.0477   -0.0484 C   0  0  0  0  0  0  0  0  0  0  0  0
   -3.0381   -2.8654    0.6912 H   0  0  0  0  0  0  0  0  0  0  0  0
   -2.6757   -2.9377   -1.0506 H   0  0  0  0  0  0  0  0  0  0  0  0
   -1.1149   -2.0658    0.1458 C   0  0  0  0  0  0  0  0  0  0  0  0
    0.0072   -2.4820    0.3562 O   0  0  0  0  0  0  0  0  0  0  0  0
   -1.3730   -0.7085    0.1199 N   0  0  0  0  0  0  0  0  0  0  0  0
   -2.3318   -0.4529   -0.0977 H   0  0  0  0  0  0  0  0  0  0  0  0
   -0.3695    0.3857    0.1223 C   0  0  1  0  0  0  0  0  0  0  0  0
   -0.9098    1.3284    0.2516 H   0  0  0  0  0  0  0  0  0  0  0  0
    0.2049    0.4392   -1.3398 C   0  0  0  0  0  0  0  0  0  0  0  0
    0.1393   -0.5786   -1.7356 H   0  0  0  0  0  0  0  0  0  0  0  0
   -0.4942    1.0435   -1.9260 H   0  0  0  0  0  0  0  0  0  0  0  0
    1.6313    0.8784   -1.7636 C   0  0  0  0  0  0  0  0  0  0  0  0
    1.7538    0.6164   -2.8191 H   0  0  0  0  0  0  0  0  0  0  0  0
    1.6576    1.9708   -1.6997 H   0  0  0  0  0  0  0  0  0  0  0  0
    3.1379    0.2884   -0.8814 S   0  0  0  0  0  0  0  0  0  0  0  0
    2.9303   -1.5255   -0.7204 C   0  0  0  0  0  0  0  0  0  0  0  0
    3.9091   -2.0103   -0.6664 H   0  0  0  0  0  0  0  0  0  0  0  0
    2.3816   -1.9313   -1.5745 H   0  0  0  0  0  0  0  0  0  0  0  0
    2.3861   -1.7544    0.1981 H   0  0  0  0  0  0  0  0  0  0  0  0
    0.5416    0.3648    1.3784 C   0  0  0  0  0  0  0  0  0  0  0  0
    1.5430    1.0579    1.4478 O   0  0  0  0  0  0  0  0  0  0  0  0
   -0.0879    0.1594    2.5957 N   0  0  0  0  0  0  0  0  0  0  0  0
   -0.9227   -0.4154    2.5590 H   0  0  0  0  0  0  0  0  0  0  0  0
    0.5823    0.3221    3.8820 C   0  0  0  0  0  0  0  0  0  0  0  0
    0.8521    1.3711    4.0441 H   0  0  0  0  0  0  0  0  0  0  0  0
   -0.0785    0.0068    4.6948 H   0  0  0  0  0  0  0  0  0  0  0  0
    1.4925   -0.2859    3.9196 H   0  0  0  0  0  0  0  0  0  0  0  0
  1  2  1  0  0  0  0
  2  3  1  0  0  0  0
  2  4  1  0  0  0  0
  2  5  1  0  0  0  0
  5  6  2  0  0  0  0
  5  7  1  0  0  0  0
  7  8  1  0  0  0  0
  7  9  1  0  0  0  0
  9 10  1  0  0  0  0
  9 11  1  0  0  0  0
  9 22  1  0  0  0  0
 11 12  1  0  0  0  0
 11 13  1  0  0  0  0
 11 14  1  0  0  0  0
 14 15  1  0  0  0  0
 14 16  1  0  0  0  0
 14 17  1  0  0  0  0
 17 18  1  0  0  0  0
 18 19  1  0  0  0  0
 18 20  1  0  0  0  0
 18 21  1  0  0  0  0
 22 23  2  0  0  0  0
 22 24  1  0  0  0  0
 24 25  1  0  0  0  0
 24 26  1  0  0  0  0
 26 27  1  0  0  0  0
 26 28  1  0  0  0  0
 26 29  1  0  0  0  0
M  END
$$$$

  -OEChem-04042216023D

 29 28  0     1  0  0  0  0  0999 V2000
   -1.9635   -4.0308    0.0145 H   0  0  0  0  0  0  0  0  0  0  0  0
   -2.3351   -3.0020    0.0280 C   0  0  0  0  0  0  0  0  0  0  0  0
   -3.0447   -2.8953    0.8519 H   0  0  0  0  0  0  0  0  0  0  0  0
   -2.8481   -2.8023   -0.9158 H   0  0  0  0  0  0  0  0  0  0  0  0
   -1.1819   -2.0332    0.2076 C   0  0  0  0  0  0  0  0  0  0  0  0
   -0.0588   -2.4604    0.3977 O   0  0  0  0  0  0  0  0  0  0  0  0
   -1.4260   -0.6730    0.1985 N   0  0  0  0  0  0  0  0  0  0  0  0
   -2.3813   -0.3965   -0.0082 H   0  0  0  0  0  0  0  0  0  0  0  0
   -0.3904    0.3867    0.1881 C   0  0  1  0  0  0  0  0  0  0  0  0
   -0.9068    1.3403    0.3339 H   0  0  0  0  0  0  0  0  0  0  0  0
    0.1590    0.4394   -1.2804 C   0  0  0  0  0  0  0  0  0  0  0  0
    0.0387   -0.5518   -1.7260 H   0  0  0  0  0  0  0  0  0  0  0  0
   -0.4982    1.1116   -1.8404 H   0  0  0  0  0  0  0  0  0  0  0  0
    1.6099    0.8480   -1.6108 C   0  0  0  0  0  0  0  0  0  0  0  0
    1.7380    0.8592   -2.6973 H   0  0  0  0  0  0  0  0  0  0  0  0
    1.7700    1.8697   -1.2510 H   0  0  0  0  0  0  0  0  0  0  0  0
    2.9254   -0.2186   -0.8800 S   0  0  0  0  0  0  0  0  0  0  0  0
    2.6984   -1.8245   -1.7395 C   0  0  0  0  0  0  0  0  0  0  0  0
    3.4568   -2.5371   -1.4026 H   0  0  0  0  0  0  0  0  0  0  0  0
    2.7950   -1.6927   -2.8207 H   0  0  0  0  0  0  0  0  0  0  0  0
    1.7122   -2.2412   -1.5209 H   0  0  0  0  0  0  0  0  0  0  0  0
    0.5661    0.3561    1.4109 C   0  0  0  0  0  0  0  0  0  0  0  0
    1.5683    1.0564    1.4358 O   0  0  0  0  0  0  0  0  0  0  0  0
   -0.0232    0.1705    2.6510 N   0  0  0  0  0  0  0  0  0  0  0  0
   -0.8506   -0.4163    2.6471 H   0  0  0  0  0  0  0  0  0  0  0  0
    0.7037    0.3211    3.9074 C   0  0  0  0  0  0  0  0  0  0  0  0
    1.0122    1.3619    4.0511 H   0  0  0  0  0  0  0  0  0  0  0  0
    0.0671    0.0318    4.7487 H   0  0  0  0  0  0  0  0  0  0  0  0
    1.5957   -0.3144    3.9122 H   0  0  0  0  0  0  0  0  0  0  0  0
  1  2  1  0  0  0  0
  2  3  1  0  0  0  0
  2  4  1  0  0  0  0
  2  5  1  0  0  0  0
  5  6  2  0  0  0  0
  5  7  1  0  0  0  0
  7  8  1  0  0  0  0
  7  9  1  0  0  0  0
  9 10  1  0  0  0  0
  9 11  1  0  0  0  0
  9 22  1  0  0  0  0
 11 12  1  0  0  0  0
 11 13  1  0  0  0  0
 11 14  1  0  0  0  0
 14 15  1  0  0  0  0
 14 16  1  0  0  0  0
 14 17  1  0  0  0  0
 17 18  1  0  0  0  0
 18 19  1  0  0  0  0
 18 20  1  0  0  0  0
 18 21  1  0  0  0  0
 22 23  2  0  0  0  0
 22 24  1  0  0  0  0
 24 25  1  0  0  0  0
 24 26  1  0  0  0  0
 26 27  1  0  0  0  0
 26 28  1  0  0  0  0
 26 29  1  0  0  0  0
M  END
$$$$

  -OEChem-04042216023D

 29 28  0     1  0  0  0  0  0999 V2000
   -3.1289   -3.9141    0.7940 H   0  0  0  0  0  0  0  0  0  0  0  0
   -3.0169   -2.9746    0.2451 C   0  0  0  0  0  0  0  0  0  0  0  0
   -3.7999   -2.2838    0.5668 H   0  0  0  0  0  0  0  0  0  0  0  0
   -3.1333   -3.1768   -0.8225 H   0  0  0  0  0  0  0  0  0  0  0  0
   -1.6502   -2.3734    0.5138 C   0  0  0  0  0  0  0  0  0  0  0  0
   -0.8702   -2.9462    1.2527 O   0  0  0  0  0  0  0  0  0  0  0  0
   -1.3056   -1.1703   -0.0699 N   0  0  0  0  0  0  0  0  0  0  0  0
   -1.9536   -0.8122   -0.7649 H   0  0  0  0  0  0  0  0  0  0  0  0
    0.0609   -0.6145   -0.0582 C   0  0  1  0  0  0  0  0  0  0  0  0
    0.7095   -1.3594   -0.5321 H   0  0  0  0  0  0  0  0  0  0  0  0
    0.0714    0.6722   -0.9086 C   0  0  0  0  0  0  0  0  0  0  0  0
   -0.6790    0.6101   -1.7033 H   0  0  0  0  0  0  0  0  0  0  0  0
   -0.1882    1.5296   -0.2789 H   0  0  0  0  0  0  0  0  0  0  0  0
    1.4383    0.9084   -1.5587 C   0  0  0  0  0  0  0  0  0  0  0  0
    1.4878    1.9347   -1.9359 H   0  0  0  0  0  0  0  0  0  0  0  0
    2.2409    0.7905   -0.8231 H   0  0  0  0  0  0  0  0  0  0  0  0
    1.6728   -0.2476   -2.9686 S   0  0  0  0  0  0  0  0  0  0  0  0
    3.2248   -1.0935   -2.4682 C   0  0  0  0  0  0  0  0  0  0  0  0
    3.0898   -1.5967   -1.5056 H   0  0  0  0  0  0  0  0  0  0  0  0
    3.5055   -1.8397   -3.2171 H   0  0  0  0  0  0  0  0  0  0  0  0
    4.0386   -0.3686   -2.3731 H   0  0  0  0  0  0  0  0  0  0  0  0
    0.6600   -0.3459    1.3413 C   0  0  0  0  0  0  0  0  0  0  0  0
    1.8684   -0.4476    1.5131 O   0  0  0  0  0  0  0  0  0  0  0  0
   -0.1061    0.2721    2.3128 N   0  0  0  0  0  0  0  0  0  0  0  0
   -1.1104    0.2326    2.1722 H   0  0  0  0  0  0  0  0  0  0  0  0
    0.4014    0.5530    3.6500 C   0  0  0  0  0  0  0  0  0  0  0  0
    1.2746    1.2121    3.5987 H   0  0  0  0  0  0  0  0  0  0  0  0
   -0.3676    1.0480    4.2508 H   0  0  0  0  0  0  0  0  0  0  0  0
    0.6910   -0.3764    4.1517 H   0  0  0  0  0  0  0  0  0  0  0  0
  1  2  1  0  0  0  0
  2  3  1  0  0  0  0
  2  4  1  0  0  0  0
  2  5  1  0  0  0  0
  5  6  2  0  0  0  0
  5  7  1  0  0  0  0
  7  8  1  0  0  0  0
  7  9  1  0  0  0  0
  9 10  1  0  0  0  0
  9 11  1  0  0  0  0
  9 22  1  0  0  0  0
 11 12  1  0  0  0  0
 11 13  1  0  0  0  0
 11 14  1  0  0  0  0
 14 15  1  0  0  0  0
 14 16  1  0  0  0  0
 14 17  1  0  0  0  0
 17 18  1  0  0  0  0
 18 19  1  0  0  0  0
 18 20  1  0  0  0  0
 18 21  1  0  0  0  0
 22 23  2  0  0  0  0
 22 24  1  0  0  0  0
 24 25  1  0  0  0  0
 24 26  1  0  0  0  0
 26 27  1  0  0  0  0
 26 28  1  0  0  0  0
 26 29  1  0  0  0  0
M  END
$$$$

  -OEChem-04042216023D

 29 28  0     1  0  0  0  0  0999 V2000
   -3.5478   -3.6740    1.1438 H   0  0  0  0  0  0  0  0  0  0  0  0
   -3.3125   -2.8368    0.4804 C   0  0  0  0  0  0  0  0  0  0  0  0
   -4.0233   -2.0285    0.6684 H   0  0  0  0  0  0  0  0  0  0  0  0
   -3.4140   -3.1705   -0.5551 H   0  0  0  0  0  0  0  0  0  0  0  0
   -1.8966   -2.3539    0.7324 C   0  0  0  0  0  0  0  0  0  0  0  0
   -1.1941   -2.9317    1.5416 O   0  0  0  0  0  0  0  0  0  0  0  0
   -1.4209   -1.2485    0.0549 N   0  0  0  0  0  0  0  0  0  0  0  0
   -2.0158   -0.8940   -0.6878 H   0  0  0  0  0  0  0  0  0  0  0  0
   -0.0062   -0.8291    0.0558 C   0  0  1  0  0  0  0  0  0  0  0  0
    0.5798   -1.6664   -0.3412 H   0  0  0  0  0  0  0  0  0  0  0  0
    0.1433    0.3748   -0.8953 C   0  0  0  0  0  0  0  0  0  0  0  0
   -0.6045    0.3324   -1.6939 H   0  0  0  0  0  0  0  0  0  0  0  0
   -0.0322    1.3001   -0.3368 H   0  0  0  0  0  0  0  0  0  0  0  0
    1.5386    0.4209   -1.5295 C   0  0  0  0  0  0  0  0  0  0  0  0
    1.8011    1.4600   -1.7520 H   0  0  0  0  0  0  0  0  0  0  0  0
    2.2969    0.0288   -0.8432 H   0  0  0  0  0  0  0  0  0  0  0  0
    1.5353   -0.5334   -3.0993 S   0  0  0  0  0  0  0  0  0  0  0  0
    3.3017   -0.4103   -3.5828 C   0  0  0  0  0  0  0  0  0  0  0  0
    3.9372   -0.8536   -2.8102 H   0  0  0  0  0  0  0  0  0  0  0  0
    3.4719   -0.9420   -4.5238 H   0  0  0  0  0  0  0  0  0  0  0  0
    3.5873    0.6375   -3.7151 H   0  0  0  0  0  0  0  0  0  0  0  0
    0.5801   -0.4957    1.4480 C   0  0  0  0  0  0  0  0  0  0  0  0
    1.7685   -0.6899    1.6705 O   0  0  0  0  0  0  0  0  0  0  0  0
   -0.1484    0.2774    2.3342 N   0  0  0  0  0  0  0  0  0  0  0  0
   -1.1481    0.3174    2.1640 H   0  0  0  0  0  0  0  0  0  0  0  0
    0.3483    0.6300    3.6584 C   0  0  0  0  0  0  0  0  0  0  0  0
    1.2629    1.2270    3.5786 H   0  0  0  0  0  0  0  0  0  0  0  0
   -0.3997    1.2172    4.1994 H   0  0  0  0  0  0  0  0  0  0  0  0
    0.5667   -0.2734    4.2377 H   0  0  0  0  0  0  0  0  0  0  0  0
  1  2  1  0  0  0  0
  2  3  1  0  0  0  0
  2  4  1  0  0  0  0
  2  5  1  0  0  0  0
  5  6  2  0  0  0  0
  5  7  1  0  0  0  0
  7  8  1  0  0  0  0
  7  9  1  0  0  0  0
  9 10  1  0  0  0  0
  9 11  1  0  0  0  0
  9 22  1  0  0  0  0
 11 12  1  0  0  0  0
 11 13  1  0  0  0  0
 11 14  1  0  0  0  0
 14 15  1  0  0  0  0
 14 16  1  0  0  0  0
 14 17  1  0  0  0  0
 17 18  1  0  0  0  0
 18 19  1  0  0  0  0
 18 20  1  0  0  0  0
 18 21  1  0  0  0  0
 22 23  2  0  0  0  0
 22 24  1  0  0  0  0
 24 25  1  0  0  0  0
 24 26  1  0  0  0  0
 26 27  1  0  0  0  0
 26 28  1  0  0  0  0
 26 29  1  0  0  0  0
M  END
$$$$

  -OEChem-04042216023D

 29 28  0     1  0  0  0  0  0999 V2000
   -2.6709   -4.0737    0.5746 H   0  0  0  0  0  0  0  0  0  0  0  0
   -2.6444   -3.0873    0.1026 C   0  0  0  0  0  0  0  0  0  0  0  0
   -3.4495   -2.4769    0.5187 H   0  0  0  0  0  0  0  0  0  0  0  0
   -2.8045   -3.2083   -0.9715 H   0  0  0  0  0  0  0  0  0  0  0  0
   -1.3044   -2.4232    0.3570 C   0  0  0  0  0  0  0  0  0  0  0  0
   -0.4660   -2.9850    1.0377 O   0  0  0  0  0  0  0  0  0  0  0  0
   -1.0426   -1.1795   -0.1824 N   0  0  0  0  0  0  0  0  0  0  0  0
   -1.7423   -0.8017   -0.8142 H   0  0  0  0  0  0  0  0  0  0  0  0
    0.2641   -0.5003   -0.1016 C   0  0  1  0  0  0  0  0  0  0  0  0
    1.0001   -1.1681   -0.5618 H   0  0  0  0  0  0  0  0  0  0  0  0
    0.1894    0.8007   -0.9238 C   0  0  0  0  0  0  0  0  0  0  0  0
   -0.5325    0.6950   -1.7400 H   0  0  0  0  0  0  0  0  0  0  0  0
   -0.1696    1.6126   -0.2825 H   0  0  0  0  0  0  0  0  0  0  0  0
    1.5527    1.1885   -1.5173 C   0  0  0  0  0  0  0  0  0  0  0  0
    1.7046    2.2636   -1.3782 H   0  0  0  0  0  0  0  0  0  0  0  0
    2.3743    0.6781   -1.0027 H   0  0  0  0  0  0  0  0  0  0  0  0
    1.6084    0.8293   -3.3211 S   0  0  0  0  0  0  0  0  0  0  0  0
    1.6855   -1.0055   -3.3705 C   0  0  0  0  0  0  0  0  0  0  0  0
    0.7623   -1.4379   -2.9749 H   0  0  0  0  0  0  0  0  0  0  0  0
    1.8159   -1.3473   -4.4016 H   0  0  0  0  0  0  0  0  0  0  0  0
    2.5291   -1.3662   -2.7741 H   0  0  0  0  0  0  0  0  0  0  0  0
    0.7736   -0.2157    1.3298 C   0  0  0  0  0  0  0  0  0  0  0  0
    1.9769   -0.2121    1.5539 O   0  0  0  0  0  0  0  0  0  0  0  0
   -0.0881    0.3021    2.2799 N   0  0  0  0  0  0  0  0  0  0  0  0
   -1.0784    0.1898    2.0903 H   0  0  0  0  0  0  0  0  0  0  0  0
    0.3335    0.6053    3.6417 C   0  0  0  0  0  0  0  0  0  0  0  0
    1.1393    1.3470    3.6382 H   0  0  0  0  0  0  0  0  0  0  0  0
   -0.5046    1.0115    4.2161 H   0  0  0  0  0  0  0  0  0  0  0  0
    0.6913   -0.3014    4.1411 H   0  0  0  0  0  0  0  0  0  0  0  0
  1  2  1  0  0  0  0
  2  3  1  0  0  0  0
  2  4  1  0  0  0  0
  2  5  1  0  0  0  0
  5  6  2  0  0  0  0
  5  7  1  0  0  0  0
  7  8  1  0  0  0  0
  7  9  1  0  0  0  0
  9 10  1  0  0  0  0
  9 11  1  0  0  0  0
  9 22  1  0  0  0  0
 11 12  1  0  0  0  0
 11 13  1  0  0  0  0
 11 14  1  0  0  0  0
 14 15  1  0  0  0  0
 14 16  1  0  0  0  0
 14 17  1  0  0  0  0
 17 18  1  0  0  0  0
 18 19  1  0  0  0  0
 18 20  1  0  0  0  0
 18 21  1  0  0  0  0
 22 23  2  0  0  0  0
 22 24  1  0  0  0  0
 24 25  1  0  0  0  0
 24 26  1  0  0  0  0
 26 27  1  0  0  0  0
 26 28  1  0  0  0  0
 26 29  1  0  0  0  0
M  END
$$$$

  -OEChem-04042216023D

 29 28  0     1  0  0  0  0  0999 V2000
   -2.6943   -4.0702    0.5969 H   0  0  0  0  0  0  0  0  0  0  0  0
   -2.6689   -3.0866    0.1189 C   0  0  0  0  0  0  0  0  0  0  0  0
   -3.4676   -2.4711    0.5395 H   0  0  0  0  0  0  0  0  0  0  0  0
   -2.8397   -3.2130   -0.9530 H   0  0  0  0  0  0  0  0  0  0  0  0
   -1.3237   -2.4268    0.3565 C   0  0  0  0  0  0  0  0  0  0  0  0
   -0.4780   -2.9936    1.0237 O   0  0  0  0  0  0  0  0  0  0  0  0
   -1.0657   -1.1807   -0.1796 N   0  0  0  0  0  0  0  0  0  0  0  0
   -1.7780   -0.7894   -0.7886 H   0  0  0  0  0  0  0  0  0  0  0  0
    0.2423   -0.5026   -0.1056 C   0  0  1  0  0  0  0  0  0  0  0  0
    0.9684   -1.1752   -0.5761 H   0  0  0  0  0  0  0  0  0  0  0  0
    0.1696    0.8000   -0.9242 C   0  0  0  0  0  0  0  0  0  0  0  0
   -0.5516    0.6815   -1.7389 H   0  0  0  0  0  0  0  0  0  0  0  0
   -0.1959    1.6164   -0.2924 H   0  0  0  0  0  0  0  0  0  0  0  0
    1.5339    1.1845   -1.5218 C   0  0  0  0  0  0  0  0  0  0  0  0
    1.8230    2.1704   -1.1436 H   0  0  0  0  0  0  0  0  0  0  0  0
    2.3191    0.4834   -1.2190 H   0  0  0  0  0  0  0  0  0  0  0  0
    1.4411    1.2553   -3.3566 S   0  0  0  0  0  0  0  0  0  0  0  0
    1.3872   -0.5281   -3.7942 C   0  0  0  0  0  0  0  0  0  0  0  0
    0.5032   -1.0030   -3.3594 H   0  0  0  0  0  0  0  0  0  0  0  0
    1.3484   -0.6458   -4.8812 H   0  0  0  0  0  0  0  0  0  0  0  0
    2.2804   -1.0368   -3.4191 H   0  0  0  0  0  0  0  0  0  0  0  0
    0.7680   -0.2221    1.3201 C   0  0  0  0  0  0  0  0  0  0  0  0
    1.9740   -0.2156    1.5283 O   0  0  0  0  0  0  0  0  0  0  0  0
   -0.0834    0.2939    2.2804 N   0  0  0  0  0  0  0  0  0  0  0  0
   -1.0761    0.1891    2.0990 H   0  0  0  0  0  0  0  0  0  0  0  0
    0.3526    0.5997    3.6371 C   0  0  0  0  0  0  0  0  0  0  0  0
    1.1550    1.3448    3.6238 H   0  0  0  0  0  0  0  0  0  0  0  0
   -0.4807    1.0024    4.2206 H   0  0  0  0  0  0  0  0  0  0  0  0
    0.7199   -0.3049    4.1333 H   0  0  0  0  0  0  0  0  0  0  0  0
  1  2  1  0  0  0  0
  2  3  1  0  0  0  0
  2  4  1  0  0  0  0
  2  5  1  0  0  0  0
  5  6  2  0  0  0  0
  5  7  1  0  0  0  0
  7  8  1  0  0  0  0
  7  9  1  0  0  0  0
  9 10  1  0  0  0  0
  9 11  1  0  0  0  0
  9 22  1  0  0  0  0
 11 12  1  0  0  0  0
 11 13  1  0  0  0  0
 11 14  1  0  0  0  0
 14 15  1  0  0  0  0
 14 16  1  0  0  0  0
 14 17  1  0  0  0  0
 17 18  1  0  0  0  0
 18 19  1  0  0  0  0
 18 20  1  0  0  0  0
 18 21  1  0  0  0  0
 22 23  2  0  0  0  0
 22 24  1  0  0  0  0
 24 25  1  0  0  0  0
 24 26  1  0  0  0  0
 26 27  1  0  0  0  0
 26 28  1  0  0  0  0
 26 29  1  0  0  0  0
M  END
$$$$

  -OEChem-04042216023D

 29 28  0     1  0  0  0  0  0999 V2000
   -2.7164   -4.0810    0.6271 H   0  0  0  0  0  0  0  0  0  0  0  0
   -2.6947   -3.0992    0.1451 C   0  0  0  0  0  0  0  0  0  0  0  0
   -3.4946   -2.4841    0.5643 H   0  0  0  0  0  0  0  0  0  0  0  0
   -2.8671   -3.2312   -0.9258 H   0  0  0  0  0  0  0  0  0  0  0  0
   -1.3507   -2.4344    0.3769 C   0  0  0  0  0  0  0  0  0  0  0  0
   -0.4968   -3.0020    1.0329 O   0  0  0  0  0  0  0  0  0  0  0  0
   -1.0999   -1.1862   -0.1578 N   0  0  0  0  0  0  0  0  0  0  0  0
   -1.8200   -0.7927   -0.7562 H   0  0  0  0  0  0  0  0  0  0  0  0
    0.2089   -0.5081   -0.0976 C   0  0  1  0  0  0  0  0  0  0  0  0
    0.9262   -1.1831   -0.5779 H   0  0  0  0  0  0  0  0  0  0  0  0
    0.1306    0.7978   -0.9109 C   0  0  0  0  0  0  0  0  0  0  0  0
   -0.5879    0.6609   -1.7248 H   0  0  0  0  0  0  0  0  0  0  0  0
   -0.2435    1.6172   -0.2881 H   0  0  0  0  0  0  0  0  0  0  0  0
    1.4877    1.1855   -1.5228 C   0  0  0  0  0  0  0  0  0  0  0  0
    1.9214    2.0083   -0.9447 H   0  0  0  0  0  0  0  0  0  0  0  0
    2.1986    0.3538   -1.4796 H   0  0  0  0  0  0  0  0  0  0  0  0
    1.2818    1.6999   -3.2760 S   0  0  0  0  0  0  0  0  0  0  0  0
    1.1472    0.0770   -4.1265 C   0  0  0  0  0  0  0  0  0  0  0  0
    0.2851   -0.4818   -3.7520 H   0  0  0  0  0  0  0  0  0  0  0  0
    1.0262    0.2276   -5.2033 H   0  0  0  0  0  0  0  0  0  0  0  0
    2.0511   -0.5155   -3.9559 H   0  0  0  0  0  0  0  0  0  0  0  0
    0.7588   -0.2294    1.3190 C   0  0  0  0  0  0  0  0  0  0  0  0
    1.9689   -0.2184    1.5023 O   0  0  0  0  0  0  0  0  0  0  0  0
   -0.0739    0.2853    2.2963 N   0  0  0  0  0  0  0  0  0  0  0  0
   -1.0704    0.1810    2.1359 H   0  0  0  0  0  0  0  0  0  0  0  0
    0.3916    0.6047    3.6402 C   0  0  0  0  0  0  0  0  0  0  0  0
    1.1916    1.3516    3.6021 H   0  0  0  0  0  0  0  0  0  0  0  0
   -0.4289    1.0112    4.2388 H   0  0  0  0  0  0  0  0  0  0  0  0
    0.7728   -0.2940    4.1363 H   0  0  0  0  0  0  0  0  0  0  0  0
  1  2  1  0  0  0  0
  2  3  1  0  0  0  0
  2  4  1  0  0  0  0
  2  5  1  0  0  0  0
  5  6  2  0  0  0  0
  5  7  1  0  0  0  0
  7  8  1  0  0  0  0
  7  9  1  0  0  0  0
  9 10  1  0  0  0  0
  9 11  1  0  0  0  0
  9 22  1  0  0  0  0
 11 12  1  0  0  0  0
 11 13  1  0  0  0  0
 11 14  1  0  0  0  0
 14 15  1  0  0  0  0
 14 16  1  0  0  0  0
 14 17  1  0  0  0  0
 17 18  1  0  0  0  0
 18 19  1  0  0  0  0
 18 20  1  0  0  0  0
 18 21  1  0  0  0  0
 22 23  2  0  0  0  0
 22 24  1  0  0  0  0
 24 25  1  0  0  0  0
 24 26  1  0  0  0  0
 26 27  1  0  0  0  0
 26 28  1  0  0  0  0
 26 29  1  0  0  0  0
M  END
$$$$

  -OEChem-04042216023D

 29 28  0     1  0  0  0  0  0999 V2000
   -2.7060   -4.0920    0.6604 H   0  0  0  0  0  0  0  0  0  0  0  0
   -2.6904   -3.1124    0.1740 C   0  0  0  0  0  0  0  0  0  0  0  0
   -3.4896   -2.4981    0.5953 H   0  0  0  0  0  0  0  0  0  0  0  0
   -2.8691   -3.2494   -0.8951 H   0  0  0  0  0  0  0  0  0  0  0  0
   -1.3468   -2.4429    0.3943 C   0  0  0  0  0  0  0  0  0  0  0  0
   -0.4860   -3.0068    1.0444 O   0  0  0  0  0  0  0  0  0  0  0  0
   -1.1048   -1.1942   -0.1433 N   0  0  0  0  0  0  0  0  0  0  0  0
   -1.8316   -0.8027   -0.7348 H   0  0  0  0  0  0  0  0  0  0  0  0
    0.2018   -0.5108   -0.0927 C   0  0  1  0  0  0  0  0  0  0  0  0
    0.9208   -1.1807   -0.5774 H   0  0  0  0  0  0  0  0  0  0  0  0
    0.1108    0.7968   -0.9015 C   0  0  0  0  0  0  0  0  0  0  0  0
   -0.6057    0.6514   -1.7153 H   0  0  0  0  0  0  0  0  0  0  0  0
   -0.2661    1.6159   -0.2799 H   0  0  0  0  0  0  0  0  0  0  0  0
    1.4609    1.1863   -1.5209 C   0  0  0  0  0  0  0  0  0  0  0  0
    2.0250    1.7997   -0.8097 H   0  0  0  0  0  0  0  0  0  0  0  0
    2.0654    0.3001   -1.7392 H   0  0  0  0  0  0  0  0  0  0  0  0
    1.1956    2.1139   -3.0860 S   0  0  0  0  0  0  0  0  0  0  0  0
    0.9066    0.7629   -4.2970 C   0  0  0  0  0  0  0  0  0  0  0  0
    0.0280    0.1759   -4.0155 H   0  0  0  0  0  0  0  0  0  0  0  0
    0.7409    1.1837   -5.2932 H   0  0  0  0  0  0  0  0  0  0  0  0
    1.7755    0.0991   -4.3383 H   0  0  0  0  0  0  0  0  0  0  0  0
    0.7577   -0.2301    1.3210 C   0  0  0  0  0  0  0  0  0  0  0  0
    1.9684   -0.2181    1.5002 O   0  0  0  0  0  0  0  0  0  0  0  0
   -0.0727    0.2812    2.3020 N   0  0  0  0  0  0  0  0  0  0  0  0
   -1.0694    0.1758    2.1444 H   0  0  0  0  0  0  0  0  0  0  0  0
    0.3963    0.5991    3.6449 C   0  0  0  0  0  0  0  0  0  0  0  0
    1.1901    1.3527    3.6064 H   0  0  0  0  0  0  0  0  0  0  0  0
   -0.4254    0.9962    4.2485 H   0  0  0  0  0  0  0  0  0  0  0  0
    0.7864   -0.2988    4.1355 H   0  0  0  0  0  0  0  0  0  0  0  0
  1  2  1  0  0  0  0
  2  3  1  0  0  0  0
  2  4  1  0  0  0  0
  2  5  1  0  0  0  0
  5  6  2  0  0  0  0
  5  7  1  0  0  0  0
  7  8  1  0  0  0  0
  7  9  1  0  0  0  0
  9 10  1  0  0  0  0
  9 11  1  0  0  0  0
  9 22  1  0  0  0  0
 11 12  1  0  0  0  0
 11 13  1  0  0  0  0
 11 14  1  0  0  0  0
 14 15  1  0  0  0  0
 14 16  1  0  0  0  0
 14 17  1  0  0  0  0
 17 18  1  0  0  0  0
 18 19  1  0  0  0  0
 18 20  1  0  0  0  0
 18 21  1  0  0  0  0
 22 23  2  0  0  0  0
 22 24  1  0  0  0  0
 24 25  1  0  0  0  0
 24 26  1  0  0  0  0
 26 27  1  0  0  0  0
 26 28  1  0  0  0  0
 26 29  1  0  0  0  0
M  END
$$$$

  -OEChem-04042216023D

 29 28  0     1  0  0  0  0  0999 V2000
   -2.6840   -4.1040    0.6618 H   0  0  0  0  0  0  0  0  0  0  0  0
   -2.6712   -3.1253    0.1736 C   0  0  0  0  0  0  0  0  0  0  0  0
   -3.4729   -2.5131    0.5933 H   0  0  0  0  0  0  0  0  0  0  0  0
   -2.8478   -3.2641   -0.8957 H   0  0  0  0  0  0  0  0  0  0  0  0
   -1.3308   -2.4505    0.3949 C   0  0  0  0  0  0  0  0  0  0  0  0
   -0.4680   -3.0111    1.0451 O   0  0  0  0  0  0  0  0  0  0  0  0
   -1.0949   -1.2003   -0.1418 N   0  0  0  0  0  0  0  0  0  0  0  0
   -1.8237   -0.8119   -0.7327 H   0  0  0  0  0  0  0  0  0  0  0  0
    0.2079   -0.5100   -0.0900 C   0  0  1  0  0  0  0  0  0  0  0  0
    0.9338   -1.1721   -0.5753 H   0  0  0  0  0  0  0  0  0  0  0  0
    0.1062    0.7962   -0.8992 C   0  0  0  0  0  0  0  0  0  0  0  0
   -0.6092    0.6529   -1.7143 H   0  0  0  0  0  0  0  0  0  0  0  0
   -0.2694    1.6122   -0.2727 H   0  0  0  0  0  0  0  0  0  0  0  0
    1.4548    1.1868   -1.5150 C   0  0  0  0  0  0  0  0  0  0  0  0
    2.1167    1.5749   -0.7328 H   0  0  0  0  0  0  0  0  0  0  0  0
    1.9453    0.3169   -1.9633 H   0  0  0  0  0  0  0  0  0  0  0  0
    1.2028    2.4672   -2.8091 S   0  0  0  0  0  0  0  0  0  0  0  0
    0.6940    1.4695   -4.2654 C   0  0  0  0  0  0  0  0  0  0  0  0
   -0.2340    0.9301   -4.0567 H   0  0  0  0  0  0  0  0  0  0  0  0
    0.5307    2.1239   -5.1268 H   0  0  0  0  0  0  0  0  0  0  0  0
    1.4737    0.7453   -4.5197 H   0  0  0  0  0  0  0  0  0  0  0  0
    0.7587   -0.2285    1.3260 C   0  0  0  0  0  0  0  0  0  0  0  0
    1.9684   -0.2231    1.5122 O   0  0  0  0  0  0  0  0  0  0  0  0
   -0.0755    0.2771    2.3067 N   0  0  0  0  0  0  0  0  0  0  0  0
   -1.0720    0.1784    2.1436 H   0  0  0  0  0  0  0  0  0  0  0  0
    0.3893    0.5959    3.6508 C   0  0  0  0  0  0  0  0  0  0  0  0
    1.1768    1.3562    3.6137 H   0  0  0  0  0  0  0  0  0  0  0  0
   -0.4358    0.9849    4.2548 H   0  0  0  0  0  0  0  0  0  0  0  0
    0.7870   -0.2996    4.1401 H   0  0  0  0  0  0  0  0  0  0  0  0
  1  2  1  0  0  0  0
  2  3  1  0  0  0  0
  2  4  1  0  0  0  0
  2  5  1  0  0  0  0
  5  6  2  0  0  0  0
  5  7  1  0  0  0  0
  7  8  1  0  0  0  0
  7  9  1  0  0  0  0
  9 10  1  0  0  0  0
  9 11  1  0  0  0  0
  9 22  1  0  0  0  0
 11 12  1  0  0  0  0
 11 13  1  0  0  0  0
 11 14  1  0  0  0  0
 14 15  1  0  0  0  0
 14 16  1  0  0  0  0
 14 17  1  0  0  0  0
 17 18  1  0  0  0  0
 18 19  1  0  0  0  0
 18 20  1  0  0  0  0
 18 21  1  0  0  0  0
 22 23  2  0  0  0  0
 22 24  1  0  0  0  0
 24 25  1  0  0  0  0
 24 26  1  0  0  0  0
 26 27  1  0  0  0  0
 26 28  1  0  0  0  0
 26 29  1  0  0  0  0
M  END
$$$$

  -OEChem-04042216023D

 29 28  0     1  0  0  0  0  0999 V2000
   -2.6580   -4.1260    0.6207 H   0  0  0  0  0  0  0  0  0  0  0  0
   -2.6476   -3.1427    0.1416 C   0  0  0  0  0  0  0  0  0  0  0  0
   -3.4595   -2.5410    0.5567 H   0  0  0  0  0  0  0  0  0  0  0  0
   -2.8099   -3.2738   -0.9309 H   0  0  0  0  0  0  0  0  0  0  0  0
   -1.3156   -2.4580    0.3844 C   0  0  0  0  0  0  0  0  0  0  0  0
   -0.4566   -3.0153    1.0423 O   0  0  0  0  0  0  0  0  0  0  0  0
   -1.0806   -1.2055   -0.1477 N   0  0  0  0  0  0  0  0  0  0  0  0
   -1.8066   -0.8198   -0.7435 H   0  0  0  0  0  0  0  0  0  0  0  0
    0.2195   -0.5099   -0.0834 C   0  0  1  0  0  0  0  0  0  0  0  0
    0.9520   -1.1747   -0.5555 H   0  0  0  0  0  0  0  0  0  0  0  0
    0.1340    0.7965   -0.8993 C   0  0  0  0  0  0  0  0  0  0  0  0
   -0.7490    0.7769   -1.5441 H   0  0  0  0  0  0  0  0  0  0  0  0
    0.0300    1.6579   -0.2305 H   0  0  0  0  0  0  0  0  0  0  0  0
    1.3719    0.9772   -1.7821 C   0  0  0  0  0  0  0  0  0  0  0  0
    2.2668    1.0165   -1.1505 H   0  0  0  0  0  0  0  0  0  0  0  0
    1.4822    0.1313   -2.4681 H   0  0  0  0  0  0  0  0  0  0  0  0
    1.2433    2.5396   -2.7417 S   0  0  0  0  0  0  0  0  0  0  0  0
    0.0295    2.1192   -4.0546 C   0  0  0  0  0  0  0  0  0  0  0  0
   -0.9481    1.8989   -3.6176 H   0  0  0  0  0  0  0  0  0  0  0  0
   -0.0803    2.9615   -4.7442 H   0  0  0  0  0  0  0  0  0  0  0  0
    0.3697    1.2466   -4.6201 H   0  0  0  0  0  0  0  0  0  0  0  0
    0.7593   -0.2283    1.3369 C   0  0  0  0  0  0  0  0  0  0  0  0
    1.9678   -0.2130    1.5291 O   0  0  0  0  0  0  0  0  0  0  0  0
   -0.0839    0.2726    2.3123 N   0  0  0  0  0  0  0  0  0  0  0  0
   -1.0789    0.1703    2.1430 H   0  0  0  0  0  0  0  0  0  0  0  0
    0.3713    0.6076    3.6557 C   0  0  0  0  0  0  0  0  0  0  0  0
    1.1525    1.3743    3.6164 H   0  0  0  0  0  0  0  0  0  0  0  0
   -0.4605    0.9953    4.2514 H   0  0  0  0  0  0  0  0  0  0  0  0
    0.7735   -0.2801    4.1551 H   0  0  0  0  0  0  0  0  0  0  0  0
  1  2  1  0  0  0  0
  2  3  1  0  0  0  0
  2  4  1  0  0  0  0
  2  5  1  0  0  0  0
  5  6  2  0  0  0  0
  5  7  1  0  0  0  0
  7  8  1  0  0  0  0
  7  9  1  0  0  0  0
  9 10  1  0  0  0  0
  9 11  1  0  0  0  0
  9 22  1  0  0  0  0
 11 12  1  0  0  0  0
 11 13  1  0  0  0  0
 11 14  1  0  0  0  0
 14 15  1  0  0  0  0
 14 16  1  0  0  0  0
 14 17  1  0  0  0  0
 17 18  1  0  0  0  0
 18 19  1  0  0  0  0
 18 20  1  0  0  0  0
 18 21  1  0  0  0  0
 22 23  2  0  0  0  0
 22 24  1  0  0  0  0
 24 25  1  0  0  0  0
 24 26  1  0  0  0  0
 26 27  1  0  0  0  0
 26 28  1  0  0  0  0
 26 29  1  0  0  0  0
M  END
$$$$

  -OEChem-04042216023D

 29 28  0     1  0  0  0  0  0999 V2000
   -2.6516   -4.1175    0.6268 H   0  0  0  0  0  0  0  0  0  0  0  0
   -2.6382   -3.1351    0.1458 C   0  0  0  0  0  0  0  0  0  0  0  0
   -3.4384   -2.5248    0.5710 H   0  0  0  0  0  0  0  0  0  0  0  0
   -2.8167   -3.2664   -0.9242 H   0  0  0  0  0  0  0  0  0  0  0  0
   -1.2970   -2.4630    0.3711 C   0  0  0  0  0  0  0  0  0  0  0  0
   -0.4442   -3.0176    1.0391 O   0  0  0  0  0  0  0  0  0  0  0  0
   -1.0527   -1.2182   -0.1745 N   0  0  0  0  0  0  0  0  0  0  0  0
   -1.7730   -0.8355   -0.7790 H   0  0  0  0  0  0  0  0  0  0  0  0
    0.2464   -0.5217   -0.0994 C   0  0  1  0  0  0  0  0  0  0  0  0
    0.9868   -1.1919   -0.5518 H   0  0  0  0  0  0  0  0  0  0  0  0
    0.1709    0.7726   -0.9360 C   0  0  0  0  0  0  0  0  0  0  0  0
   -0.7047    0.7556   -1.5911 H   0  0  0  0  0  0  0  0  0  0  0  0
    0.0650    1.6367   -0.2708 H   0  0  0  0  0  0  0  0  0  0  0  0
    1.4210    0.9457   -1.8044 C   0  0  0  0  0  0  0  0  0  0  0  0
    2.3150    0.7504   -1.2012 H   0  0  0  0  0  0  0  0  0  0  0  0
    1.4135    0.2324   -2.6348 H   0  0  0  0  0  0  0  0  0  0  0  0
    1.5233    2.6676   -2.4408 S   0  0  0  0  0  0  0  0  0  0  0  0
    0.1261    2.7555   -3.6300 C   0  0  0  0  0  0  0  0  0  0  0  0
   -0.8288    2.6478   -3.1082 H   0  0  0  0  0  0  0  0  0  0  0  0
    0.1342    3.7214   -4.1438 H   0  0  0  0  0  0  0  0  0  0  0  0
    0.2137    1.9612   -4.3773 H   0  0  0  0  0  0  0  0  0  0  0  0
    0.7601   -0.2222    1.3271 C   0  0  0  0  0  0  0  0  0  0  0  0
    1.9640   -0.2169    1.5461 O   0  0  0  0  0  0  0  0  0  0  0  0
   -0.1015    0.2908    2.2799 N   0  0  0  0  0  0  0  0  0  0  0  0
   -1.0926    0.1887    2.0902 H   0  0  0  0  0  0  0  0  0  0  0  0
    0.3248    0.6229    3.6334 C   0  0  0  0  0  0  0  0  0  0  0  0
    1.1218    1.3740    3.6122 H   0  0  0  0  0  0  0  0  0  0  0  0
   -0.5147    1.0295    4.2052 H   0  0  0  0  0  0  0  0  0  0  0  0
    0.6961   -0.2702    4.1469 H   0  0  0  0  0  0  0  0  0  0  0  0
  1  2  1  0  0  0  0
  2  3  1  0  0  0  0
  2  4  1  0  0  0  0
  2  5  1  0  0  0  0
  5  6  2  0  0  0  0
  5  7  1  0  0  0  0
  7  8  1  0  0  0  0
  7  9  1  0  0  0  0
  9 10  1  0  0  0  0
  9 11  1  0  0  0  0
  9 22  1  0  0  0  0
 11 12  1  0  0  0  0
 11 13  1  0  0  0  0
 11 14  1  0  0  0  0
 14 15  1  0  0  0  0
 14 16  1  0  0  0  0
 14 17  1  0  0  0  0
 17 18  1  0  0  0  0
 18 19  1  0  0  0  0
 18 20  1  0  0  0  0
 18 21  1  0  0  0  0
 22 23  2  0  0  0  0
 22 24  1  0  0  0  0
 24 25  1  0  0  0  0
 24 26  1  0  0  0  0
 26 27  1  0  0  0  0
 26 28  1  0  0  0  0
 26 29  1  0  0  0  0
M  END
$$$$

  -OEChem-04042216023D

 29 28  0     1  0  0  0  0  0999 V2000
   -2.6602   -4.1113    0.6119 H   0  0  0  0  0  0  0  0  0  0  0  0
   -2.6413   -3.1299    0.1294 C   0  0  0  0  0  0  0  0  0  0  0  0
   -3.4482   -2.5198    0.5421 H   0  0  0  0  0  0  0  0  0  0  0  0
   -2.8045   -3.2638   -0.9426 H   0  0  0  0  0  0  0  0  0  0  0  0
   -1.3038   -2.4561    0.3719 C   0  0  0  0  0  0  0  0  0  0  0  0
   -0.4614   -3.0076    1.0556 O   0  0  0  0  0  0  0  0  0  0  0  0
   -1.0494   -1.2161   -0.1805 N   0  0  0  0  0  0  0  0  0  0  0  0
   -1.7613   -0.8376   -0.7972 H   0  0  0  0  0  0  0  0  0  0  0  0
    0.2526   -0.5251   -0.1023 C   0  0  1  0  0  0  0  0  0  0  0  0
    0.9905   -1.2046   -0.5445 H   0  0  0  0  0  0  0  0  0  0  0  0
    0.1869    0.7607   -0.9547 C   0  0  0  0  0  0  0  0  0  0  0  0
   -0.6862    0.7472   -1.6139 H   0  0  0  0  0  0  0  0  0  0  0  0
    0.0785    1.6257   -0.2910 H   0  0  0  0  0  0  0  0  0  0  0  0
    1.4409    0.9316   -1.8221 C   0  0  0  0  0  0  0  0  0  0  0  0
    2.3094    0.5060   -1.3067 H   0  0  0  0  0  0  0  0  0  0  0  0
    1.3246    0.4040   -2.7740 H   0  0  0  0  0  0  0  0  0  0  0  0
    1.7871    2.7146   -2.1047 S   0  0  0  0  0  0  0  0  0  0  0  0
    0.3584    3.2465   -3.1286 C   0  0  0  0  0  0  0  0  0  0  0  0
   -0.5754    3.1347   -2.5704 H   0  0  0  0  0  0  0  0  0  0  0  0
    0.4720    4.2975   -3.4105 H   0  0  0  0  0  0  0  0  0  0  0  0
    0.3012    2.6439   -4.0398 H   0  0  0  0  0  0  0  0  0  0  0  0
    0.7613   -0.2168    1.3242 C   0  0  0  0  0  0  0  0  0  0  0  0
    1.9634   -0.2258    1.5519 O   0  0  0  0  0  0  0  0  0  0  0  0
   -0.1014    0.3077    2.2696 N   0  0  0  0  0  0  0  0  0  0  0  0
   -1.0923    0.2135    2.0748 H   0  0  0  0  0  0  0  0  0  0  0  0
    0.3210    0.6419    3.6238 C   0  0  0  0  0  0  0  0  0  0  0  0
    1.1202    1.3904    3.6027 H   0  0  0  0  0  0  0  0  0  0  0  0
   -0.5191    1.0524    4.1919 H   0  0  0  0  0  0  0  0  0  0  0  0
    0.6883   -0.2507    4.1410 H   0  0  0  0  0  0  0  0  0  0  0  0
  1  2  1  0  0  0  0
  2  3  1  0  0  0  0
  2  4  1  0  0  0  0
  2  5  1  0  0  0  0
  5  6  2  0  0  0  0
  5  7  1  0  0  0  0
  7  8  1  0  0  0  0
  7  9  1  0  0  0  0
  9 10  1  0  0  0  0
  9 11  1  0  0  0  0
  9 22  1  0  0  0  0
 11 12  1  0  0  0  0
 11 13  1  0  0  0  0
 11 14  1  0  0  0  0
 14 15  1  0  0  0  0
 14 16  1  0  0  0  0
 14 17  1  0  0  0  0
 17 18  1  0  0  0  0
 18 19  1  0  0  0  0
 18 20  1  0  0  0  0
 18 21  1  0  0  0  0
 22 23  2  0  0  0  0
 22 24  1  0  0  0  0
 24 25  1  0  0  0  0
 24 26  1  0  0  0  0
 26 27  1  0  0  0  0
 26 28  1  0  0  0  0
 26 29  1  0  0  0  0
M  END
$$$$

  -OEChem-04042216023D

 29 28  0     1  0  0  0  0  0999 V2000
   -2.6642   -4.1071    0.6221 H   0  0  0  0  0  0  0  0  0  0  0  0
   -2.6444   -3.1252    0.1404 C   0  0  0  0  0  0  0  0  0  0  0  0
   -3.4446   -2.5117    0.5610 H   0  0  0  0  0  0  0  0  0  0  0  0
   -2.8181   -3.2570   -0.9302 H   0  0  0  0  0  0  0  0  0  0  0  0
   -1.3017   -2.4576    0.3717 C   0  0  0  0  0  0  0  0  0  0  0  0
   -0.4589   -3.0105    1.0537 O   0  0  0  0  0  0  0  0  0  0  0  0
   -1.0455   -1.2193   -0.1836 N   0  0  0  0  0  0  0  0  0  0  0  0
   -1.7565   -0.8410   -0.8013 H   0  0  0  0  0  0  0  0  0  0  0  0
    0.2571   -0.5297   -0.1034 C   0  0  1  0  0  0  0  0  0  0  0  0
    0.9925   -1.2143   -0.5407 H   0  0  0  0  0  0  0  0  0  0  0  0
    0.1936    0.7564   -0.9581 C   0  0  0  0  0  0  0  0  0  0  0  0
   -0.6788    0.7387   -1.6183 H   0  0  0  0  0  0  0  0  0  0  0  0
    0.0730    1.6188   -0.2937 H   0  0  0  0  0  0  0  0  0  0  0  0
    1.4449    0.9426   -1.8324 C   0  0  0  0  0  0  0  0  0  0  0  0
    2.2586    0.3032   -1.4730 H   0  0  0  0  0  0  0  0  0  0  0  0
    1.2328    0.6595   -2.8681 H   0  0  0  0  0  0  0  0  0  0  0  0
    2.0411    2.6801   -1.7501 S   0  0  0  0  0  0  0  0  0  0  0  0
    0.7014    3.6037   -2.6013 C   0  0  0  0  0  0  0  0  0  0  0  0
   -0.2420    3.4951   -2.0589 H   0  0  0  0  0  0  0  0  0  0  0  0
    0.9549    4.6669   -2.6512 H   0  0  0  0  0  0  0  0  0  0  0  0
    0.5698    3.2277   -3.6201 H   0  0  0  0  0  0  0  0  0  0  0  0
    0.7614   -0.2189    1.3238 C   0  0  0  0  0  0  0  0  0  0  0  0
    1.9616   -0.2412    1.5598 O   0  0  0  0  0  0  0  0  0  0  0  0
   -0.1033    0.3089    2.2657 N   0  0  0  0  0  0  0  0  0  0  0  0
   -1.0938    0.2174    2.0676 H   0  0  0  0  0  0  0  0  0  0  0  0
    0.3163    0.6382    3.6222 C   0  0  0  0  0  0  0  0  0  0  0  0
    1.1285    1.3728    3.6049 H   0  0  0  0  0  0  0  0  0  0  0  0
   -0.5201    1.0641    4.1846 H   0  0  0  0  0  0  0  0  0  0  0  0
    0.6656   -0.2599    4.1427 H   0  0  0  0  0  0  0  0  0  0  0  0
  1  2  1  0  0  0  0
  2  3  1  0  0  0  0
  2  4  1  0  0  0  0
  2  5  1  0  0  0  0
  5  6  2  0  0  0  0
  5  7  1  0  0  0  0
  7  8  1  0  0  0  0
  7  9  1  0  0  0  0
  9 10  1  0  0  0  0
  9 11  1  0  0  0  0
  9 22  1  0  0  0  0
 11 12  1  0  0  0  0
 11 13  1  0  0  0  0
 11 14  1  0  0  0  0
 14 15  1  0  0  0  0
 14 16  1  0  0  0  0
 14 17  1  0  0  0  0
 17 18  1  0  0  0  0
 18 19  1  0  0  0  0
 18 20  1  0  0  0  0
 18 21  1  0  0  0  0
 22 23  2  0  0  0  0
 22 24  1  0  0  0  0
 24 25  1  0  0  0  0
 24 26  1  0  0  0  0
 26 27  1  0  0  0  0
 26 28  1  0  0  0  0
 26 29  1  0  0  0  0
M  END
$$$$

  -OEChem-04042216023D

 29 28  0     1  0  0  0  0  0999 V2000
   -2.6688   -4.1053    0.6288 H   0  0  0  0  0  0  0  0  0  0  0  0
   -2.6456   -3.1244    0.1451 C   0  0  0  0  0  0  0  0  0  0  0  0
   -3.4453   -2.5078    0.5624 H   0  0  0  0  0  0  0  0  0  0  0  0
   -2.8163   -3.2582   -0.9258 H   0  0  0  0  0  0  0  0  0  0  0  0
   -1.3021   -2.4598    0.3797 C   0  0  0  0  0  0  0  0  0  0  0  0
   -0.4629   -3.0143    1.0648 O   0  0  0  0  0  0  0  0  0  0  0  0
   -1.0420   -1.2231   -0.1778 N   0  0  0  0  0  0  0  0  0  0  0  0
   -1.7505   -0.8461   -0.7991 H   0  0  0  0  0  0  0  0  0  0  0  0
    0.2628   -0.5366   -0.0987 C   0  0  1  0  0  0  0  0  0  0  0  0
    0.9976   -1.2226   -0.5340 H   0  0  0  0  0  0  0  0  0  0  0  0
    0.1955    0.7540   -0.9491 C   0  0  0  0  0  0  0  0  0  0  0  0
   -0.6755    0.7179   -1.6108 H   0  0  0  0  0  0  0  0  0  0  0  0
    0.0546    1.6176   -0.2906 H   0  0  0  0  0  0  0  0  0  0  0  0
    1.4379    0.9576   -1.8356 C   0  0  0  0  0  0  0  0  0  0  0  0
    2.1538    0.1406   -1.7015 H   0  0  0  0  0  0  0  0  0  0  0  0
    1.1473    0.9673   -2.8905 H   0  0  0  0  0  0  0  0  0  0  0  0
    2.2865    2.5340   -1.4170 S   0  0  0  0  0  0  0  0  0  0  0  0
    1.1206    3.8016   -2.0551 C   0  0  0  0  0  0  0  0  0  0  0  0
    0.1567    3.7282   -1.5439 H   0  0  0  0  0  0  0  0  0  0  0  0
    1.5291    4.8026   -1.8872 H   0  0  0  0  0  0  0  0  0  0  0  0
    0.9628    3.6641   -3.1288 H   0  0  0  0  0  0  0  0  0  0  0  0
    0.7656   -0.2256    1.3293 C   0  0  0  0  0  0  0  0  0  0  0  0
    1.9630   -0.2680    1.5754 O   0  0  0  0  0  0  0  0  0  0  0  0
   -0.1001    0.3057    2.2685 N   0  0  0  0  0  0  0  0  0  0  0  0
   -1.0900    0.2239    2.0641 H   0  0  0  0  0  0  0  0  0  0  0  0
    0.3142    0.6260    3.6285 C   0  0  0  0  0  0  0  0  0  0  0  0
    1.1320    1.3546    3.6187 H   0  0  0  0  0  0  0  0  0  0  0  0
   -0.5221    1.0558    4.1879 H   0  0  0  0  0  0  0  0  0  0  0  0
    0.6536   -0.2769    4.1473 H   0  0  0  0  0  0  0  0  0  0  0  0
  1  2  1  0  0  0  0
  2  3  1  0  0  0  0
  2  4  1  0  0  0  0
  2  5  1  0  0  0  0
  5  6  2  0  0  0  0
  5  7  1  0  0  0  0
  7  8  1  0  0  0  0
  7  9  1  0  0  0  0
  9 10  1  0  0  0  0
  9 11  1  0  0  0  0
  9 22  1  0  0  0  0
 11 12  1  0  0  0  0
 11 13  1  0  0  0  0
 11 14  1  0  0  0  0
 14 15  1  0  0  0  0
 14 16  1  0  0  0  0
 14 17  1  0  0  0  0
 17 18  1  0  0  0  0
 18 19  1  0  0  0  0
 18 20  1  0  0  0  0
 18 21  1  0  0  0  0
 22 23  2  0  0  0  0
 22 24  1  0  0  0  0
 24 25  1  0  0  0  0
 24 26  1  0  0  0  0
 26 27  1  0  0  0  0
 26 28  1  0  0  0  0
 26 29  1  0  0  0  0
M  END
$$$$

  -OEChem-04042216023D

 29 28  0     1  0  0  0  0  0999 V2000
   -2.6625   -4.1077    0.6416 H   0  0  0  0  0  0  0  0  0  0  0  0
   -2.6411   -3.1273    0.1571 C   0  0  0  0  0  0  0  0  0  0  0  0
   -3.4399   -2.5112    0.5765 H   0  0  0  0  0  0  0  0  0  0  0  0
   -2.8151   -3.2616   -0.9130 H   0  0  0  0  0  0  0  0  0  0  0  0
   -1.2963   -2.4633    0.3860 C   0  0  0  0  0  0  0  0  0  0  0  0
   -0.4563   -3.0187    1.0691 O   0  0  0  0  0  0  0  0  0  0  0  0
   -1.0363   -1.2281   -0.1753 N   0  0  0  0  0  0  0  0  0  0  0  0
   -1.7449   -0.8542   -0.7984 H   0  0  0  0  0  0  0  0  0  0  0  0
    0.2692   -0.5410   -0.1007 C   0  0  1  0  0  0  0  0  0  0  0  0
    1.0082   -1.2215   -0.5368 H   0  0  0  0  0  0  0  0  0  0  0  0
    0.1926    0.7542   -0.9444 C   0  0  0  0  0  0  0  0  0  0  0  0
   -0.6766    0.6986   -1.6070 H   0  0  0  0  0  0  0  0  0  0  0  0
    0.0368    1.6202   -0.2931 H   0  0  0  0  0  0  0  0  0  0  0  0
    1.4256    0.9671   -1.8404 C   0  0  0  0  0  0  0  0  0  0  0  0
    1.9974    0.0410   -1.9550 H   0  0  0  0  0  0  0  0  0  0  0  0
    1.1025    1.2734   -2.8402 H   0  0  0  0  0  0  0  0  0  0  0  0
    2.5206    2.2745   -1.1544 S   0  0  0  0  0  0  0  0  0  0  0  0
    1.5908    3.8209   -1.4985 C   0  0  0  0  0  0  0  0  0  0  0  0
    0.6328    3.8197   -0.9714 H   0  0  0  0  0  0  0  0  0  0  0  0
    2.1706    4.6860   -1.1633 H   0  0  0  0  0  0  0  0  0  0  0  0
    1.4043    3.9198   -2.5717 H   0  0  0  0  0  0  0  0  0  0  0  0
    0.7669   -0.2297    1.3296 C   0  0  0  0  0  0  0  0  0  0  0  0
    1.9599   -0.2927    1.5917 O   0  0  0  0  0  0  0  0  0  0  0  0
   -0.1043    0.3018    2.2639 N   0  0  0  0  0  0  0  0  0  0  0  0
   -1.0925    0.2301    2.0485 H   0  0  0  0  0  0  0  0  0  0  0  0
    0.2990    0.6105    3.6298 C   0  0  0  0  0  0  0  0  0  0  0  0
    1.1255    1.3292    3.6320 H   0  0  0  0  0  0  0  0  0  0  0  0
   -0.5378    1.0479    4.1826 H   0  0  0  0  0  0  0  0  0  0  0  0
    0.6217   -0.2991    4.1472 H   0  0  0  0  0  0  0  0  0  0  0  0
  1  2  1  0  0  0  0
  2  3  1  0  0  0  0
  2  4  1  0  0  0  0
  2  5  1  0  0  0  0
  5  6  2  0  0  0  0
  5  7  1  0  0  0  0
  7  8  1  0  0  0  0
  7  9  1  0  0  0  0
  9 10  1  0  0  0  0
  9 11  1  0  0  0  0
  9 22  1  0  0  0  0
 11 12  1  0  0  0  0
 11 13  1  0  0  0  0
 11 14  1  0  0  0  0
 14 15  1  0  0  0  0
 14 16  1  0  0  0  0
 14 17  1  0  0  0  0
 17 18  1  0  0  0  0
 18 19  1  0  0  0  0
 18 20  1  0  0  0  0
 18 21  1  0  0  0  0
 22 23  2  0  0  0  0
 22 24  1  0  0  0  0
 24 25  1  0  0  0  0
 24 26  1  0  0  0  0
 26 27  1  0  0  0  0
 26 28  1  0  0  0  0
 26 29  1  0  0  0  0
M  END
$$$$

  -OEChem-04042216023D

 29 28  0     1  0  0  0  0  0999 V2000
   -2.6512   -4.1000    0.6516 H   0  0  0  0  0  0  0  0  0  0  0  0
   -2.6307   -3.1200    0.1658 C   0  0  0  0  0  0  0  0  0  0  0  0
   -3.4331   -2.5057    0.5808 H   0  0  0  0  0  0  0  0  0  0  0  0
   -2.8001   -3.2568   -0.9048 H   0  0  0  0  0  0  0  0  0  0  0  0
   -1.2895   -2.4500    0.3994 C   0  0  0  0  0  0  0  0  0  0  0  0
   -0.4525   -2.9980    1.0920 O   0  0  0  0  0  0  0  0  0  0  0  0
   -1.0282   -1.2212   -0.1754 N   0  0  0  0  0  0  0  0  0  0  0  0
   -1.7319   -0.8606   -0.8116 H   0  0  0  0  0  0  0  0  0  0  0  0
    0.2789   -0.5354   -0.1114 C   0  0  1  0  0  0  0  0  0  0  0  0
    1.0228   -1.2122   -0.5459 H   0  0  0  0  0  0  0  0  0  0  0  0
    0.1916    0.7546   -0.9623 C   0  0  0  0  0  0  0  0  0  0  0  0
   -0.6795    0.6884   -1.6212 H   0  0  0  0  0  0  0  0  0  0  0  0
    0.0364    1.6271   -0.3209 H   0  0  0  0  0  0  0  0  0  0  0  0
    1.4166    0.9592   -1.8675 C   0  0  0  0  0  0  0  0  0  0  0  0
    1.8181   -0.0034   -2.2002 H   0  0  0  0  0  0  0  0  0  0  0  0
    1.1140    1.5109   -2.7629 H   0  0  0  0  0  0  0  0  0  0  0  0
    2.7345    1.9212   -1.0215 S   0  0  0  0  0  0  0  0  0  0  0  0
    2.0529    3.6247   -0.9333 C   0  0  0  0  0  0  0  0  0  0  0  0
    1.1614    3.6516   -0.3009 H   0  0  0  0  0  0  0  0  0  0  0  0
    2.8002    4.3005   -0.5067 H   0  0  0  0  0  0  0  0  0  0  0  0
    1.7896    3.9811   -1.9334 H   0  0  0  0  0  0  0  0  0  0  0  0
    0.7691   -0.2152    1.3210 C   0  0  0  0  0  0  0  0  0  0  0  0
    1.9554   -0.3036    1.6046 O   0  0  0  0  0  0  0  0  0  0  0  0
   -0.1075    0.3239    2.2466 N   0  0  0  0  0  0  0  0  0  0  0  0
   -1.0938    0.2570    2.0208 H   0  0  0  0  0  0  0  0  0  0  0  0
    0.2810    0.6055    3.6228 C   0  0  0  0  0  0  0  0  0  0  0  0
    1.1207    1.3082    3.6480 H   0  0  0  0  0  0  0  0  0  0  0  0
   -0.5555    1.0504    4.1698 H   0  0  0  0  0  0  0  0  0  0  0  0
    0.5794   -0.3171    4.1318 H   0  0  0  0  0  0  0  0  0  0  0  0
  1  2  1  0  0  0  0
  2  3  1  0  0  0  0
  2  4  1  0  0  0  0
  2  5  1  0  0  0  0
  5  6  2  0  0  0  0
  5  7  1  0  0  0  0
  7  8  1  0  0  0  0
  7  9  1  0  0  0  0
  9 10  1  0  0  0  0
  9 11  1  0  0  0  0
  9 22  1  0  0  0  0
 11 12  1  0  0  0  0
 11 13  1  0  0  0  0
 11 14  1  0  0  0  0
 14 15  1  0  0  0  0
 14 16  1  0  0  0  0
 14 17  1  0  0  0  0
 17 18  1  0  0  0  0
 18 19  1  0  0  0  0
 18 20  1  0  0  0  0
 18 21  1  0  0  0  0
 22 23  2  0  0  0  0
 22 24  1  0  0  0  0
 24 25  1  0  0  0  0
 24 26  1  0  0  0  0
 26 27  1  0  0  0  0
 26 28  1  0  0  0  0
 26 29  1  0  0  0  0
M  END
$$$$

  -OEChem-04042216023D

 29 28  0     1  0  0  0  0  0999 V2000
   -2.6281   -4.0127    0.7928 H   0  0  0  0  0  0  0  0  0  0  0  0
   -2.5848   -3.0915    0.2048 C   0  0  0  0  0  0  0  0  0  0  0  0
   -3.4061   -2.4400    0.5123 H   0  0  0  0  0  0  0  0  0  0  0  0
   -2.7034   -3.3444   -0.8515 H   0  0  0  0  0  0  0  0  0  0  0  0
   -1.2551   -2.3948    0.4261 C   0  0  0  0  0  0  0  0  0  0  0  0
   -0.4215   -2.9012    1.1533 O   0  0  0  0  0  0  0  0  0  0  0  0
   -1.0028   -1.1888   -0.1989 N   0  0  0  0  0  0  0  0  0  0  0  0
   -1.7001   -0.8759   -0.8668 H   0  0  0  0  0  0  0  0  0  0  0  0
    0.3046   -0.4994   -0.1807 C   0  0  1  0  0  0  0  0  0  0  0  0
    1.0518   -1.1764   -0.6105 H   0  0  0  0  0  0  0  0  0  0  0  0
    0.1825    0.7657   -1.0645 C   0  0  0  0  0  0  0  0  0  0  0  0
   -0.7050    0.6760   -1.6989 H   0  0  0  0  0  0  0  0  0  0  0  0
    0.0333    1.6556   -0.4468 H   0  0  0  0  0  0  0  0  0  0  0  0
    1.3778    0.9584   -2.0105 C   0  0  0  0  0  0  0  0  0  0  0  0
    1.5952    0.0213   -2.5333 H   0  0  0  0  0  0  0  0  0  0  0  0
    1.1011    1.6973   -2.7693 H   0  0  0  0  0  0  0  0  0  0  0  0
    2.9070    1.5562   -1.1795 S   0  0  0  0  0  0  0  0  0  0  0  0
    2.3989    2.9869   -0.1452 C   0  0  0  0  0  0  0  0  0  0  0  0
    1.7878    2.6524    0.6979 H   0  0  0  0  0  0  0  0  0  0  0  0
    3.2854    3.4887    0.2532 H   0  0  0  0  0  0  0  0  0  0  0  0
    1.8269    3.7044   -0.7401 H   0  0  0  0  0  0  0  0  0  0  0  0
    0.8000   -0.1315    1.2399 C   0  0  0  0  0  0  0  0  0  0  0  0
    1.9857   -0.2036    1.5300 O   0  0  0  0  0  0  0  0  0  0  0  0
   -0.0773    0.4358    2.1477 N   0  0  0  0  0  0  0  0  0  0  0  0
   -1.0630    0.3418    1.9282 H   0  0  0  0  0  0  0  0  0  0  0  0
    0.3074    0.7466    3.5189 C   0  0  0  0  0  0  0  0  0  0  0  0
    1.1540    1.4413    3.5317 H   0  0  0  0  0  0  0  0  0  0  0  0
   -0.5274    1.2128    4.0506 H   0  0  0  0  0  0  0  0  0  0  0  0
    0.5937   -0.1667    4.0512 H   0  0  0  0  0  0  0  0  0  0  0  0
  1  2  1  0  0  0  0
  2  3  1  0  0  0  0
  2  4  1  0  0  0  0
  2  5  1  0  0  0  0
  5  6  2  0  0  0  0
  5  7  1  0  0  0  0
  7  8  1  0  0  0  0
  7  9  1  0  0  0  0
  9 10  1  0  0  0  0
  9 11  1  0  0  0  0
  9 22  1  0  0  0  0
 11 12  1  0  0  0  0
 11 13  1  0  0  0  0
 11 14  1  0  0  0  0
 14 15  1  0  0  0  0
 14 16  1  0  0  0  0
 14 17  1  0  0  0  0
 17 18  1  0  0  0  0
 18 19  1  0  0  0  0
 18 20  1  0  0  0  0
 18 21  1  0  0  0  0
 22 23  2  0  0  0  0
 22 24  1  0  0  0  0
 24 25  1  0  0  0  0
 24 26  1  0  0  0  0
 26 27  1  0  0  0  0
 26 28  1  0  0  0  0
 26 29  1  0  0  0  0
M  END
$$$$

  -OEChem-04042216023D

 29 28  0     1  0  0  0  0  0999 V2000
   -2.6327   -4.0378    0.7145 H   0  0  0  0  0  0  0  0  0  0  0  0
   -2.6010   -3.0730    0.2001 C   0  0  0  0  0  0  0  0  0  0  0  0
   -3.4022   -2.4408    0.5899 H   0  0  0  0  0  0  0  0  0  0  0  0
   -2.7623   -3.2405   -0.8674 H   0  0  0  0  0  0  0  0  0  0  0  0
   -1.2567   -2.4066    0.4255 C   0  0  0  0  0  0  0  0  0  0  0  0
   -0.4308   -2.9415    1.1409 O   0  0  0  0  0  0  0  0  0  0  0  0
   -0.9862   -1.1933   -0.1779 N   0  0  0  0  0  0  0  0  0  0  0  0
   -1.6800   -0.8571   -0.8378 H   0  0  0  0  0  0  0  0  0  0  0  0
    0.3282   -0.5168   -0.1418 C   0  0  1  0  0  0  0  0  0  0  0  0
    1.0772   -1.1845   -0.5834 H   0  0  0  0  0  0  0  0  0  0  0  0
    0.2046    0.7673   -1.0011 C   0  0  0  0  0  0  0  0  0  0  0  0
   -0.6978    0.7151   -1.6180 H   0  0  0  0  0  0  0  0  0  0  0  0
    0.0905    1.6398   -0.3502 H   0  0  0  0  0  0  0  0  0  0  0  0
    1.3868    0.9951   -1.9563 C   0  0  0  0  0  0  0  0  0  0  0  0
    1.4430    0.1583   -2.6601 H   0  0  0  0  0  0  0  0  0  0  0  0
    1.2015    1.9025   -2.5396 H   0  0  0  0  0  0  0  0  0  0  0  0
    3.0162    1.1604   -1.1235 S   0  0  0  0  0  0  0  0  0  0  0  0
    2.8128    2.6141   -0.0188 C   0  0  0  0  0  0  0  0  0  0  0  0
    2.0745    2.4055    0.7602 H   0  0  0  0  0  0  0  0  0  0  0  0
    3.7656    2.8481    0.4653 H   0  0  0  0  0  0  0  0  0  0  0  0
    2.4869    3.4858   -0.5931 H   0  0  0  0  0  0  0  0  0  0  0  0
    0.7998   -0.1854    1.2976 C   0  0  0  0  0  0  0  0  0  0  0  0
    1.9724   -0.2985    1.6252 O   0  0  0  0  0  0  0  0  0  0  0  0
   -0.0930    0.3695    2.1984 N   0  0  0  0  0  0  0  0  0  0  0  0
   -1.0732    0.3006    1.9476 H   0  0  0  0  0  0  0  0  0  0  0  0
    0.2556    0.6253    3.5903 C   0  0  0  0  0  0  0  0  0  0  0  0
    1.1099    1.3077    3.6533 H   0  0  0  0  0  0  0  0  0  0  0  0
   -0.5889    1.0828    4.1141 H   0  0  0  0  0  0  0  0  0  0  0  0
    0.5151   -0.3104    4.0968 H   0  0  0  0  0  0  0  0  0  0  0  0
  1  2  1  0  0  0  0
  2  3  1  0  0  0  0
  2  4  1  0  0  0  0
  2  5  1  0  0  0  0
  5  6  2  0  0  0  0
  5  7  1  0  0  0  0
  7  8  1  0  0  0  0
  7  9  1  0  0  0  0
  9 10  1  0  0  0  0
  9 11  1  0  0  0  0
  9 22  1  0  0  0  0
 11 12  1  0  0  0  0
 11 13  1  0  0  0  0
 11 14  1  0  0  0  0
 14 15  1  0  0  0  0
 14 16  1  0  0  0  0
 14 17  1  0  0  0  0
 17 18  1  0  0  0  0
 18 19  1  0  0  0  0
 18 20  1  0  0  0  0
 18 21  1  0  0  0  0
 22 23  2  0  0  0  0
 22 24  1  0  0  0  0
 24 25  1  0  0  0  0
 24 26  1  0  0  0  0
 26 27  1  0  0  0  0
 26 28  1  0  0  0  0
 26 29  1  0  0  0  0
M  END
$$$$

  -OEChem-04042216023D

 29 28  0     1  0  0  0  0  0999 V2000
   -2.6773   -4.0527    0.6646 H   0  0  0  0  0  0  0  0  0  0  0  0
   -2.6325   -3.0782    0.1698 C   0  0  0  0  0  0  0  0  0  0  0  0
   -3.4383   -2.4502    0.5569 H   0  0  0  0  0  0  0  0  0  0  0  0
   -2.7745   -3.2241   -0.9037 H   0  0  0  0  0  0  0  0  0  0  0  0
   -1.2903   -2.4216    0.4332 C   0  0  0  0  0  0  0  0  0  0  0  0
   -0.4858   -2.9683    1.1638 O   0  0  0  0  0  0  0  0  0  0  0  0
   -0.9992   -1.2044   -0.1530 N   0  0  0  0  0  0  0  0  0  0  0  0
   -1.6748   -0.8621   -0.8286 H   0  0  0  0  0  0  0  0  0  0  0  0
    0.3226   -0.5433   -0.0944 C   0  0  1  0  0  0  0  0  0  0  0  0
    1.0667   -1.2160   -0.5361 H   0  0  0  0  0  0  0  0  0  0  0  0
    0.2184    0.7540   -0.9398 C   0  0  0  0  0  0  0  0  0  0  0  0
   -0.6911    0.7372   -1.5483 H   0  0  0  0  0  0  0  0  0  0  0  0
    0.1293    1.6110   -0.2641 H   0  0  0  0  0  0  0  0  0  0  0  0
    1.3993    1.0092   -1.8934 C   0  0  0  0  0  0  0  0  0  0  0  0
    1.3040    0.3273   -2.7445 H   0  0  0  0  0  0  0  0  0  0  0  0
    1.3366    2.0301   -2.2829 H   0  0  0  0  0  0  0  0  0  0  0  0
    3.0627    0.7451   -1.1617 S   0  0  0  0  0  0  0  0  0  0  0  0
    3.2279    2.1578    0.0011 C   0  0  0  0  0  0  0  0  0  0  0  0
    2.4237    2.1434    0.7416 H   0  0  0  0  0  0  0  0  0  0  0  0
    4.1843    2.0942    0.5287 H   0  0  0  0  0  0  0  0  0  0  0  0
    3.1889    3.1050   -0.5440 H   0  0  0  0  0  0  0  0  0  0  0  0
    0.7745   -0.2376    1.3582 C   0  0  0  0  0  0  0  0  0  0  0  0
    1.9394   -0.3666    1.7077 O   0  0  0  0  0  0  0  0  0  0  0  0
   -0.1283    0.3142    2.2511 N   0  0  0  0  0  0  0  0  0  0  0  0
   -1.1041    0.2573    1.9808 H   0  0  0  0  0  0  0  0  0  0  0  0
    0.1934    0.5293    3.6565 C   0  0  0  0  0  0  0  0  0  0  0  0
    1.0454    1.2103    3.7552 H   0  0  0  0  0  0  0  0  0  0  0  0
   -0.6615    0.9699    4.1779 H   0  0  0  0  0  0  0  0  0  0  0  0
    0.4444   -0.4207    4.1403 H   0  0  0  0  0  0  0  0  0  0  0  0
  1  2  1  0  0  0  0
  2  3  1  0  0  0  0
  2  4  1  0  0  0  0
  2  5  1  0  0  0  0
  5  6  2  0  0  0  0
  5  7  1  0  0  0  0
  7  8  1  0  0  0  0
  7  9  1  0  0  0  0
  9 10  1  0  0  0  0
  9 11  1  0  0  0  0
  9 22  1  0  0  0  0
 11 12  1  0  0  0  0
 11 13  1  0  0  0  0
 11 14  1  0  0  0  0
 14 15  1  0  0  0  0
 14 16  1  0  0  0  0
 14 17  1  0  0  0  0
 17 18  1  0  0  0  0
 18 19  1  0  0  0  0
 18 20  1  0  0  0  0
 18 21  1  0  0  0  0
 22 23  2  0  0  0  0
 22 24  1  0  0  0  0
 24 25  1  0  0  0  0
 24 26  1  0  0  0  0
 26 27  1  0  0  0  0
 26 28  1  0  0  0  0
 26 29  1  0  0  0  0
M  END
$$$$

  -OEChem-04042216023D

 29 28  0     1  0  0  0  0  0999 V2000
   -2.7553   -4.0689    0.6111 H   0  0  0  0  0  0  0  0  0  0  0  0
   -2.6884   -3.0933    0.1210 C   0  0  0  0  0  0  0  0  0  0  0  0
   -3.5082   -2.4645    0.4759 H   0  0  0  0  0  0  0  0  0  0  0  0
   -2.7864   -3.2370   -0.9576 H   0  0  0  0  0  0  0  0  0  0  0  0
   -1.3563   -2.4409    0.4402 C   0  0  0  0  0  0  0  0  0  0  0  0
   -0.5834   -2.9918    1.2014 O   0  0  0  0  0  0  0  0  0  0  0  0
   -1.0378   -1.2236   -0.1312 N   0  0  0  0  0  0  0  0  0  0  0  0
   -1.6821   -0.8825   -0.8373 H   0  0  0  0  0  0  0  0  0  0  0  0
    0.2929   -0.5846   -0.0415 C   0  0  1  0  0  0  0  0  0  0  0  0
    1.0241   -1.2763   -0.4730 H   0  0  0  0  0  0  0  0  0  0  0  0
    0.2295    0.7211   -0.8809 C   0  0  0  0  0  0  0  0  0  0  0  0
   -0.6753    0.7311   -1.4963 H   0  0  0  0  0  0  0  0  0  0  0  0
    0.1460    1.5681   -0.1919 H   0  0  0  0  0  0  0  0  0  0  0  0
    1.4212    0.9964   -1.8212 C   0  0  0  0  0  0  0  0  0  0  0  0
    1.1987    0.5270   -2.7849 H   0  0  0  0  0  0  0  0  0  0  0  0
    1.5061    2.0733   -1.9982 H   0  0  0  0  0  0  0  0  0  0  0  0
    3.0472    0.3369   -1.2754 S   0  0  0  0  0  0  0  0  0  0  0  0
    3.6054    1.6238   -0.0895 C   0  0  0  0  0  0  0  0  0  0  0  0
    2.8526    1.7831    0.6873 H   0  0  0  0  0  0  0  0  0  0  0  0
    4.5373    1.3097    0.3899 H   0  0  0  0  0  0  0  0  0  0  0  0
    3.7787    2.5700   -0.6097 H   0  0  0  0  0  0  0  0  0  0  0  0
    0.7301   -0.2945    1.4187 C   0  0  0  0  0  0  0  0  0  0  0  0
    1.8932   -0.4209    1.7752 O   0  0  0  0  0  0  0  0  0  0  0  0
   -0.1768    0.2667    2.3014 N   0  0  0  0  0  0  0  0  0  0  0  0
   -1.1504    0.2124    2.0226 H   0  0  0  0  0  0  0  0  0  0  0  0
    0.1325    0.4889    3.7085 C   0  0  0  0  0  0  0  0  0  0  0  0
    0.9854    1.1678    3.8124 H   0  0  0  0  0  0  0  0  0  0  0  0
   -0.7262    0.9357    4.2183 H   0  0  0  0  0  0  0  0  0  0  0  0
    0.3751   -0.4588    4.2008 H   0  0  0  0  0  0  0  0  0  0  0  0
  1  2  1  0  0  0  0
  2  3  1  0  0  0  0
  2  4  1  0  0  0  0
  2  5  1  0  0  0  0
  5  6  2  0  0  0  0
  5  7  1  0  0  0  0
  7  8  1  0  0  0  0
  7  9  1  0  0  0  0
  9 10  1  0  0  0  0
  9 11  1  0  0  0  0
  9 22  1  0  0  0  0
 11 12  1  0  0  0  0
 11 13  1  0  0  0  0
 11 14  1  0  0  0  0
 14 15  1  0  0  0  0
 14 16  1  0  0  0  0
 14 17  1  0  0  0  0
 17 18  1  0  0  0  0
 18 19  1  0  0  0  0
 18 20  1  0  0  0  0
 18 21  1  0  0  0  0
 22 23  2  0  0  0  0
 22 24  1  0  0  0  0
 24 25  1  0  0  0  0
 24 26  1  0  0  0  0
 26 27  1  0  0  0  0
 26 28  1  0  0  0  0
 26 29  1  0  0  0  0
M  END
$$$$

  -OEChem-04042216023D

 29 28  0     1  0  0  0  0  0999 V2000
   -2.8577   -4.0754    0.5759 H   0  0  0  0  0  0  0  0  0  0  0  0
   -2.7681   -3.0989    0.0911 C   0  0  0  0  0  0  0  0  0  0  0  0
   -3.5957   -2.4655    0.4194 H   0  0  0  0  0  0  0  0  0  0  0  0
   -2.8302   -3.2392   -0.9907 H   0  0  0  0  0  0  0  0  0  0  0  0
   -1.4437   -2.4553    0.4571 C   0  0  0  0  0  0  0  0  0  0  0  0
   -0.7079   -3.0022    1.2571 O   0  0  0  0  0  0  0  0  0  0  0  0
   -1.0930   -1.2457   -0.1114 N   0  0  0  0  0  0  0  0  0  0  0  0
   -1.7030   -0.9119   -0.8505 H   0  0  0  0  0  0  0  0  0  0  0  0
    0.2456   -0.6295    0.0076 C   0  0  1  0  0  0  0  0  0  0  0  0
    0.9606   -1.3512   -0.3971 H   0  0  0  0  0  0  0  0  0  0  0  0
    0.2388    0.6731   -0.8403 C   0  0  0  0  0  0  0  0  0  0  0  0
   -0.6498    0.6911   -1.4792 H   0  0  0  0  0  0  0  0  0  0  0  0
    0.1426    1.5241   -0.1578 H   0  0  0  0  0  0  0  0  0  0  0  0
    1.4545    0.9446   -1.7571 C   0  0  0  0  0  0  0  0  0  0  0  0
    1.1458    0.7334   -2.7859 H   0  0  0  0  0  0  0  0  0  0  0  0
    1.7107    2.0079   -1.7124 H   0  0  0  0  0  0  0  0  0  0  0  0
    2.9686   -0.0543   -1.4495 S   0  0  0  0  0  0  0  0  0  0  0  0
    3.9125    1.0238   -0.3000 C   0  0  0  0  0  0  0  0  0  0  0  0
    3.2946    1.3074    0.5564 H   0  0  0  0  0  0  0  0  0  0  0  0
    4.7954    0.4938    0.0694 H   0  0  0  0  0  0  0  0  0  0  0  0
    4.2376    1.9329   -0.8138 H   0  0  0  0  0  0  0  0  0  0  0  0
    0.6700   -0.3348    1.4690 C   0  0  0  0  0  0  0  0  0  0  0  0
    1.8369   -0.4376    1.8218 O   0  0  0  0  0  0  0  0  0  0  0  0
   -0.2362    0.2494    2.3371 N   0  0  0  0  0  0  0  0  0  0  0  0
   -1.2100    0.1856    2.0602 H   0  0  0  0  0  0  0  0  0  0  0  0
    0.0732    0.5022    3.7391 C   0  0  0  0  0  0  0  0  0  0  0  0
    0.9276    1.1815    3.8273 H   0  0  0  0  0  0  0  0  0  0  0  0
   -0.7846    0.9616    4.2393 H   0  0  0  0  0  0  0  0  0  0  0  0
    0.3144   -0.4350    4.2521 H   0  0  0  0  0  0  0  0  0  0  0  0
  1  2  1  0  0  0  0
  2  3  1  0  0  0  0
  2  4  1  0  0  0  0
  2  5  1  0  0  0  0
  5  6  2  0  0  0  0
  5  7  1  0  0  0  0
  7  8  1  0  0  0  0
  7  9  1  0  0  0  0
  9 10  1  0  0  0  0
  9 11  1  0  0  0  0
  9 22  1  0  0  0  0
 11 12  1  0  0  0  0
 11 13  1  0  0  0  0
 11 14  1  0  0  0  0
 14 15  1  0  0  0  0
 14 16  1  0  0  0  0
 14 17  1  0  0  0  0
 17 18  1  0  0  0  0
 18 19  1  0  0  0  0
 18 20  1  0  0  0  0
 18 21  1  0  0  0  0
 22 23  2  0  0  0  0
 22 24  1  0  0  0  0
 24 25  1  0  0  0  0
 24 26  1  0  0  0  0
 26 27  1  0  0  0  0
 26 28  1  0  0  0  0
 26 29  1  0  0  0  0
M  END
$$$$

  -OEChem-04042216023D

 29 28  0     1  0  0  0  0  0999 V2000
   -2.9633   -4.0536    0.5943 H   0  0  0  0  0  0  0  0  0  0  0  0
   -2.8510   -3.0867    0.0951 C   0  0  0  0  0  0  0  0  0  0  0  0
   -3.6814   -2.4405    0.3892 H   0  0  0  0  0  0  0  0  0  0  0  0
   -2.8841   -3.2452   -0.9854 H   0  0  0  0  0  0  0  0  0  0  0  0
   -1.5317   -2.4483    0.4865 C   0  0  0  0  0  0  0  0  0  0  0  0
   -0.8247   -2.9864    1.3182 O   0  0  0  0  0  0  0  0  0  0  0  0
   -1.1533   -1.2523   -0.0926 N   0  0  0  0  0  0  0  0  0  0  0  0
   -1.7356   -0.9308   -0.8591 H   0  0  0  0  0  0  0  0  0  0  0  0
    0.1965   -0.6640    0.0372 C   0  0  1  0  0  0  0  0  0  0  0  0
    0.8926   -1.4146   -0.3425 H   0  0  0  0  0  0  0  0  0  0  0  0
    0.2446    0.6337   -0.8175 C   0  0  0  0  0  0  0  0  0  0  0  0
   -0.6261    0.6474   -1.4805 H   0  0  0  0  0  0  0  0  0  0  0  0
    0.1339    1.4978   -0.1536 H   0  0  0  0  0  0  0  0  0  0  0  0
    1.4789    0.8802   -1.7202 C   0  0  0  0  0  0  0  0  0  0  0  0
    1.1286    0.9775   -2.7528 H   0  0  0  0  0  0  0  0  0  0  0  0
    1.9257    1.8412   -1.4462 H   0  0  0  0  0  0  0  0  0  0  0  0
    2.8057   -0.3968   -1.7107 S   0  0  0  0  0  0  0  0  0  0  0  0
    4.0668    0.3559   -0.6075 C   0  0  0  0  0  0  0  0  0  0  0  0
    3.6260    0.6170    0.3582 H   0  0  0  0  0  0  0  0  0  0  0  0
    4.8842   -0.3507   -0.4365 H   0  0  0  0  0  0  0  0  0  0  0  0
    4.4760    1.2624   -1.0621 H   0  0  0  0  0  0  0  0  0  0  0  0
    0.6213   -0.3578    1.4944 C   0  0  0  0  0  0  0  0  0  0  0  0
    1.7935   -0.4448    1.8348 O   0  0  0  0  0  0  0  0  0  0  0  0
   -0.2746    0.2584    2.3506 N   0  0  0  0  0  0  0  0  0  0  0  0
   -1.2510    0.1948    2.0821 H   0  0  0  0  0  0  0  0  0  0  0  0
    0.0475    0.5595    3.7399 C   0  0  0  0  0  0  0  0  0  0  0  0
    0.9075    1.2352    3.7971 H   0  0  0  0  0  0  0  0  0  0  0  0
   -0.8027    1.0438    4.2294 H   0  0  0  0  0  0  0  0  0  0  0  0
    0.2854   -0.3603    4.2848 H   0  0  0  0  0  0  0  0  0  0  0  0
  1  2  1  0  0  0  0
  2  3  1  0  0  0  0
  2  4  1  0  0  0  0
  2  5  1  0  0  0  0
  5  6  2  0  0  0  0
  5  7  1  0  0  0  0
  7  8  1  0  0  0  0
  7  9  1  0  0  0  0
  9 10  1  0  0  0  0
  9 11  1  0  0  0  0
  9 22  1  0  0  0  0
 11 12  1  0  0  0  0
 11 13  1  0  0  0  0
 11 14  1  0  0  0  0
 14 15  1  0  0  0  0
 14 16  1  0  0  0  0
 14 17  1  0  0  0  0
 17 18  1  0  0  0  0
 18 19  1  0  0  0  0
 18 20  1  0  0  0  0
 18 21  1  0  0  0  0
 22 23  2  0  0  0  0
 22 24  1  0  0  0  0
 24 25  1  0  0  0  0
 24 26  1  0  0  0  0
 26 27  1  0  0  0  0
 26 28  1  0  0  0  0
 26 29  1  0  0  0  0
M  END
$$$$

  -OEChem-04042216023D

 29 28  0     1  0  0  0  0  0999 V2000
   -3.1014   -3.9501    0.6956 H   0  0  0  0  0  0  0  0  0  0  0  0
   -2.9348   -3.0317    0.1250 C   0  0  0  0  0  0  0  0  0  0  0  0
   -3.7493   -2.3347    0.3358 H   0  0  0  0  0  0  0  0  0  0  0  0
   -2.9371   -3.2751   -0.9403 H   0  0  0  0  0  0  0  0  0  0  0  0
   -1.6054   -2.4116    0.5122 C   0  0  0  0  0  0  0  0  0  0  0  0
   -0.9071   -2.9537    1.3490 O   0  0  0  0  0  0  0  0  0  0  0  0
   -1.2070   -1.2265   -0.0754 N   0  0  0  0  0  0  0  0  0  0  0  0
   -1.7815   -0.9049   -0.8481 H   0  0  0  0  0  0  0  0  0  0  0  0
    0.1578   -0.6710    0.0383 C   0  0  1  0  0  0  0  0  0  0  0  0
    0.8322   -1.4409   -0.3402 H   0  0  0  0  0  0  0  0  0  0  0  0
    0.2399    0.6277   -0.8111 C   0  0  0  0  0  0  0  0  0  0  0  0
   -0.6257    0.6439   -1.4807 H   0  0  0  0  0  0  0  0  0  0  0  0
    0.1372    1.5011   -0.1581 H   0  0  0  0  0  0  0  0  0  0  0  0
    1.4742    0.8376   -1.7209 C   0  0  0  0  0  0  0  0  0  0  0  0
    1.1356    1.2464   -2.6783 H   0  0  0  0  0  0  0  0  0  0  0  0
    2.1095    1.5992   -1.2571 H   0  0  0  0  0  0  0  0  0  0  0  0
    2.5317   -0.6323   -2.0614 S   0  0  0  0  0  0  0  0  0  0  0  0
    3.9938   -0.3289   -0.9912 C   0  0  0  0  0  0  0  0  0  0  0  0
    3.6933   -0.2520    0.0570 H   0  0  0  0  0  0  0  0  0  0  0  0
    4.7065   -1.1532   -1.0876 H   0  0  0  0  0  0  0  0  0  0  0  0
    4.4914    0.6005   -1.2823 H   0  0  0  0  0  0  0  0  0  0  0  0
    0.6130   -0.3689    1.4861 C   0  0  0  0  0  0  0  0  0  0  0  0
    1.7952   -0.4535    1.7918 O   0  0  0  0  0  0  0  0  0  0  0  0
   -0.2522    0.2728    2.3548 N   0  0  0  0  0  0  0  0  0  0  0  0
   -1.2362    0.2142    2.1141 H   0  0  0  0  0  0  0  0  0  0  0  0
    0.1105    0.5914    3.7303 C   0  0  0  0  0  0  0  0  0  0  0  0
    0.9808    1.2557    3.7542 H   0  0  0  0  0  0  0  0  0  0  0  0
   -0.7202    1.0951    4.2334 H   0  0  0  0  0  0  0  0  0  0  0  0
    0.3502   -0.3227    4.2837 H   0  0  0  0  0  0  0  0  0  0  0  0
  1  2  1  0  0  0  0
  2  3  1  0  0  0  0
  2  4  1  0  0  0  0
  2  5  1  0  0  0  0
  5  6  2  0  0  0  0
  5  7  1  0  0  0  0
  7  8  1  0  0  0  0
  7  9  1  0  0  0  0
  9 10  1  0  0  0  0
  9 11  1  0  0  0  0
  9 22  1  0  0  0  0
 11 12  1  0  0  0  0
 11 13  1  0  0  0  0
 11 14  1  0  0  0  0
 14 15  1  0  0  0  0
 14 16  1  0  0  0  0
 14 17  1  0  0  0  0
 17 18  1  0  0  0  0
 18 19  1  0  0  0  0
 18 20  1  0  0  0  0
 18 21  1  0  0  0  0
 22 23  2  0  0  0  0
 22 24  1  0  0  0  0
 24 25  1  0  0  0  0
 24 26  1  0  0  0  0
 26 27  1  0  0  0  0
 26 28  1  0  0  0  0
 26 29  1  0  0  0  0
M  END
$$$$

  -OEChem-04042216023D

 29 28  0     1  0  0  0  0  0999 V2000
   -3.0396   -3.9809    0.6733 H   0  0  0  0  0  0  0  0  0  0  0  0
   -2.9202   -3.0282    0.1493 C   0  0  0  0  0  0  0  0  0  0  0  0
   -3.7401   -2.3647    0.4340 H   0  0  0  0  0  0  0  0  0  0  0  0
   -2.9648   -3.2129   -0.9267 H   0  0  0  0  0  0  0  0  0  0  0  0
   -1.5899   -2.3963    0.5132 C   0  0  0  0  0  0  0  0  0  0  0  0
   -0.8715   -2.9313    1.3377 O   0  0  0  0  0  0  0  0  0  0  0  0
   -1.2109   -1.2095   -0.0832 N   0  0  0  0  0  0  0  0  0  0  0  0
   -1.7974   -0.8978   -0.8510 H   0  0  0  0  0  0  0  0  0  0  0  0
    0.1518   -0.6461    0.0054 C   0  0  1  0  0  0  0  0  0  0  0  0
    0.8274   -1.4104   -0.3823 H   0  0  0  0  0  0  0  0  0  0  0  0
    0.2194    0.6526   -0.8416 C   0  0  0  0  0  0  0  0  0  0  0  0
   -0.6509    0.6643   -1.5050 H   0  0  0  0  0  0  0  0  0  0  0  0
    0.1259    1.5300   -0.1927 H   0  0  0  0  0  0  0  0  0  0  0  0
    1.4468    0.8402   -1.7591 C   0  0  0  0  0  0  0  0  0  0  0  0
    1.1635    1.4844   -2.5974 H   0  0  0  0  0  0  0  0  0  0  0  0
    2.2177    1.3714   -1.1911 H   0  0  0  0  0  0  0  0  0  0  0  0
    2.2078   -0.7000   -2.4273 S   0  0  0  0  0  0  0  0  0  0  0  0
    3.6533   -0.9545   -1.3211 C   0  0  0  0  0  0  0  0  0  0  0  0
    3.3258   -1.1167   -0.2908 H   0  0  0  0  0  0  0  0  0  0  0  0
    4.2231   -1.8306   -1.6442 H   0  0  0  0  0  0  0  0  0  0  0  0
    4.3107   -0.0806   -1.3469 H   0  0  0  0  0  0  0  0  0  0  0  0
    0.6365   -0.3378    1.4419 C   0  0  0  0  0  0  0  0  0  0  0  0
    1.8292   -0.3986    1.7119 O   0  0  0  0  0  0  0  0  0  0  0  0
   -0.2135    0.3012    2.3270 N   0  0  0  0  0  0  0  0  0  0  0  0
   -1.2028    0.2350    2.1106 H   0  0  0  0  0  0  0  0  0  0  0  0
    0.1824    0.6526    3.6848 C   0  0  0  0  0  0  0  0  0  0  0  0
    1.0374    1.3368    3.6704 H   0  0  0  0  0  0  0  0  0  0  0  0
   -0.6444    1.1470    4.2033 H   0  0  0  0  0  0  0  0  0  0  0  0
    0.4591   -0.2457    4.2468 H   0  0  0  0  0  0  0  0  0  0  0  0
  1  2  1  0  0  0  0
  2  3  1  0  0  0  0
  2  4  1  0  0  0  0
  2  5  1  0  0  0  0
  5  6  2  0  0  0  0
  5  7  1  0  0  0  0
  7  8  1  0  0  0  0
  7  9  1  0  0  0  0
  9 10  1  0  0  0  0
  9 11  1  0  0  0  0
  9 22  1  0  0  0  0
 11 12  1  0  0  0  0
 11 13  1  0  0  0  0
 11 14  1  0  0  0  0
 14 15  1  0  0  0  0
 14 16  1  0  0  0  0
 14 17  1  0  0  0  0
 17 18  1  0  0  0  0
 18 19  1  0  0  0  0
 18 20  1  0  0  0  0
 18 21  1  0  0  0  0
 22 23  2  0  0  0  0
 22 24  1  0  0  0  0
 24 25  1  0  0  0  0
 24 26  1  0  0  0  0
 26 27  1  0  0  0  0
 26 28  1  0  0  0  0
 26 29  1  0  0  0  0
M  END
$$$$

  -OEChem-04042216023D

 29 28  0     1  0  0  0  0  0999 V2000
   -3.1093   -3.6806   -0.0419 H   0  0  0  0  0  0  0  0  0  0  0  0
   -3.2090   -2.5955   -0.1370 C   0  0  0  0  0  0  0  0  0  0  0  0
   -3.9534   -2.2468    0.5827 H   0  0  0  0  0  0  0  0  0  0  0  0
   -3.5497   -2.3621   -1.1485 H   0  0  0  0  0  0  0  0  0  0  0  0
   -1.8743   -1.9246    0.1273 C   0  0  0  0  0  0  0  0  0  0  0  0
   -0.9100   -2.5994    0.4335 O   0  0  0  0  0  0  0  0  0  0  0  0
   -1.7831   -0.5466    0.0885 N   0  0  0  0  0  0  0  0  0  0  0  0
   -2.6227   -0.0602   -0.2104 H   0  0  0  0  0  0  0  0  0  0  0  0
   -0.5102    0.2066    0.0450 C   0  0  1  0  0  0  0  0  0  0  0  0
   -0.7934    1.2512    0.2061 H   0  0  0  0  0  0  0  0  0  0  0  0
   -0.0014    0.1728   -1.4383 C   0  0  0  0  0  0  0  0  0  0  0  0
   -0.5872   -0.5789   -1.9766 H   0  0  0  0  0  0  0  0  0  0  0  0
   -0.2483    1.1386   -1.8899 H   0  0  0  0  0  0  0  0  0  0  0  0
    1.4652   -0.1345   -1.8071 C   0  0  0  0  0  0  0  0  0  0  0  0
    1.5460   -0.2929   -2.8867 H   0  0  0  0  0  0  0  0  0  0  0  0
    2.0610    0.7496   -1.5584 H   0  0  0  0  0  0  0  0  0  0  0  0
    2.2116   -1.5727   -0.9290 S   0  0  0  0  0  0  0  0  0  0  0  0
    3.9952   -1.1480   -0.9795 C   0  0  0  0  0  0  0  0  0  0  0  0
    4.3261   -1.0157   -2.0133 H   0  0  0  0  0  0  0  0  0  0  0  0
    4.5836   -1.9472   -0.5199 H   0  0  0  0  0  0  0  0  0  0  0  0
    4.1742   -0.2204   -0.4270 H   0  0  0  0  0  0  0  0  0  0  0  0
    0.4671   -0.0034    1.2331 C   0  0  0  0  0  0  0  0  0  0  0  0
    1.6044    0.4528    1.1795 O   0  0  0  0  0  0  0  0  0  0  0  0
   -0.0907    0.0065    2.5005 N   0  0  0  0  0  0  0  0  0  0  0  0
   -1.0195   -0.3994    2.5545 H   0  0  0  0  0  0  0  0  0  0  0  0
    0.7119    0.0379    3.7185 C   0  0  0  0  0  0  0  0  0  0  0  0
    1.2536    0.9863    3.7973 H   0  0  0  0  0  0  0  0  0  0  0  0
    0.0684   -0.0646    4.5973 H   0  0  0  0  0  0  0  0  0  0  0  0
    1.4365   -0.7835    3.7207 H   0  0  0  0  0  0  0  0  0  0  0  0
  1  2  1  0  0  0  0
  2  3  1  0  0  0  0
  2  4  1  0  0  0  0
  2  5  1  0  0  0  0
  5  6  2  0  0  0  0
  5  7  1  0  0  0  0
  7  8  1  0  0  0  0
  7  9  1  0  0  0  0
  9 10  1  0  0  0  0
  9 11  1  0  0  0  0
  9 22  1  0  0  0  0
 11 12  1  0  0  0  0
 11 13  1  0  0  0  0
 11 14  1  0  0  0  0
 14 15  1  0  0  0  0
 14 16  1  0  0  0  0
 14 17  1  0  0  0  0
 17 18  1  0  0  0  0
 18 19  1  0  0  0  0
 18 20  1  0  0  0  0
 18 21  1  0  0  0  0
 22 23  2  0  0  0  0
 22 24  1  0  0  0  0
 24 25  1  0  0  0  0
 24 26  1  0  0  0  0
 26 27  1  0  0  0  0
 26 28  1  0  0  0  0
 26 29  1  0  0  0  0
M  END
$$$$

  -OEChem-04042216023D

 29 28  0     1  0  0  0  0  0999 V2000
   -3.1061   -3.6100   -0.4115 H   0  0  0  0  0  0  0  0  0  0  0  0
   -3.2309   -2.5264   -0.3276 C   0  0  0  0  0  0  0  0  0  0  0  0
   -3.9547   -2.3155    0.4632 H   0  0  0  0  0  0  0  0  0  0  0  0
   -3.6132   -2.1433   -1.2768 H   0  0  0  0  0  0  0  0  0  0  0  0
   -1.9008   -1.8734   -0.0031 C   0  0  0  0  0  0  0  0  0  0  0  0
   -0.9255   -2.5680    0.2066 O   0  0  0  0  0  0  0  0  0  0  0  0
   -1.8320   -0.5001    0.1372 N   0  0  0  0  0  0  0  0  0  0  0  0
   -2.6909   -0.0039   -0.0800 H   0  0  0  0  0  0  0  0  0  0  0  0
   -0.5796    0.2899    0.1104 C   0  0  1  0  0  0  0  0  0  0  0  0
   -0.8587    1.3052    0.4078 H   0  0  0  0  0  0  0  0  0  0  0  0
   -0.1398    0.4150   -1.3892 C   0  0  0  0  0  0  0  0  0  0  0  0
   -0.7287   -0.2851   -1.9903 H   0  0  0  0  0  0  0  0  0  0  0  0
   -0.4122    1.4200   -1.7251 H   0  0  0  0  0  0  0  0  0  0  0  0
    1.3250    0.1833   -1.7954 C   0  0  0  0  0  0  0  0  0  0  0  0
    1.4349    0.3402   -2.8725 H   0  0  0  0  0  0  0  0  0  0  0  0
    1.9598    0.9194   -1.2923 H   0  0  0  0  0  0  0  0  0  0  0  0
    1.9064   -1.5128   -1.3801 S   0  0  0  0  0  0  0  0  0  0  0  0
    3.7232   -1.2668   -1.3441 C   0  0  0  0  0  0  0  0  0  0  0  0
    3.9871   -0.5398   -0.5697 H   0  0  0  0  0  0  0  0  0  0  0  0
    4.2251   -2.2127   -1.1213 H   0  0  0  0  0  0  0  0  0  0  0  0
    4.0767   -0.8984   -2.3112 H   0  0  0  0  0  0  0  0  0  0  0  0
    0.4592   -0.0785    1.2088 C   0  0  0  0  0  0  0  0  0  0  0  0
    1.6234    0.2994    1.1384 O   0  0  0  0  0  0  0  0  0  0  0  0
   -0.0265   -0.2599    2.4925 N   0  0  0  0  0  0  0  0  0  0  0  0
   -0.9667   -0.6399    2.5367 H   0  0  0  0  0  0  0  0  0  0  0  0
    0.8449   -0.4594    3.6452 C   0  0  0  0  0  0  0  0  0  0  0  0
    1.4630    0.4278    3.8186 H   0  0  0  0  0  0  0  0  0  0  0  0
    0.2472   -0.6419    4.5432 H   0  0  0  0  0  0  0  0  0  0  0  0
    1.5016   -1.3209    3.4834 H   0  0  0  0  0  0  0  0  0  0  0  0
  1  2  1  0  0  0  0
  2  3  1  0  0  0  0
  2  4  1  0  0  0  0
  2  5  1  0  0  0  0
  5  6  2  0  0  0  0
  5  7  1  0  0  0  0
  7  8  1  0  0  0  0
  7  9  1  0  0  0  0
  9 10  1  0  0  0  0
  9 11  1  0  0  0  0
  9 22  1  0  0  0  0
 11 12  1  0  0  0  0
 11 13  1  0  0  0  0
 11 14  1  0  0  0  0
 14 15  1  0  0  0  0
 14 16  1  0  0  0  0
 14 17  1  0  0  0  0
 17 18  1  0  0  0  0
 18 19  1  0  0  0  0
 18 20  1  0  0  0  0
 18 21  1  0  0  0  0
 22 23  2  0  0  0  0
 22 24  1  0  0  0  0
 24 25  1  0  0  0  0
 24 26  1  0  0  0  0
 26 27  1  0  0  0  0
 26 28  1  0  0  0  0
 26 29  1  0  0  0  0
M  END
$$$$

  -OEChem-04042216023D

 29 28  0     1  0  0  0  0  0999 V2000
   -3.4614   -3.7499    1.0378 H   0  0  0  0  0  0  0  0  0  0  0  0
   -3.2469   -2.8580    0.4421 C   0  0  0  0  0  0  0  0  0  0  0  0
   -4.0023   -2.0990    0.6593 H   0  0  0  0  0  0  0  0  0  0  0  0
   -3.2990   -3.1232   -0.6167 H   0  0  0  0  0  0  0  0  0  0  0  0
   -1.8661   -2.3268    0.7773 C   0  0  0  0  0  0  0  0  0  0  0  0
   -1.2082   -2.8583    1.6533 O   0  0  0  0  0  0  0  0  0  0  0  0
   -1.3747   -1.2280    0.1007 N   0  0  0  0  0  0  0  0  0  0  0  0
   -1.9188   -0.9287   -0.7028 H   0  0  0  0  0  0  0  0  0  0  0  0
    0.0330   -0.7902    0.1650 C   0  0  1  0  0  0  0  0  0  0  0  0
    0.6428   -1.6364   -0.1719 H   0  0  0  0  0  0  0  0  0  0  0  0
    0.2346    0.3985   -0.8008 C   0  0  0  0  0  0  0  0  0  0  0  0
   -0.6122    0.4875   -1.4885 H   0  0  0  0  0  0  0  0  0  0  0  0
    0.2874    1.3336   -0.2330 H   0  0  0  0  0  0  0  0  0  0  0  0
    1.5131    0.2372   -1.6266 C   0  0  0  0  0  0  0  0  0  0  0  0
    1.7660    1.1919   -2.0985 H   0  0  0  0  0  0  0  0  0  0  0  0
    2.3497   -0.0476   -0.9784 H   0  0  0  0  0  0  0  0  0  0  0  0
    1.2537   -1.0285   -2.9342 S   0  0  0  0  0  0  0  0  0  0  0  0
    2.9075   -1.0583   -3.7305 C   0  0  0  0  0  0  0  0  0  0  0  0
    3.6751   -1.3351   -3.0013 H   0  0  0  0  0  0  0  0  0  0  0  0
    2.9186   -1.7890   -4.5448 H   0  0  0  0  0  0  0  0  0  0  0  0
    3.1496   -0.0733   -4.1403 H   0  0  0  0  0  0  0  0  0  0  0  0
    0.5533   -0.4200    1.5726 C   0  0  0  0  0  0  0  0  0  0  0  0
    1.7400   -0.5693    1.8350 O   0  0  0  0  0  0  0  0  0  0  0  0
   -0.2235    0.3631    2.4075 N   0  0  0  0  0  0  0  0  0  0  0  0
   -1.2174    0.3703    2.2020 H   0  0  0  0  0  0  0  0  0  0  0  0
    0.2171    0.7742    3.7345 C   0  0  0  0  0  0  0  0  0  0  0  0
    1.1454    1.3515    3.6695 H   0  0  0  0  0  0  0  0  0  0  0  0
   -0.5442    1.4011    4.2083 H   0  0  0  0  0  0  0  0  0  0  0  0
    0.3907   -0.1021    4.3679 H   0  0  0  0  0  0  0  0  0  0  0  0
  1  2  1  0  0  0  0
  2  3  1  0  0  0  0
  2  4  1  0  0  0  0
  2  5  1  0  0  0  0
  5  6  2  0  0  0  0
  5  7  1  0  0  0  0
  7  8  1  0  0  0  0
  7  9  1  0  0  0  0
  9 10  1  0  0  0  0
  9 11  1  0  0  0  0
  9 22  1  0  0  0  0
 11 12  1  0  0  0  0
 11 13  1  0  0  0  0
 11 14  1  0  0  0  0
 14 15  1  0  0  0  0
 14 16  1  0  0  0  0
 14 17  1  0  0  0  0
 17 18  1  0  0  0  0
 18 19  1  0  0  0  0
 18 20  1  0  0  0  0
 18 21  1  0  0  0  0
 22 23  2  0  0  0  0
 22 24  1  0  0  0  0
 24 25  1  0  0  0  0
 24 26  1  0  0  0  0
 26 27  1  0  0  0  0
 26 28  1  0  0  0  0
 26 29  1  0  0  0  0
M  END
$$$$

  -OEChem-04042216023D

 29 28  0     1  0  0  0  0  0999 V2000
   -2.7666   -4.0288    0.6598 H   0  0  0  0  0  0  0  0  0  0  0  0
   -2.7154   -3.0690    0.1376 C   0  0  0  0  0  0  0  0  0  0  0  0
   -3.5279   -2.4314    0.4943 H   0  0  0  0  0  0  0  0  0  0  0  0
   -2.8409   -3.2448   -0.9335 H   0  0  0  0  0  0  0  0  0  0  0  0
   -1.3782   -2.4031    0.4007 C   0  0  0  0  0  0  0  0  0  0  0  0
   -0.5436   -2.9653    1.0858 O   0  0  0  0  0  0  0  0  0  0  0  0
   -1.1128   -1.1606   -0.1398 N   0  0  0  0  0  0  0  0  0  0  0  0
   -1.8002   -0.7958   -0.7927 H   0  0  0  0  0  0  0  0  0  0  0  0
    0.2054   -0.5009   -0.0820 C   0  0  1  0  0  0  0  0  0  0  0  0
    0.9235   -1.1845   -0.5439 H   0  0  0  0  0  0  0  0  0  0  0  0
    0.1498    0.8065   -0.9004 C   0  0  0  0  0  0  0  0  0  0  0  0
   -0.7481    0.8385   -1.5257 H   0  0  0  0  0  0  0  0  0  0  0  0
    0.0906    1.6595   -0.2160 H   0  0  0  0  0  0  0  0  0  0  0  0
    1.3795    0.9758   -1.8013 C   0  0  0  0  0  0  0  0  0  0  0  0
    1.5589    2.0458   -1.9475 H   0  0  0  0  0  0  0  0  0  0  0  0
    2.2758    0.5580   -1.3293 H   0  0  0  0  0  0  0  0  0  0  0  0
    1.0952    0.2193   -3.4564 S   0  0  0  0  0  0  0  0  0  0  0  0
    1.4686   -1.5636   -3.2170 C   0  0  0  0  0  0  0  0  0  0  0  0
    0.6875   -2.0434   -2.6211 H   0  0  0  0  0  0  0  0  0  0  0  0
    1.5199   -2.0673   -4.1868 H   0  0  0  0  0  0  0  0  0  0  0  0
    2.4298   -1.6866   -2.7085 H   0  0  0  0  0  0  0  0  0  0  0  0
    0.7503   -0.2288    1.3379 C   0  0  0  0  0  0  0  0  0  0  0  0
    1.9595   -0.2294    1.5281 O   0  0  0  0  0  0  0  0  0  0  0  0
   -0.0828    0.2982    2.3081 N   0  0  0  0  0  0  0  0  0  0  0  0
   -1.0787    0.1980    2.1417 H   0  0  0  0  0  0  0  0  0  0  0  0
    0.3753    0.6051    3.6571 C   0  0  0  0  0  0  0  0  0  0  0  0
    1.1713    1.3569    3.6300 H   0  0  0  0  0  0  0  0  0  0  0  0
   -0.4505    1.0001    4.2565 H   0  0  0  0  0  0  0  0  0  0  0  0
    0.7591   -0.2971    4.1452 H   0  0  0  0  0  0  0  0  0  0  0  0
  1  2  1  0  0  0  0
  2  3  1  0  0  0  0
  2  4  1  0  0  0  0
  2  5  1  0  0  0  0
  5  6  2  0  0  0  0
  5  7  1  0  0  0  0
  7  8  1  0  0  0  0
  7  9  1  0  0  0  0
  9 10  1  0  0  0  0
  9 11  1  0  0  0  0
  9 22  1  0  0  0  0
 11 12  1  0  0  0  0
 11 13  1  0  0  0  0
 11 14  1  0  0  0  0
 14 15  1  0  0  0  0
 14 16  1  0  0  0  0
 14 17  1  0  0  0  0
 17 18  1  0  0  0  0
 18 19  1  0  0  0  0
 18 20  1  0  0  0  0
 18 21  1  0  0  0  0
 22 23  2  0  0  0  0
 22 24  1  0  0  0  0
 24 25  1  0  0  0  0
 24 26  1  0  0  0  0
 26 27  1  0  0  0  0
 26 28  1  0  0  0  0
 26 29  1  0  0  0  0
M  END
$$$$

  -OEChem-04042216023D

 29 28  0     1  0  0  0  0  0999 V2000
   -2.6938   -4.0785    0.5561 H   0  0  0  0  0  0  0  0  0  0  0  0
   -2.6688   -3.0895    0.0893 C   0  0  0  0  0  0  0  0  0  0  0  0
   -3.4806   -2.4856    0.5017 H   0  0  0  0  0  0  0  0  0  0  0  0
   -2.8191   -3.2062   -0.9866 H   0  0  0  0  0  0  0  0  0  0  0  0
   -1.3346   -2.4199    0.3577 C   0  0  0  0  0  0  0  0  0  0  0  0
   -0.4969   -2.9842    1.0369 O   0  0  0  0  0  0  0  0  0  0  0  0
   -1.0739   -1.1721   -0.1727 N   0  0  0  0  0  0  0  0  0  0  0  0
   -1.7740   -0.7896   -0.8013 H   0  0  0  0  0  0  0  0  0  0  0  0
    0.2356   -0.4971   -0.0942 C   0  0  1  0  0  0  0  0  0  0  0  0
    0.9595   -1.1783   -0.5549 H   0  0  0  0  0  0  0  0  0  0  0  0
    0.1775    0.8069   -0.9183 C   0  0  0  0  0  0  0  0  0  0  0  0
   -0.7131    0.8240   -1.5544 H   0  0  0  0  0  0  0  0  0  0  0  0
    0.0942    1.6619   -0.2385 H   0  0  0  0  0  0  0  0  0  0  0  0
    1.4229    0.9894   -1.7992 C   0  0  0  0  0  0  0  0  0  0  0  0
    1.7497    2.0321   -1.7304 H   0  0  0  0  0  0  0  0  0  0  0  0
    2.2579    0.3698   -1.4541 H   0  0  0  0  0  0  0  0  0  0  0  0
    1.0311    0.6319   -3.5603 S   0  0  0  0  0  0  0  0  0  0  0  0
    0.9084   -1.2008   -3.5683 C   0  0  0  0  0  0  0  0  0  0  0  0
    0.0751   -1.5317   -2.9426 H   0  0  0  0  0  0  0  0  0  0  0  0
    0.7429   -1.5601   -4.5884 H   0  0  0  0  0  0  0  0  0  0  0  0
    1.8334   -1.6441   -3.1871 H   0  0  0  0  0  0  0  0  0  0  0  0
    0.7650   -0.2217    1.3306 C   0  0  0  0  0  0  0  0  0  0  0  0
    1.9725   -0.2071    1.5296 O   0  0  0  0  0  0  0  0  0  0  0  0
   -0.0823    0.2934    2.2949 N   0  0  0  0  0  0  0  0  0  0  0  0
   -1.0757    0.1814    2.1215 H   0  0  0  0  0  0  0  0  0  0  0  0
    0.3621    0.6091    3.6464 C   0  0  0  0  0  0  0  0  0  0  0  0
    1.1576    1.3614    3.6227 H   0  0  0  0  0  0  0  0  0  0  0  0
   -0.4697    1.0071    4.2352 H   0  0  0  0  0  0  0  0  0  0  0  0
    0.7417   -0.2899    4.1434 H   0  0  0  0  0  0  0  0  0  0  0  0
  1  2  1  0  0  0  0
  2  3  1  0  0  0  0
  2  4  1  0  0  0  0
  2  5  1  0  0  0  0
  5  6  2  0  0  0  0
  5  7  1  0  0  0  0
  7  8  1  0  0  0  0
  7  9  1  0  0  0  0
  9 10  1  0  0  0  0
  9 11  1  0  0  0  0
  9 22  1  0  0  0  0
 11 12  1  0  0  0  0
 11 13  1  0  0  0  0
 11 14  1  0  0  0  0
 14 15  1  0  0  0  0
 14 16  1  0  0  0  0
 14 17  1  0  0  0  0
 17 18  1  0  0  0  0
 18 19  1  0  0  0  0
 18 20  1  0  0  0  0
 18 21  1  0  0  0  0
 22 23  2  0  0  0  0
 22 24  1  0  0  0  0
 24 25  1  0  0  0  0
 24 26  1  0  0  0  0
 26 27  1  0  0  0  0
 26 28  1  0  0  0  0
 26 29  1  0  0  0  0
M  END
$$$$

  -OEChem-04042216023D

 29 28  0     1  0  0  0  0  0999 V2000
   -2.7091   -4.0726    0.5983 H   0  0  0  0  0  0  0  0  0  0  0  0
   -2.6824   -3.0887    0.1211 C   0  0  0  0  0  0  0  0  0  0  0  0
   -3.4815   -2.4729    0.5404 H   0  0  0  0  0  0  0  0  0  0  0  0
   -2.8508   -3.2147   -0.9512 H   0  0  0  0  0  0  0  0  0  0  0  0
   -1.3375   -2.4294    0.3617 C   0  0  0  0  0  0  0  0  0  0  0  0
   -0.4909   -2.9997    1.0247 O   0  0  0  0  0  0  0  0  0  0  0  0
   -1.0787   -1.1817   -0.1704 N   0  0  0  0  0  0  0  0  0  0  0  0
   -1.7929   -0.7847   -0.7735 H   0  0  0  0  0  0  0  0  0  0  0  0
    0.2302   -0.5048   -0.0942 C   0  0  1  0  0  0  0  0  0  0  0  0
    0.9504   -1.1901   -0.5542 H   0  0  0  0  0  0  0  0  0  0  0  0
    0.1723    0.8003   -0.9184 C   0  0  0  0  0  0  0  0  0  0  0  0
   -0.7180    0.7999   -1.5547 H   0  0  0  0  0  0  0  0  0  0  0  0
    0.0740    1.6598   -0.2464 H   0  0  0  0  0  0  0  0  0  0  0  0
    1.4150    0.9942   -1.8051 C   0  0  0  0  0  0  0  0  0  0  0  0
    1.9052    1.9326   -1.5250 H   0  0  0  0  0  0  0  0  0  0  0  0
    2.1516    0.1974   -1.6596 H   0  0  0  0  0  0  0  0  0  0  0  0
    0.9363    1.0850   -3.5779 S   0  0  0  0  0  0  0  0  0  0  0  0
    0.5663   -0.6758   -3.9486 C   0  0  0  0  0  0  0  0  0  0  0  0
   -0.2480   -1.0380   -3.3148 H   0  0  0  0  0  0  0  0  0  0  0  0
    0.2693   -0.7839   -4.9959 H   0  0  0  0  0  0  0  0  0  0  0  0
    1.4515   -1.2938   -3.7708 H   0  0  0  0  0  0  0  0  0  0  0  0
    0.7606   -0.2269    1.3293 C   0  0  0  0  0  0  0  0  0  0  0  0
    1.9680   -0.2175    1.5285 O   0  0  0  0  0  0  0  0  0  0  0  0
   -0.0850    0.2885    2.2950 N   0  0  0  0  0  0  0  0  0  0  0  0
   -1.0793    0.1881    2.1196 H   0  0  0  0  0  0  0  0  0  0  0  0
    0.3614    0.6033    3.6464 C   0  0  0  0  0  0  0  0  0  0  0  0
    1.1604    1.3519    3.6222 H   0  0  0  0  0  0  0  0  0  0  0  0
   -0.4682    1.0054    4.2355 H   0  0  0  0  0  0  0  0  0  0  0  0
    0.7377   -0.2969    4.1437 H   0  0  0  0  0  0  0  0  0  0  0  0
  1  2  1  0  0  0  0
  2  3  1  0  0  0  0
  2  4  1  0  0  0  0
  2  5  1  0  0  0  0
  5  6  2  0  0  0  0
  5  7  1  0  0  0  0
  7  8  1  0  0  0  0
  7  9  1  0  0  0  0
  9 10  1  0  0  0  0
  9 11  1  0  0  0  0
  9 22  1  0  0  0  0
 11 12  1  0  0  0  0
 11 13  1  0  0  0  0
 11 14  1  0  0  0  0
 14 15  1  0  0  0  0
 14 16  1  0  0  0  0
 14 17  1  0  0  0  0
 17 18  1  0  0  0  0
 18 19  1  0  0  0  0
 18 20  1  0  0  0  0
 18 21  1  0  0  0  0
 22 23  2  0  0  0  0
 22 24  1  0  0  0  0
 24 25  1  0  0  0  0
 24 26  1  0  0  0  0
 26 27  1  0  0  0  0
 26 28  1  0  0  0  0
 26 29  1  0  0  0  0
M  END
$$$$

  -OEChem-04042216023D

 29 28  0     1  0  0  0  0  0999 V2000
   -2.7196   -4.0748    0.6423 H   0  0  0  0  0  0  0  0  0  0  0  0
   -2.6940   -3.0940    0.1591 C   0  0  0  0  0  0  0  0  0  0  0  0
   -3.4875   -2.4731    0.5815 H   0  0  0  0  0  0  0  0  0  0  0  0
   -2.8720   -3.2254   -0.9109 H   0  0  0  0  0  0  0  0  0  0  0  0
   -1.3451   -2.4376    0.3840 C   0  0  0  0  0  0  0  0  0  0  0  0
   -0.4917   -3.0086    1.0377 O   0  0  0  0  0  0  0  0  0  0  0  0
   -1.0918   -1.1898   -0.1503 N   0  0  0  0  0  0  0  0  0  0  0  0
   -1.8155   -0.7895   -0.7396 H   0  0  0  0  0  0  0  0  0  0  0  0
    0.2171   -0.5109   -0.0866 C   0  0  1  0  0  0  0  0  0  0  0  0
    0.9354   -1.1941   -0.5517 H   0  0  0  0  0  0  0  0  0  0  0  0
    0.1499    0.7988   -0.9035 C   0  0  0  0  0  0  0  0  0  0  0  0
   -0.7411    0.7765   -1.5383 H   0  0  0  0  0  0  0  0  0  0  0  0
    0.0379    1.6625   -0.2391 H   0  0  0  0  0  0  0  0  0  0  0  0
    1.3806    1.0022   -1.8047 C   0  0  0  0  0  0  0  0  0  0  0  0
    2.0339    1.7569   -1.3545 H   0  0  0  0  0  0  0  0  0  0  0  0
    1.9694    0.0847   -1.9012 H   0  0  0  0  0  0  0  0  0  0  0  0
    0.8652    1.5488   -3.4829 S   0  0  0  0  0  0  0  0  0  0  0  0
    0.3212   -0.0337   -4.2411 C   0  0  0  0  0  0  0  0  0  0  0  0
   -0.5050   -0.4680   -3.6715 H   0  0  0  0  0  0  0  0  0  0  0  0
   -0.0143    0.1392   -5.2680 H   0  0  0  0  0  0  0  0  0  0  0  0
    1.1495   -0.7483   -4.2598 H   0  0  0  0  0  0  0  0  0  0  0  0
    0.7595   -0.2329    1.3324 C   0  0  0  0  0  0  0  0  0  0  0  0
    1.9685   -0.2201    1.5214 O   0  0  0  0  0  0  0  0  0  0  0  0
   -0.0793    0.2808    2.3049 N   0  0  0  0  0  0  0  0  0  0  0  0
   -1.0747    0.1785    2.1375 H   0  0  0  0  0  0  0  0  0  0  0  0
    0.3774    0.5988    3.6519 C   0  0  0  0  0  0  0  0  0  0  0  0
    1.1771    1.3463    3.6193 H   0  0  0  0  0  0  0  0  0  0  0  0
   -0.4474    1.0039    4.2458 H   0  0  0  0  0  0  0  0  0  0  0  0
    0.7560   -0.3005    4.1494 H   0  0  0  0  0  0  0  0  0  0  0  0
  1  2  1  0  0  0  0
  2  3  1  0  0  0  0
  2  4  1  0  0  0  0
  2  5  1  0  0  0  0
  5  6  2  0  0  0  0
  5  7  1  0  0  0  0
  7  8  1  0  0  0  0
  7  9  1  0  0  0  0
  9 10  1  0  0  0  0
  9 11  1  0  0  0  0
  9 22  1  0  0  0  0
 11 12  1  0  0  0  0
 11 13  1  0  0  0  0
 11 14  1  0  0  0  0
 14 15  1  0  0  0  0
 14 16  1  0  0  0  0
 14 17  1  0  0  0  0
 17 18  1  0  0  0  0
 18 19  1  0  0  0  0
 18 20  1  0  0  0  0
 18 21  1  0  0  0  0
 22 23  2  0  0  0  0
 22 24  1  0  0  0  0
 24 25  1  0  0  0  0
 24 26  1  0  0  0  0
 26 27  1  0  0  0  0
 26 28  1  0  0  0  0
 26 29  1  0  0  0  0
M  END
$$$$

  -OEChem-04042216023D

 29 28  0     1  0  0  0  0  0999 V2000
   -2.7077   -4.0938    0.6577 H   0  0  0  0  0  0  0  0  0  0  0  0
   -2.6900   -3.1130    0.1736 C   0  0  0  0  0  0  0  0  0  0  0  0
   -3.4887   -2.4985    0.5958 H   0  0  0  0  0  0  0  0  0  0  0  0
   -2.8676   -3.2467   -0.8962 H   0  0  0  0  0  0  0  0  0  0  0  0
   -1.3459   -2.4456    0.3970 C   0  0  0  0  0  0  0  0  0  0  0  0
   -0.4852   -3.0129    1.0443 O   0  0  0  0  0  0  0  0  0  0  0  0
   -1.1042   -1.1944   -0.1347 N   0  0  0  0  0  0  0  0  0  0  0  0
   -1.8329   -0.7997   -0.7214 H   0  0  0  0  0  0  0  0  0  0  0  0
    0.2017   -0.5088   -0.0803 C   0  0  1  0  0  0  0  0  0  0  0  0
    0.9220   -1.1835   -0.5557 H   0  0  0  0  0  0  0  0  0  0  0  0
    0.1214    0.8053   -0.8878 C   0  0  0  0  0  0  0  0  0  0  0  0
   -0.7687    0.7751   -1.5230 H   0  0  0  0  0  0  0  0  0  0  0  0
    0.0069    1.6687   -0.2233 H   0  0  0  0  0  0  0  0  0  0  0  0
    1.3453    1.0070   -1.7930 C   0  0  0  0  0  0  0  0  0  0  0  0
    2.1278    1.5318   -1.2342 H   0  0  0  0  0  0  0  0  0  0  0  0
    1.7606    0.0483   -2.1185 H   0  0  0  0  0  0  0  0  0  0  0  0
    0.8775    1.9702   -3.2873 S   0  0  0  0  0  0  0  0  0  0  0  0
    0.1537    0.6766   -4.3724 C   0  0  0  0  0  0  0  0  0  0  0  0
   -0.7168    0.2182   -3.8952 H   0  0  0  0  0  0  0  0  0  0  0  0
   -0.1609    1.1190   -5.3223 H   0  0  0  0  0  0  0  0  0  0  0  0
    0.8937   -0.1024   -4.5782 H   0  0  0  0  0  0  0  0  0  0  0  0
    0.7575   -0.2324    1.3340 C   0  0  0  0  0  0  0  0  0  0  0  0
    1.9685   -0.2160    1.5101 O   0  0  0  0  0  0  0  0  0  0  0  0
   -0.0719    0.2740    2.3183 N   0  0  0  0  0  0  0  0  0  0  0  0
   -1.0691    0.1714    2.1618 H   0  0  0  0  0  0  0  0  0  0  0  0
    0.4003    0.5946    3.6593 C   0  0  0  0  0  0  0  0  0  0  0  0
    1.1920    1.3502    3.6169 H   0  0  0  0  0  0  0  0  0  0  0  0
   -0.4200    0.9906    4.2652 H   0  0  0  0  0  0  0  0  0  0  0  0
    0.7946   -0.3017    4.1496 H   0  0  0  0  0  0  0  0  0  0  0  0
  1  2  1  0  0  0  0
  2  3  1  0  0  0  0
  2  4  1  0  0  0  0
  2  5  1  0  0  0  0
  5  6  2  0  0  0  0
  5  7  1  0  0  0  0
  7  8  1  0  0  0  0
  7  9  1  0  0  0  0
  9 10  1  0  0  0  0
  9 11  1  0  0  0  0
  9 22  1  0  0  0  0
 11 12  1  0  0  0  0
 11 13  1  0  0  0  0
 11 14  1  0  0  0  0
 14 15  1  0  0  0  0
 14 16  1  0  0  0  0
 14 17  1  0  0  0  0
 17 18  1  0  0  0  0
 18 19  1  0  0  0  0
 18 20  1  0  0  0  0
 18 21  1  0  0  0  0
 22 23  2  0  0  0  0
 22 24  1  0  0  0  0
 24 25  1  0  0  0  0
 24 26  1  0  0  0  0
 26 27  1  0  0  0  0
 26 28  1  0  0  0  0
 26 29  1  0  0  0  0
M  END
$$$$

  -OEChem-04042216023D

 29 28  0     1  0  0  0  0  0999 V2000
   -2.6778   -4.1095    0.6555 H   0  0  0  0  0  0  0  0  0  0  0  0
   -2.6674   -3.1284    0.1720 C   0  0  0  0  0  0  0  0  0  0  0  0
   -3.4693   -2.5196    0.5960 H   0  0  0  0  0  0  0  0  0  0  0  0
   -2.8455   -3.2629   -0.8975 H   0  0  0  0  0  0  0  0  0  0  0  0
   -1.3276   -2.4522    0.3938 C   0  0  0  0  0  0  0  0  0  0  0  0
   -0.4616   -3.0159    1.0370 O   0  0  0  0  0  0  0  0  0  0  0  0
   -1.0952   -1.1984   -0.1361 N   0  0  0  0  0  0  0  0  0  0  0  0
   -1.8262   -0.8084   -0.7231 H   0  0  0  0  0  0  0  0  0  0  0  0
    0.2068   -0.5051   -0.0813 C   0  0  1  0  0  0  0  0  0  0  0  0
    0.9332   -1.1715   -0.5600 H   0  0  0  0  0  0  0  0  0  0  0  0
    0.1187    0.8081   -0.8877 C   0  0  0  0  0  0  0  0  0  0  0  0
   -0.7694    0.7819   -1.5252 H   0  0  0  0  0  0  0  0  0  0  0  0
    0.0103    1.6696   -0.2196 H   0  0  0  0  0  0  0  0  0  0  0  0
    1.3458    1.0014   -1.7857 C   0  0  0  0  0  0  0  0  0  0  0  0
    2.2066    1.2850   -1.1700 H   0  0  0  0  0  0  0  0  0  0  0  0
    1.5986    0.0718   -2.3057 H   0  0  0  0  0  0  0  0  0  0  0  0
    1.0128    2.3085   -3.0343 S   0  0  0  0  0  0  0  0  0  0  0  0
    0.0453    1.4104   -4.3117 C   0  0  0  0  0  0  0  0  0  0  0  0
   -0.8925    1.0362   -3.8921 H   0  0  0  0  0  0  0  0  0  0  0  0
   -0.1885    2.0821   -5.1431 H   0  0  0  0  0  0  0  0  0  0  0  0
    0.6215    0.5643   -4.6977 H   0  0  0  0  0  0  0  0  0  0  0  0
    0.7591   -0.2296    1.3353 C   0  0  0  0  0  0  0  0  0  0  0  0
    1.9694   -0.2132    1.5162 O   0  0  0  0  0  0  0  0  0  0  0  0
   -0.0755    0.2689    2.3193 N   0  0  0  0  0  0  0  0  0  0  0  0
   -1.0717    0.1679    2.1569 H   0  0  0  0  0  0  0  0  0  0  0  0
    0.3889    0.5884    3.6634 C   0  0  0  0  0  0  0  0  0  0  0  0
    1.1740    1.3512    3.6274 H   0  0  0  0  0  0  0  0  0  0  0  0
   -0.4375    0.9747    4.2676 H   0  0  0  0  0  0  0  0  0  0  0  0
    0.7891   -0.3060    4.1525 H   0  0  0  0  0  0  0  0  0  0  0  0
  1  2  1  0  0  0  0
  2  3  1  0  0  0  0
  2  4  1  0  0  0  0
  2  5  1  0  0  0  0
  5  6  2  0  0  0  0
  5  7  1  0  0  0  0
  7  8  1  0  0  0  0
  7  9  1  0  0  0  0
  9 10  1  0  0  0  0
  9 11  1  0  0  0  0
  9 22  1  0  0  0  0
 11 12  1  0  0  0  0
 11 13  1  0  0  0  0
 11 14  1  0  0  0  0
 14 15  1  0  0  0  0
 14 16  1  0  0  0  0
 14 17  1  0  0  0  0
 17 18  1  0  0  0  0
 18 19  1  0  0  0  0
 18 20  1  0  0  0  0
 18 21  1  0  0  0  0
 22 23  2  0  0  0  0
 22 24  1  0  0  0  0
 24 25  1  0  0  0  0
 24 26  1  0  0  0  0
 26 27  1  0  0  0  0
 26 28  1  0  0  0  0
 26 29  1  0  0  0  0
M  END
$$$$

  -OEChem-04042216023D

 29 28  0     1  0  0  0  0  0999 V2000
   -2.6592   -4.1100    0.6373 H   0  0  0  0  0  0  0  0  0  0  0  0
   -2.6414   -3.1277    0.1566 C   0  0  0  0  0  0  0  0  0  0  0  0
   -3.4419   -2.5157    0.5786 H   0  0  0  0  0  0  0  0  0  0  0  0
   -2.8153   -3.2586   -0.9140 H   0  0  0  0  0  0  0  0  0  0  0  0
   -1.2997   -2.4585    0.3869 C   0  0  0  0  0  0  0  0  0  0  0  0
   -0.4473   -3.0178    1.0516 O   0  0  0  0  0  0  0  0  0  0  0  0
   -1.0544   -1.2121   -0.1545 N   0  0  0  0  0  0  0  0  0  0  0  0
   -1.7729   -0.8313   -0.7621 H   0  0  0  0  0  0  0  0  0  0  0  0
    0.2481   -0.5207   -0.0886 C   0  0  1  0  0  0  0  0  0  0  0  0
    0.9915   -1.1831   -0.5470 H   0  0  0  0  0  0  0  0  0  0  0  0
    0.1638    0.7909   -0.9009 C   0  0  0  0  0  0  0  0  0  0  0  0
   -0.8398    0.9168   -1.3160 H   0  0  0  0  0  0  0  0  0  0  0  0
    0.3522    1.6530   -0.2514 H   0  0  0  0  0  0  0  0  0  0  0  0
    1.1855    0.8014   -2.0406 C   0  0  0  0  0  0  0  0  0  0  0  0
    2.1951    0.7127   -1.6239 H   0  0  0  0  0  0  0  0  0  0  0  0
    1.0214   -0.0491   -2.7102 H   0  0  0  0  0  0  0  0  0  0  0  0
    1.0654    2.3703   -2.9913 S   0  0  0  0  0  0  0  0  0  0  0  0
   -0.4832    2.1565   -3.9559 C   0  0  0  0  0  0  0  0  0  0  0  0
   -1.3483    2.1143   -3.2887 H   0  0  0  0  0  0  0  0  0  0  0  0
   -0.6143    2.9988   -4.6418 H   0  0  0  0  0  0  0  0  0  0  0  0
   -0.4412    1.2333   -4.5411 H   0  0  0  0  0  0  0  0  0  0  0  0
    0.7647   -0.2362    1.3400 C   0  0  0  0  0  0  0  0  0  0  0  0
    1.9694   -0.2282    1.5547 O   0  0  0  0  0  0  0  0  0  0  0  0
   -0.0944    0.2711    2.2983 N   0  0  0  0  0  0  0  0  0  0  0  0
   -1.0861    0.1691    2.1110 H   0  0  0  0  0  0  0  0  0  0  0  0
    0.3362    0.5936    3.6527 C   0  0  0  0  0  0  0  0  0  0  0  0
    1.1317    1.3461    3.6335 H   0  0  0  0  0  0  0  0  0  0  0  0
   -0.5019    0.9942    4.2309 H   0  0  0  0  0  0  0  0  0  0  0  0
    0.7114   -0.3027    4.1579 H   0  0  0  0  0  0  0  0  0  0  0  0
  1  2  1  0  0  0  0
  2  3  1  0  0  0  0
  2  4  1  0  0  0  0
  2  5  1  0  0  0  0
  5  6  2  0  0  0  0
  5  7  1  0  0  0  0
  7  8  1  0  0  0  0
  7  9  1  0  0  0  0
  9 10  1  0  0  0  0
  9 11  1  0  0  0  0
  9 22  1  0  0  0  0
 11 12  1  0  0  0  0
 11 13  1  0  0  0  0
 11 14  1  0  0  0  0
 14 15  1  0  0  0  0
 14 16  1  0  0  0  0
 14 17  1  0  0  0  0
 17 18  1  0  0  0  0
 18 19  1  0  0  0  0
 18 20  1  0  0  0  0
 18 21  1  0  0  0  0
 22 23  2  0  0  0  0
 22 24  1  0  0  0  0
 24 25  1  0  0  0  0
 24 26  1  0  0  0  0
 26 27  1  0  0  0  0
 26 28  1  0  0  0  0
 26 29  1  0  0  0  0
M  END
$$$$

  -OEChem-04042216023D

 29 28  0     1  0  0  0  0  0999 V2000
   -2.6493   -4.1169    0.6401 H   0  0  0  0  0  0  0  0  0  0  0  0
   -2.6354   -3.1358    0.1562 C   0  0  0  0  0  0  0  0  0  0  0  0
   -3.4384   -2.5257    0.5769 H   0  0  0  0  0  0  0  0  0  0  0  0
   -2.8095   -3.2709   -0.9140 H   0  0  0  0  0  0  0  0  0  0  0  0
   -1.2953   -2.4616    0.3841 C   0  0  0  0  0  0  0  0  0  0  0  0
   -0.4465   -3.0131    1.0597 O   0  0  0  0  0  0  0  0  0  0  0  0
   -1.0467   -1.2211   -0.1705 N   0  0  0  0  0  0  0  0  0  0  0  0
   -1.7600   -0.8485   -0.7891 H   0  0  0  0  0  0  0  0  0  0  0  0
    0.2551   -0.5281   -0.1015 C   0  0  1  0  0  0  0  0  0  0  0  0
    1.0013   -1.1983   -0.5437 H   0  0  0  0  0  0  0  0  0  0  0  0
    0.1788    0.7710   -0.9362 C   0  0  0  0  0  0  0  0  0  0  0  0
   -0.8204    0.9034   -1.3609 H   0  0  0  0  0  0  0  0  0  0  0  0
    0.3703    1.6346   -0.2895 H   0  0  0  0  0  0  0  0  0  0  0  0
    1.2115    0.7703   -2.0678 C   0  0  0  0  0  0  0  0  0  0  0  0
    2.1827    0.4469   -1.6762 H   0  0  0  0  0  0  0  0  0  0  0  0
    0.9156    0.0705   -2.8557 H   0  0  0  0  0  0  0  0  0  0  0  0
    1.4108    2.4634   -2.7561 S   0  0  0  0  0  0  0  0  0  0  0  0
   -0.1949    2.7688   -3.5936 C   0  0  0  0  0  0  0  0  0  0  0  0
   -1.0087    2.7997   -2.8637 H   0  0  0  0  0  0  0  0  0  0  0  0
   -0.1641    3.7276   -4.1201 H   0  0  0  0  0  0  0  0  0  0  0  0
   -0.3992    1.9772   -4.3205 H   0  0  0  0  0  0  0  0  0  0  0  0
    0.7587   -0.2265    1.3285 C   0  0  0  0  0  0  0  0  0  0  0  0
    1.9608   -0.2234    1.5570 O   0  0  0  0  0  0  0  0  0  0  0  0
   -0.1091    0.2915    2.2729 N   0  0  0  0  0  0  0  0  0  0  0  0
   -1.0987    0.1865    2.0768 H   0  0  0  0  0  0  0  0  0  0  0  0
    0.3076    0.6146    3.6315 C   0  0  0  0  0  0  0  0  0  0  0  0
    1.1102    1.3598    3.6199 H   0  0  0  0  0  0  0  0  0  0  0  0
   -0.5336    1.0245    4.1984 H   0  0  0  0  0  0  0  0  0  0  0  0
    0.6684   -0.2837    4.1436 H   0  0  0  0  0  0  0  0  0  0  0  0
  1  2  1  0  0  0  0
  2  3  1  0  0  0  0
  2  4  1  0  0  0  0
  2  5  1  0  0  0  0
  5  6  2  0  0  0  0
  5  7  1  0  0  0  0
  7  8  1  0  0  0  0
  7  9  1  0  0  0  0
  9 10  1  0  0  0  0
  9 11  1  0  0  0  0
  9 22  1  0  0  0  0
 11 12  1  0  0  0  0
 11 13  1  0  0  0  0
 11 14  1  0  0  0  0
 14 15  1  0  0  0  0
 14 16  1  0  0  0  0
 14 17  1  0  0  0  0
 17 18  1  0  0  0  0
 18 19  1  0  0  0  0
 18 20  1  0  0  0  0
 18 21  1  0  0  0  0
 22 23  2  0  0  0  0
 22 24  1  0  0  0  0
 24 25  1  0  0  0  0
 24 26  1  0  0  0  0
 26 27  1  0  0  0  0
 26 28  1  0  0  0  0
 26 29  1  0  0  0  0
M  END
$$$$

  -OEChem-04042216023D

 29 28  0     1  0  0  0  0  0999 V2000
   -2.6612   -4.1088    0.6295 H   0  0  0  0  0  0  0  0  0  0  0  0
   -2.6395   -3.1300    0.1418 C   0  0  0  0  0  0  0  0  0  0  0  0
   -3.4492   -2.5176    0.5459 H   0  0  0  0  0  0  0  0  0  0  0  0
   -2.7959   -3.2697   -0.9304 H   0  0  0  0  0  0  0  0  0  0  0  0
   -1.3034   -2.4550    0.3884 C   0  0  0  0  0  0  0  0  0  0  0  0
   -0.4690   -2.9994    1.0873 O   0  0  0  0  0  0  0  0  0  0  0  0
   -1.0429   -1.2221   -0.1770 N   0  0  0  0  0  0  0  0  0  0  0  0
   -1.7430   -0.8604   -0.8171 H   0  0  0  0  0  0  0  0  0  0  0  0
    0.2632   -0.5369   -0.1070 C   0  0  1  0  0  0  0  0  0  0  0  0
    1.0058   -1.2187   -0.5366 H   0  0  0  0  0  0  0  0  0  0  0  0
    0.1917    0.7533   -0.9583 C   0  0  0  0  0  0  0  0  0  0  0  0
   -0.8071    0.8936   -1.3821 H   0  0  0  0  0  0  0  0  0  0  0  0
    0.3853    1.6161   -0.3108 H   0  0  0  0  0  0  0  0  0  0  0  0
    1.2235    0.7551   -2.0948 C   0  0  0  0  0  0  0  0  0  0  0  0
    2.1210    0.2082   -1.7860 H   0  0  0  0  0  0  0  0  0  0  0  0
    0.8167    0.2588   -2.9814 H   0  0  0  0  0  0  0  0  0  0  0  0
    1.7432    2.4733   -2.4918 S   0  0  0  0  0  0  0  0  0  0  0  0
    0.2038    3.2203   -3.1590 C   0  0  0  0  0  0  0  0  0  0  0  0
   -0.5755    3.2410   -2.3920 H   0  0  0  0  0  0  0  0  0  0  0  0
    0.3982    4.2464   -3.4856 H   0  0  0  0  0  0  0  0  0  0  0  0
   -0.1566    2.6429   -4.0154 H   0  0  0  0  0  0  0  0  0  0  0  0
    0.7613   -0.2234    1.3228 C   0  0  0  0  0  0  0  0  0  0  0  0
    1.9615   -0.2310    1.5604 O   0  0  0  0  0  0  0  0  0  0  0  0
   -0.1079    0.3103    2.2571 N   0  0  0  0  0  0  0  0  0  0  0  0
   -1.0970    0.2096    2.0563 H   0  0  0  0  0  0  0  0  0  0  0  0
    0.3025    0.6414    3.6159 C   0  0  0  0  0  0  0  0  0  0  0  0
    1.1067    1.3848    3.6032 H   0  0  0  0  0  0  0  0  0  0  0  0
   -0.5408    1.0571    4.1755 H   0  0  0  0  0  0  0  0  0  0  0  0
    0.6580   -0.2540    4.1367 H   0  0  0  0  0  0  0  0  0  0  0  0
  1  2  1  0  0  0  0
  2  3  1  0  0  0  0
  2  4  1  0  0  0  0
  2  5  1  0  0  0  0
  5  6  2  0  0  0  0
  5  7  1  0  0  0  0
  7  8  1  0  0  0  0
  7  9  1  0  0  0  0
  9 10  1  0  0  0  0
  9 11  1  0  0  0  0
  9 22  1  0  0  0  0
 11 12  1  0  0  0  0
 11 13  1  0  0  0  0
 11 14  1  0  0  0  0
 14 15  1  0  0  0  0
 14 16  1  0  0  0  0
 14 17  1  0  0  0  0
 17 18  1  0  0  0  0
 18 19  1  0  0  0  0
 18 20  1  0  0  0  0
 18 21  1  0  0  0  0
 22 23  2  0  0  0  0
 22 24  1  0  0  0  0
 24 25  1  0  0  0  0
 24 26  1  0  0  0  0
 26 27  1  0  0  0  0
 26 28  1  0  0  0  0
 26 29  1  0  0  0  0
M  END
$$$$

  -OEChem-04042216023D

 29 28  0     1  0  0  0  0  0999 V2000
   -2.6673   -4.1021    0.6408 H   0  0  0  0  0  0  0  0  0  0  0  0
   -2.6418   -3.1249    0.1499 C   0  0  0  0  0  0  0  0  0  0  0  0
   -3.4498   -2.5089    0.5513 H   0  0  0  0  0  0  0  0  0  0  0  0
   -2.7978   -3.2675   -0.9220 H   0  0  0  0  0  0  0  0  0  0  0  0
   -1.3042   -2.4525    0.3955 C   0  0  0  0  0  0  0  0  0  0  0  0
   -0.4720   -2.9963    1.0975 O   0  0  0  0  0  0  0  0  0  0  0  0
   -1.0392   -1.2233   -0.1764 N   0  0  0  0  0  0  0  0  0  0  0  0
   -1.7370   -0.8638   -0.8202 H   0  0  0  0  0  0  0  0  0  0  0  0
    0.2696   -0.5423   -0.1097 C   0  0  1  0  0  0  0  0  0  0  0  0
    1.0100   -1.2295   -0.5328 H   0  0  0  0  0  0  0  0  0  0  0  0
    0.1982    0.7481   -0.9638 C   0  0  0  0  0  0  0  0  0  0  0  0
   -0.8029    0.8872   -1.3828 H   0  0  0  0  0  0  0  0  0  0  0  0
    0.3860    1.6090   -0.3122 H   0  0  0  0  0  0  0  0  0  0  0  0
    1.2226    0.7649   -2.1122 C   0  0  0  0  0  0  0  0  0  0  0  0
    2.0002    0.0124   -1.9467 H   0  0  0  0  0  0  0  0  0  0  0  0
    0.7310    0.5289   -3.0611 H   0  0  0  0  0  0  0  0  0  0  0  0
    2.0632    2.3966   -2.2159 S   0  0  0  0  0  0  0  0  0  0  0  0
    0.6994    3.5190   -2.7194 C   0  0  0  0  0  0  0  0  0  0  0  0
   -0.0850    3.5348   -1.9575 H   0  0  0  0  0  0  0  0  0  0  0  0
    1.0819    4.5361   -2.8466 H   0  0  0  0  0  0  0  0  0  0  0  0
    0.2657    3.1873   -3.6673 H   0  0  0  0  0  0  0  0  0  0  0  0
    0.7645   -0.2250    1.3205 C   0  0  0  0  0  0  0  0  0  0  0  0
    1.9625   -0.2465    1.5675 O   0  0  0  0  0  0  0  0  0  0  0  0
   -0.1066    0.3154    2.2495 N   0  0  0  0  0  0  0  0  0  0  0  0
   -1.0951    0.2224    2.0426 H   0  0  0  0  0  0  0  0  0  0  0  0
    0.2991    0.6427    3.6105 C   0  0  0  0  0  0  0  0  0  0  0  0
    1.1131    1.3753    3.6024 H   0  0  0  0  0  0  0  0  0  0  0  0
   -0.5422    1.0703    4.1640 H   0  0  0  0  0  0  0  0  0  0  0  0
    0.6399   -0.2568    4.1340 H   0  0  0  0  0  0  0  0  0  0  0  0
  1  2  1  0  0  0  0
  2  3  1  0  0  0  0
  2  4  1  0  0  0  0
  2  5  1  0  0  0  0
  5  6  2  0  0  0  0
  5  7  1  0  0  0  0
  7  8  1  0  0  0  0
  7  9  1  0  0  0  0
  9 10  1  0  0  0  0
  9 11  1  0  0  0  0
  9 22  1  0  0  0  0
 11 12  1  0  0  0  0
 11 13  1  0  0  0  0
 11 14  1  0  0  0  0
 14 15  1  0  0  0  0
 14 16  1  0  0  0  0
 14 17  1  0  0  0  0
 17 18  1  0  0  0  0
 18 19  1  0  0  0  0
 18 20  1  0  0  0  0
 18 21  1  0  0  0  0
 22 23  2  0  0  0  0
 22 24  1  0  0  0  0
 24 25  1  0  0  0  0
 24 26  1  0  0  0  0
 26 27  1  0  0  0  0
 26 28  1  0  0  0  0
 26 29  1  0  0  0  0
M  END
$$$$

  -OEChem-04042216023D

 29 28  0     1  0  0  0  0  0999 V2000
   -2.6652   -4.1003    0.6542 H   0  0  0  0  0  0  0  0  0  0  0  0
   -2.6406   -3.1237    0.1620 C   0  0  0  0  0  0  0  0  0  0  0  0
   -3.4452   -2.5059    0.5674 H   0  0  0  0  0  0  0  0  0  0  0  0
   -2.8022   -3.2672   -0.9089 H   0  0  0  0  0  0  0  0  0  0  0  0
   -1.3006   -2.4541    0.4013 C   0  0  0  0  0  0  0  0  0  0  0  0
   -0.4686   -2.9983    1.1030 O   0  0  0  0  0  0  0  0  0  0  0  0
   -1.0360   -1.2257   -0.1722 N   0  0  0  0  0  0  0  0  0  0  0  0
   -1.7326   -0.8697   -0.8189 H   0  0  0  0  0  0  0  0  0  0  0  0
    0.2740   -0.5463   -0.1090 C   0  0  1  0  0  0  0  0  0  0  0  0
    1.0165   -1.2304   -0.5329 H   0  0  0  0  0  0  0  0  0  0  0  0
    0.1980    0.7518   -0.9532 C   0  0  0  0  0  0  0  0  0  0  0  0
   -0.8057    0.8754   -1.3709 H   0  0  0  0  0  0  0  0  0  0  0  0
    0.3678    1.6148   -0.3002 H   0  0  0  0  0  0  0  0  0  0  0  0
    1.2113    0.7868   -2.1134 C   0  0  0  0  0  0  0  0  0  0  0  0
    1.8099   -0.1286   -2.1446 H   0  0  0  0  0  0  0  0  0  0  0  0
    0.6780    0.8574   -3.0664 H   0  0  0  0  0  0  0  0  0  0  0  0
    2.3566    2.2156   -1.9504 S   0  0  0  0  0  0  0  0  0  0  0  0
    1.2621    3.6515   -2.2890 C   0  0  0  0  0  0  0  0  0  0  0  0
    0.4594    3.7050   -1.5483 H   0  0  0  0  0  0  0  0  0  0  0  0
    1.8398    4.5797   -2.2443 H   0  0  0  0  0  0  0  0  0  0  0  0
    0.8187    3.5633   -3.2852 H   0  0  0  0  0  0  0  0  0  0  0  0
    0.7667   -0.2317    1.3233 C   0  0  0  0  0  0  0  0  0  0  0  0
    1.9625   -0.2659    1.5790 O   0  0  0  0  0  0  0  0  0  0  0  0
   -0.1062    0.3085    2.2510 N   0  0  0  0  0  0  0  0  0  0  0  0
   -1.0942    0.2183    2.0401 H   0  0  0  0  0  0  0  0  0  0  0  0
    0.2939    0.6259    3.6159 C   0  0  0  0  0  0  0  0  0  0  0  0
    1.1124    1.3536    3.6164 H   0  0  0  0  0  0  0  0  0  0  0  0
   -0.5484    1.0554    4.1663 H   0  0  0  0  0  0  0  0  0  0  0  0
    0.6261   -0.2783    4.1368 H   0  0  0  0  0  0  0  0  0  0  0  0
  1  2  1  0  0  0  0
  2  3  1  0  0  0  0
  2  4  1  0  0  0  0
  2  5  1  0  0  0  0
  5  6  2  0  0  0  0
  5  7  1  0  0  0  0
  7  8  1  0  0  0  0
  7  9  1  0  0  0  0
  9 10  1  0  0  0  0
  9 11  1  0  0  0  0
  9 22  1  0  0  0  0
 11 12  1  0  0  0  0
 11 13  1  0  0  0  0
 11 14  1  0  0  0  0
 14 15  1  0  0  0  0
 14 16  1  0  0  0  0
 14 17  1  0  0  0  0
 17 18  1  0  0  0  0
 18 19  1  0  0  0  0
 18 20  1  0  0  0  0
 18 21  1  0  0  0  0
 22 23  2  0  0  0  0
 22 24  1  0  0  0  0
 24 25  1  0  0  0  0
 24 26  1  0  0  0  0
 26 27  1  0  0  0  0
 26 28  1  0  0  0  0
 26 29  1  0  0  0  0
M  END
$$$$

  -OEChem-04042216023D

 29 28  0     1  0  0  0  0  0999 V2000
   -2.6550   -4.1089    0.6544 H   0  0  0  0  0  0  0  0  0  0  0  0
   -2.6338   -3.1327    0.1615 C   0  0  0  0  0  0  0  0  0  0  0  0
   -3.4444   -2.5193    0.5620 H   0  0  0  0  0  0  0  0  0  0  0  0
   -2.7888   -3.2782   -0.9102 H   0  0  0  0  0  0  0  0  0  0  0  0
   -1.2986   -2.4553    0.4060 C   0  0  0  0  0  0  0  0  0  0  0  0
   -0.4654   -2.9965    1.1084 O   0  0  0  0  0  0  0  0  0  0  0  0
   -1.0397   -1.2250   -0.1663 N   0  0  0  0  0  0  0  0  0  0  0  0
   -1.7383   -0.8725   -0.8128 H   0  0  0  0  0  0  0  0  0  0  0  0
    0.2687   -0.5409   -0.1082 C   0  0  1  0  0  0  0  0  0  0  0  0
    1.0160   -1.2160   -0.5387 H   0  0  0  0  0  0  0  0  0  0  0  0
    0.1851    0.7624   -0.9424 C   0  0  0  0  0  0  0  0  0  0  0  0
   -0.8189    0.8639   -1.3656 H   0  0  0  0  0  0  0  0  0  0  0  0
    0.3367    1.6321   -0.2949 H   0  0  0  0  0  0  0  0  0  0  0  0
    1.1930    0.7988   -2.1051 C   0  0  0  0  0  0  0  0  0  0  0  0
    1.5741   -0.2014   -2.3331 H   0  0  0  0  0  0  0  0  0  0  0  0
    0.6918    1.1641   -3.0069 H   0  0  0  0  0  0  0  0  0  0  0  0
    2.5999    1.9204   -1.7305 S   0  0  0  0  0  0  0  0  0  0  0  0
    1.8501    3.5930   -1.8546 C   0  0  0  0  0  0  0  0  0  0  0  0
    1.0618    3.7191   -1.1074 H   0  0  0  0  0  0  0  0  0  0  0  0
    2.6150    4.3563   -1.6840 H   0  0  0  0  0  0  0  0  0  0  0  0
    1.4216    3.7434   -2.8497 H   0  0  0  0  0  0  0  0  0  0  0  0
    0.7638   -0.2289    1.3239 C   0  0  0  0  0  0  0  0  0  0  0  0
    1.9591   -0.2631    1.5812 O   0  0  0  0  0  0  0  0  0  0  0  0
   -0.1102    0.3054    2.2541 N   0  0  0  0  0  0  0  0  0  0  0  0
   -1.0977    0.2100    2.0436 H   0  0  0  0  0  0  0  0  0  0  0  0
    0.2896    0.6116    3.6218 C   0  0  0  0  0  0  0  0  0  0  0  0
    1.1084    1.3388    3.6286 H   0  0  0  0  0  0  0  0  0  0  0  0
   -0.5521    1.0370    4.1765 H   0  0  0  0  0  0  0  0  0  0  0  0
    0.6216   -0.2971    4.1351 H   0  0  0  0  0  0  0  0  0  0  0  0
  1  2  1  0  0  0  0
  2  3  1  0  0  0  0
  2  4  1  0  0  0  0
  2  5  1  0  0  0  0
  5  6  2  0  0  0  0
  5  7  1  0  0  0  0
  7  8  1  0  0  0  0
  7  9  1  0  0  0  0
  9 10  1  0  0  0  0
  9 11  1  0  0  0  0
  9 22  1  0  0  0  0
 11 12  1  0  0  0  0
 11 13  1  0  0  0  0
 11 14  1  0  0  0  0
 14 15  1  0  0  0  0
 14 16  1  0  0  0  0
 14 17  1  0  0  0  0
 17 18  1  0  0  0  0
 18 19  1  0  0  0  0
 18 20  1  0  0  0  0
 18 21  1  0  0  0  0
 22 23  2  0  0  0  0
 22 24  1  0  0  0  0
 24 25  1  0  0  0  0
 24 26  1  0  0  0  0
 26 27  1  0  0  0  0
 26 28  1  0  0  0  0
 26 29  1  0  0  0  0
M  END
$$$$

  -OEChem-04042216023D

 29 28  0     1  0  0  0  0  0999 V2000
   -2.6439   -4.1084    0.6548 H   0  0  0  0  0  0  0  0  0  0  0  0
   -2.6234   -3.1351    0.1560 C   0  0  0  0  0  0  0  0  0  0  0  0
   -3.4417   -2.5240    0.5439 H   0  0  0  0  0  0  0  0  0  0  0  0
   -2.7668   -3.2879   -0.9164 H   0  0  0  0  0  0  0  0  0  0  0  0
   -1.2950   -2.4477    0.4100 C   0  0  0  0  0  0  0  0  0  0  0  0
   -0.4635   -2.9808    1.1205 O   0  0  0  0  0  0  0  0  0  0  0  0
   -1.0409   -1.2188   -0.1673 N   0  0  0  0  0  0  0  0  0  0  0  0
   -1.7375   -0.8782   -0.8221 H   0  0  0  0  0  0  0  0  0  0  0  0
    0.2660   -0.5305   -0.1176 C   0  0  1  0  0  0  0  0  0  0  0  0
    1.0170   -1.1982   -0.5550 H   0  0  0  0  0  0  0  0  0  0  0  0
    0.1713    0.7715   -0.9508 C   0  0  0  0  0  0  0  0  0  0  0  0
   -0.8336    0.8624   -1.3740 H   0  0  0  0  0  0  0  0  0  0  0  0
    0.3193    1.6471   -0.3118 H   0  0  0  0  0  0  0  0  0  0  0  0
    1.1743    0.7958   -2.1146 C   0  0  0  0  0  0  0  0  0  0  0  0
    1.3368   -0.2127   -2.5083 H   0  0  0  0  0  0  0  0  0  0  0  0
    0.7626    1.3984   -2.9303 H   0  0  0  0  0  0  0  0  0  0  0  0
    2.7798    1.5367   -1.6130 S   0  0  0  0  0  0  0  0  0  0  0  0
    2.3961    3.3203   -1.3959 C   0  0  0  0  0  0  0  0  0  0  0  0
    1.6939    3.4670   -0.5708 H   0  0  0  0  0  0  0  0  0  0  0  0
    3.3135    3.8723   -1.1706 H   0  0  0  0  0  0  0  0  0  0  0  0
    1.9580    3.7286   -2.3112 H   0  0  0  0  0  0  0  0  0  0  0  0
    0.7630   -0.2138    1.3136 C   0  0  0  0  0  0  0  0  0  0  0  0
    1.9575   -0.2471    1.5740 O   0  0  0  0  0  0  0  0  0  0  0  0
   -0.1114    0.3201    2.2443 N   0  0  0  0  0  0  0  0  0  0  0  0
   -1.0987    0.2176    2.0359 H   0  0  0  0  0  0  0  0  0  0  0  0
    0.2875    0.6205    3.6137 C   0  0  0  0  0  0  0  0  0  0  0  0
    1.1062    1.3477    3.6238 H   0  0  0  0  0  0  0  0  0  0  0  0
   -0.5546    1.0435    4.1695 H   0  0  0  0  0  0  0  0  0  0  0  0
    0.6192   -0.2902    4.1236 H   0  0  0  0  0  0  0  0  0  0  0  0
  1  2  1  0  0  0  0
  2  3  1  0  0  0  0
  2  4  1  0  0  0  0
  2  5  1  0  0  0  0
  5  6  2  0  0  0  0
  5  7  1  0  0  0  0
  7  8  1  0  0  0  0
  7  9  1  0  0  0  0
  9 10  1  0  0  0  0
  9 11  1  0  0  0  0
  9 22  1  0  0  0  0
 11 12  1  0  0  0  0
 11 13  1  0  0  0  0
 11 14  1  0  0  0  0
 14 15  1  0  0  0  0
 14 16  1  0  0  0  0
 14 17  1  0  0  0  0
 17 18  1  0  0  0  0
 18 19  1  0  0  0  0
 18 20  1  0  0  0  0
 18 21  1  0  0  0  0
 22 23  2  0  0  0  0
 22 24  1  0  0  0  0
 24 25  1  0  0  0  0
 24 26  1  0  0  0  0
 26 27  1  0  0  0  0
 26 28  1  0  0  0  0
 26 29  1  0  0  0  0
M  END
$$$$

  -OEChem-04042216023D

 29 28  0     1  0  0  0  0  0999 V2000
   -2.5840   -4.0611    0.7862 H   0  0  0  0  0  0  0  0  0  0  0  0
   -2.5652   -3.1372    0.2007 C   0  0  0  0  0  0  0  0  0  0  0  0
   -3.3978   -2.5044    0.5172 H   0  0  0  0  0  0  0  0  0  0  0  0
   -2.6864   -3.3892   -0.8555 H   0  0  0  0  0  0  0  0  0  0  0  0
   -1.2493   -2.4127    0.4136 C   0  0  0  0  0  0  0  0  0  0  0  0
   -0.3980   -2.9052    1.1300 O   0  0  0  0  0  0  0  0  0  0  0  0
   -1.0307   -1.1945   -0.2007 N   0  0  0  0  0  0  0  0  0  0  0  0
   -1.7368   -0.8963   -0.8661 H   0  0  0  0  0  0  0  0  0  0  0  0
    0.2667   -0.4866   -0.1993 C   0  0  1  0  0  0  0  0  0  0  0  0
    1.0190   -1.1466   -0.6467 H   0  0  0  0  0  0  0  0  0  0  0  0
    0.1305    0.8001   -1.0488 C   0  0  0  0  0  0  0  0  0  0  0  0
   -0.8859    0.8712   -1.4477 H   0  0  0  0  0  0  0  0  0  0  0  0
    0.2802    1.6909   -0.4325 H   0  0  0  0  0  0  0  0  0  0  0  0
    1.1009    0.8135   -2.2385 C   0  0  0  0  0  0  0  0  0  0  0  0
    1.0503   -0.1399   -2.7743 H   0  0  0  0  0  0  0  0  0  0  0  0
    0.7848    1.5963   -2.9353 H   0  0  0  0  0  0  0  0  0  0  0  0
    2.8465    1.1552   -1.7632 S   0  0  0  0  0  0  0  0  0  0  0  0
    2.8073    2.6454   -0.6884 C   0  0  0  0  0  0  0  0  0  0  0  0
    2.3507    2.4103    0.2774 H   0  0  0  0  0  0  0  0  0  0  0  0
    3.8268    2.9977   -0.5066 H   0  0  0  0  0  0  0  0  0  0  0  0
    2.2390    3.4477   -1.1673 H   0  0  0  0  0  0  0  0  0  0  0  0
    0.7855   -0.1315    1.2158 C   0  0  0  0  0  0  0  0  0  0  0  0
    1.9853   -0.1184    1.4537 O   0  0  0  0  0  0  0  0  0  0  0  0
   -0.0835    0.4092    2.1473 N   0  0  0  0  0  0  0  0  0  0  0  0
   -1.0712    0.2710    1.9621 H   0  0  0  0  0  0  0  0  0  0  0  0
    0.3327    0.7540    3.5008 C   0  0  0  0  0  0  0  0  0  0  0  0
    1.1297    1.5048    3.4777 H   0  0  0  0  0  0  0  0  0  0  0  0
   -0.5107    1.1655    4.0632 H   0  0  0  0  0  0  0  0  0  0  0  0
    0.7011   -0.1342    4.0251 H   0  0  0  0  0  0  0  0  0  0  0  0
  1  2  1  0  0  0  0
  2  3  1  0  0  0  0
  2  4  1  0  0  0  0
  2  5  1  0  0  0  0
  5  6  2  0  0  0  0
  5  7  1  0  0  0  0
  7  8  1  0  0  0  0
  7  9  1  0  0  0  0
  9 10  1  0  0  0  0
  9 11  1  0  0  0  0
  9 22  1  0  0  0  0
 11 12  1  0  0  0  0
 11 13  1  0  0  0  0
 11 14  1  0  0  0  0
 14 15  1  0  0  0  0
 14 16  1  0  0  0  0
 14 17  1  0  0  0  0
 17 18  1  0  0  0  0
 18 19  1  0  0  0  0
 18 20  1  0  0  0  0
 18 21  1  0  0  0  0
 22 23  2  0  0  0  0
 22 24  1  0  0  0  0
 24 25  1  0  0  0  0
 24 26  1  0  0  0  0
 26 27  1  0  0  0  0
 26 28  1  0  0  0  0
 26 29  1  0  0  0  0
M  END
$$$$

  -OEChem-04042216023D

 29 28  0     1  0  0  0  0  0999 V2000
   -2.6080   -4.0777    0.6845 H   0  0  0  0  0  0  0  0  0  0  0  0
   -2.5923   -3.1113    0.1722 C   0  0  0  0  0  0  0  0  0  0  0  0
   -3.4128   -2.4984    0.5526 H   0  0  0  0  0  0  0  0  0  0  0  0
   -2.7356   -3.2801   -0.8979 H   0  0  0  0  0  0  0  0  0  0  0  0
   -1.2669   -2.4146    0.4157 C   0  0  0  0  0  0  0  0  0  0  0  0
   -0.4374   -2.9317    1.1402 O   0  0  0  0  0  0  0  0  0  0  0  0
   -1.0184   -1.1923   -0.1782 N   0  0  0  0  0  0  0  0  0  0  0  0
   -1.7102   -0.8736   -0.8490 H   0  0  0  0  0  0  0  0  0  0  0  0
    0.2906   -0.5061   -0.1519 C   0  0  1  0  0  0  0  0  0  0  0  0
    1.0365   -1.1710   -0.6021 H   0  0  0  0  0  0  0  0  0  0  0  0
    0.1698    0.7930   -0.9882 C   0  0  0  0  0  0  0  0  0  0  0  0
   -0.8478    0.9007   -1.3758 H   0  0  0  0  0  0  0  0  0  0  0  0
    0.3540    1.6652   -0.3530 H   0  0  0  0  0  0  0  0  0  0  0  0
    1.1396    0.8328   -2.1781 C   0  0  0  0  0  0  0  0  0  0  0  0
    0.9156    0.0004   -2.8529 H   0  0  0  0  0  0  0  0  0  0  0  0
    0.9841    1.7613   -2.7365 H   0  0  0  0  0  0  0  0  0  0  0  0
    2.9090    0.7302   -1.6874 S   0  0  0  0  0  0  0  0  0  0  0  0
    3.1700    2.2056   -0.6236 C   0  0  0  0  0  0  0  0  0  0  0  0
    2.5784    2.1301    0.2929 H   0  0  0  0  0  0  0  0  0  0  0  0
    4.2253    2.2800   -0.3450 H   0  0  0  0  0  0  0  0  0  0  0  0
    2.8825    3.1159   -1.1572 H   0  0  0  0  0  0  0  0  0  0  0  0
    0.7902   -0.1827    1.2788 C   0  0  0  0  0  0  0  0  0  0  0  0
    1.9835   -0.2063    1.5473 O   0  0  0  0  0  0  0  0  0  0  0  0
   -0.0884    0.3569    2.2020 N   0  0  0  0  0  0  0  0  0  0  0  0
   -1.0737    0.2375    1.9927 H   0  0  0  0  0  0  0  0  0  0  0  0
    0.3023    0.6590    3.5734 C   0  0  0  0  0  0  0  0  0  0  0  0
    1.1237    1.3832    3.5880 H   0  0  0  0  0  0  0  0  0  0  0  0
   -0.5421    1.0864    4.1224 H   0  0  0  0  0  0  0  0  0  0  0  0
    0.6269   -0.2520    4.0872 H   0  0  0  0  0  0  0  0  0  0  0  0
  1  2  1  0  0  0  0
  2  3  1  0  0  0  0
  2  4  1  0  0  0  0
  2  5  1  0  0  0  0
  5  6  2  0  0  0  0
  5  7  1  0  0  0  0
  7  8  1  0  0  0  0
  7  9  1  0  0  0  0
  9 10  1  0  0  0  0
  9 11  1  0  0  0  0
  9 22  1  0  0  0  0
 11 12  1  0  0  0  0
 11 13  1  0  0  0  0
 11 14  1  0  0  0  0
 14 15  1  0  0  0  0
 14 16  1  0  0  0  0
 14 17  1  0  0  0  0
 17 18  1  0  0  0  0
 18 19  1  0  0  0  0
 18 20  1  0  0  0  0
 18 21  1  0  0  0  0
 22 23  2  0  0  0  0
 22 24  1  0  0  0  0
 24 25  1  0  0  0  0
 24 26  1  0  0  0  0
 26 27  1  0  0  0  0
 26 28  1  0  0  0  0
 26 29  1  0  0  0  0
M  END
$$$$

  -OEChem-04042216023D

 29 28  0     1  0  0  0  0  0999 V2000
   -2.6617   -4.0860    0.6254 H   0  0  0  0  0  0  0  0  0  0  0  0
   -2.6282   -3.1090    0.1346 C   0  0  0  0  0  0  0  0  0  0  0  0
   -3.4571   -2.5008    0.5046 H   0  0  0  0  0  0  0  0  0  0  0  0
   -2.7417   -3.2544   -0.9424 H   0  0  0  0  0  0  0  0  0  0  0  0
   -1.3078   -2.4230    0.4304 C   0  0  0  0  0  0  0  0  0  0  0  0
   -0.5106   -2.9485    1.1846 O   0  0  0  0  0  0  0  0  0  0  0  0
   -1.0289   -1.2010   -0.1507 N   0  0  0  0  0  0  0  0  0  0  0  0
   -1.6899   -0.8832   -0.8523 H   0  0  0  0  0  0  0  0  0  0  0  0
    0.2910   -0.5378   -0.0963 C   0  0  1  0  0  0  0  0  0  0  0  0
    1.0264   -1.2194   -0.5365 H   0  0  0  0  0  0  0  0  0  0  0  0
    0.1990    0.7696   -0.9281 C   0  0  0  0  0  0  0  0  0  0  0  0
   -0.8177    0.9135   -1.3064 H   0  0  0  0  0  0  0  0  0  0  0  0
    0.4098    1.6217   -0.2732 H   0  0  0  0  0  0  0  0  0  0  0  0
    1.1724    0.8470   -2.1176 C   0  0  0  0  0  0  0  0  0  0  0  0
    0.7967    0.1958   -2.9133 H   0  0  0  0  0  0  0  0  0  0  0  0
    1.1872    1.8691   -2.5090 H   0  0  0  0  0  0  0  0  0  0  0  0
    2.8926    0.3216   -1.7337 S   0  0  0  0  0  0  0  0  0  0  0  0
    3.4994    1.6768   -0.6522 C   0  0  0  0  0  0  0  0  0  0  0  0
    2.8614    1.7829    0.2292 H   0  0  0  0  0  0  0  0  0  0  0  0
    4.5173    1.4574   -0.3171 H   0  0  0  0  0  0  0  0  0  0  0  0
    3.5053    2.6243   -1.1982 H   0  0  0  0  0  0  0  0  0  0  0  0
    0.7707   -0.2330    1.3455 C   0  0  0  0  0  0  0  0  0  0  0  0
    1.9590   -0.2744    1.6341 O   0  0  0  0  0  0  0  0  0  0  0  0
   -0.1156    0.3152    2.2564 N   0  0  0  0  0  0  0  0  0  0  0  0
   -1.0987    0.2127    2.0282 H   0  0  0  0  0  0  0  0  0  0  0  0
    0.2531    0.5945    3.6385 C   0  0  0  0  0  0  0  0  0  0  0  0
    1.0821    1.3088    3.6777 H   0  0  0  0  0  0  0  0  0  0  0  0
   -0.5964    1.0240    4.1778 H   0  0  0  0  0  0  0  0  0  0  0  0
    0.5577   -0.3268    4.1463 H   0  0  0  0  0  0  0  0  0  0  0  0
  1  2  1  0  0  0  0
  2  3  1  0  0  0  0
  2  4  1  0  0  0  0
  2  5  1  0  0  0  0
  5  6  2  0  0  0  0
  5  7  1  0  0  0  0
  7  8  1  0  0  0  0
  7  9  1  0  0  0  0
  9 10  1  0  0  0  0
  9 11  1  0  0  0  0
  9 22  1  0  0  0  0
 11 12  1  0  0  0  0
 11 13  1  0  0  0  0
 11 14  1  0  0  0  0
 14 15  1  0  0  0  0
 14 16  1  0  0  0  0
 14 17  1  0  0  0  0
 17 18  1  0  0  0  0
 18 19  1  0  0  0  0
 18 20  1  0  0  0  0
 18 21  1  0  0  0  0
 22 23  2  0  0  0  0
 22 24  1  0  0  0  0
 24 25  1  0  0  0  0
 24 26  1  0  0  0  0
 26 27  1  0  0  0  0
 26 28  1  0  0  0  0
 26 29  1  0  0  0  0
M  END
$$$$

  -OEChem-04042216023D

 29 28  0     1  0  0  0  0  0999 V2000
   -2.7451   -4.0803    0.6117 H   0  0  0  0  0  0  0  0  0  0  0  0
   -2.6798   -3.1110    0.1088 C   0  0  0  0  0  0  0  0  0  0  0  0
   -3.5148   -2.4877    0.4369 H   0  0  0  0  0  0  0  0  0  0  0  0
   -2.7530   -3.2707   -0.9696 H   0  0  0  0  0  0  0  0  0  0  0  0
   -1.3631   -2.4366    0.4463 C   0  0  0  0  0  0  0  0  0  0  0  0
   -0.5971   -2.9666    1.2293 O   0  0  0  0  0  0  0  0  0  0  0  0
   -1.0530   -1.2190   -0.1285 N   0  0  0  0  0  0  0  0  0  0  0  0
   -1.6850   -0.9009   -0.8561 H   0  0  0  0  0  0  0  0  0  0  0  0
    0.2763   -0.5782   -0.0437 C   0  0  1  0  0  0  0  0  0  0  0  0
    1.0006   -1.2829   -0.4609 H   0  0  0  0  0  0  0  0  0  0  0  0
    0.2246    0.7320   -0.8797 C   0  0  0  0  0  0  0  0  0  0  0  0
   -0.7868    0.9014   -1.2618 H   0  0  0  0  0  0  0  0  0  0  0  0
    0.4417    1.5709   -0.2094 H   0  0  0  0  0  0  0  0  0  0  0  0
    1.2101    0.8438   -2.0627 C   0  0  0  0  0  0  0  0  0  0  0  0
    0.7173    0.4240   -2.9453 H   0  0  0  0  0  0  0  0  0  0  0  0
    1.4071    1.8998   -2.2739 H   0  0  0  0  0  0  0  0  0  0  0  0
    2.8079   -0.0490   -1.8733 S   0  0  0  0  0  0  0  0  0  0  0  0
    3.7502    1.0765   -0.7689 C   0  0  0  0  0  0  0  0  0  0  0  0
    3.1833    1.2866    0.1417 H   0  0  0  0  0  0  0  0  0  0  0  0
    4.7006    0.6140   -0.4868 H   0  0  0  0  0  0  0  0  0  0  0  0
    3.9572    2.0220   -1.2778 H   0  0  0  0  0  0  0  0  0  0  0  0
    0.7340   -0.2796    1.4062 C   0  0  0  0  0  0  0  0  0  0  0  0
    1.9177   -0.3327    1.7120 O   0  0  0  0  0  0  0  0  0  0  0  0
   -0.1587    0.2849    2.3003 N   0  0  0  0  0  0  0  0  0  0  0  0
   -1.1394    0.1930    2.0574 H   0  0  0  0  0  0  0  0  0  0  0  0
    0.1924    0.5707    3.6859 C   0  0  0  0  0  0  0  0  0  0  0  0
    1.0286    1.2762    3.7328 H   0  0  0  0  0  0  0  0  0  0  0  0
   -0.6605    1.0139    4.2083 H   0  0  0  0  0  0  0  0  0  0  0  0
    0.4792   -0.3498    4.2050 H   0  0  0  0  0  0  0  0  0  0  0  0
  1  2  1  0  0  0  0
  2  3  1  0  0  0  0
  2  4  1  0  0  0  0
  2  5  1  0  0  0  0
  5  6  2  0  0  0  0
  5  7  1  0  0  0  0
  7  8  1  0  0  0  0
  7  9  1  0  0  0  0
  9 10  1  0  0  0  0
  9 11  1  0  0  0  0
  9 22  1  0  0  0  0
 11 12  1  0  0  0  0
 11 13  1  0  0  0  0
 11 14  1  0  0  0  0
 14 15  1  0  0  0  0
 14 16  1  0  0  0  0
 14 17  1  0  0  0  0
 17 18  1  0  0  0  0
 18 19  1  0  0  0  0
 18 20  1  0  0  0  0
 18 21  1  0  0  0  0
 22 23  2  0  0  0  0
 22 24  1  0  0  0  0
 24 25  1  0  0  0  0
 24 26  1  0  0  0  0
 26 27  1  0  0  0  0
 26 28  1  0  0  0  0
 26 29  1  0  0  0  0
M  END
$$$$

  -OEChem-04042216023D

 29 28  0     1  0  0  0  0  0999 V2000
   -2.8169   -4.0766    0.6057 H   0  0  0  0  0  0  0  0  0  0  0  0
   -2.7350   -3.1072    0.1055 C   0  0  0  0  0  0  0  0  0  0  0  0
   -3.5774   -2.4818    0.4105 H   0  0  0  0  0  0  0  0  0  0  0  0
   -2.7782   -3.2664   -0.9746 H   0  0  0  0  0  0  0  0  0  0  0  0
   -1.4265   -2.4367    0.4803 C   0  0  0  0  0  0  0  0  0  0  0  0
   -0.6954   -2.9582    1.3017 O   0  0  0  0  0  0  0  0  0  0  0  0
   -1.0850   -1.2316   -0.1030 N   0  0  0  0  0  0  0  0  0  0  0  0
   -1.6823   -0.9297   -0.8661 H   0  0  0  0  0  0  0  0  0  0  0  0
    0.2546   -0.6148   -0.0004 C   0  0  1  0  0  0  0  0  0  0  0  0
    0.9716   -1.3408   -0.3884 H   0  0  0  0  0  0  0  0  0  0  0  0
    0.2455    0.6934   -0.8443 C   0  0  0  0  0  0  0  0  0  0  0  0
   -0.7595    0.8769   -1.2365 H   0  0  0  0  0  0  0  0  0  0  0  0
    0.4610    1.5294   -0.1700 H   0  0  0  0  0  0  0  0  0  0  0  0
    1.2423    0.8157   -2.0219 C   0  0  0  0  0  0  0  0  0  0  0  0
    0.6742    0.6777   -2.9473 H   0  0  0  0  0  0  0  0  0  0  0  0
    1.6469    1.8327   -2.0453 H   0  0  0  0  0  0  0  0  0  0  0  0
    2.6375   -0.3837   -2.0814 S   0  0  0  0  0  0  0  0  0  0  0  0
    3.8728    0.4115   -0.9790 C   0  0  0  0  0  0  0  0  0  0  0  0
    3.4406    0.6085    0.0049 H   0  0  0  0  0  0  0  0  0  0  0  0
    4.7391   -0.2444   -0.8527 H   0  0  0  0  0  0  0  0  0  0  0  0
    4.2096    1.3595   -1.4081 H   0  0  0  0  0  0  0  0  0  0  0  0
    0.6918   -0.3078    1.4538 C   0  0  0  0  0  0  0  0  0  0  0  0
    1.8720   -0.3632    1.7727 O   0  0  0  0  0  0  0  0  0  0  0  0
   -0.2051    0.2835    2.3261 N   0  0  0  0  0  0  0  0  0  0  0  0
   -1.1840    0.1935    2.0747 H   0  0  0  0  0  0  0  0  0  0  0  0
    0.1332    0.5888    3.7106 C   0  0  0  0  0  0  0  0  0  0  0  0
    0.9759    1.2868    3.7555 H   0  0  0  0  0  0  0  0  0  0  0  0
   -0.7209    1.0494    4.2156 H   0  0  0  0  0  0  0  0  0  0  0  0
    0.4041   -0.3261    4.2483 H   0  0  0  0  0  0  0  0  0  0  0  0
  1  2  1  0  0  0  0
  2  3  1  0  0  0  0
  2  4  1  0  0  0  0
  2  5  1  0  0  0  0
  5  6  2  0  0  0  0
  5  7  1  0  0  0  0
  7  8  1  0  0  0  0
  7  9  1  0  0  0  0
  9 10  1  0  0  0  0
  9 11  1  0  0  0  0
  9 22  1  0  0  0  0
 11 12  1  0  0  0  0
 11 13  1  0  0  0  0
 11 14  1  0  0  0  0
 14 15  1  0  0  0  0
 14 16  1  0  0  0  0
 14 17  1  0  0  0  0
 17 18  1  0  0  0  0
 18 19  1  0  0  0  0
 18 20  1  0  0  0  0
 18 21  1  0  0  0  0
 22 23  2  0  0  0  0
 22 24  1  0  0  0  0
 24 25  1  0  0  0  0
 24 26  1  0  0  0  0
 26 27  1  0  0  0  0
 26 28  1  0  0  0  0
 26 29  1  0  0  0  0
M  END
$$$$

  -OEChem-04042216023D

 29 28  0     1  0  0  0  0  0999 V2000
   -2.8815   -4.0459    0.6582 H   0  0  0  0  0  0  0  0  0  0  0  0
   -2.7804   -3.0910    0.1342 C   0  0  0  0  0  0  0  0  0  0  0  0
   -3.6192   -2.4478    0.4103 H   0  0  0  0  0  0  0  0  0  0  0  0
   -2.8098   -3.2776   -0.9421 H   0  0  0  0  0  0  0  0  0  0  0  0
   -1.4696   -2.4265    0.5107 C   0  0  0  0  0  0  0  0  0  0  0  0
   -0.7495   -2.9423    1.3456 O   0  0  0  0  0  0  0  0  0  0  0  0
   -1.1137   -1.2321   -0.0858 N   0  0  0  0  0  0  0  0  0  0  0  0
   -1.6969   -0.9424   -0.8647 H   0  0  0  0  0  0  0  0  0  0  0  0
    0.2329   -0.6312    0.0150 C   0  0  1  0  0  0  0  0  0  0  0  0
    0.9449   -1.3699   -0.3555 H   0  0  0  0  0  0  0  0  0  0  0  0
    0.2525    0.6753   -0.8318 C   0  0  0  0  0  0  0  0  0  0  0  0
   -0.7480    0.8516   -1.2392 H   0  0  0  0  0  0  0  0  0  0  0  0
    0.4540    1.5198   -0.1635 H   0  0  0  0  0  0  0  0  0  0  0  0
    1.2531    0.7890   -2.0092 C   0  0  0  0  0  0  0  0  0  0  0  0
    0.6750    0.9633   -2.9220 H   0  0  0  0  0  0  0  0  0  0  0  0
    1.8752    1.6767   -1.8550 H   0  0  0  0  0  0  0  0  0  0  0  0
    2.3666   -0.6406   -2.3386 S   0  0  0  0  0  0  0  0  0  0  0  0
    3.7924   -0.2969   -1.2326 C   0  0  0  0  0  0  0  0  0  0  0  0
    3.4666   -0.2348   -0.1919 H   0  0  0  0  0  0  0  0  0  0  0  0
    4.5327   -1.0978   -1.3163 H   0  0  0  0  0  0  0  0  0  0  0  0
    4.2673    0.6492   -1.5070 H   0  0  0  0  0  0  0  0  0  0  0  0
    0.6682   -0.3138    1.4673 C   0  0  0  0  0  0  0  0  0  0  0  0
    1.8503   -0.3607    1.7812 O   0  0  0  0  0  0  0  0  0  0  0  0
   -0.2238    0.2980    2.3305 N   0  0  0  0  0  0  0  0  0  0  0  0
   -1.2036    0.2089    2.0826 H   0  0  0  0  0  0  0  0  0  0  0  0
    0.1190    0.6325    3.7071 C   0  0  0  0  0  0  0  0  0  0  0  0
    0.9660    1.3261    3.7343 H   0  0  0  0  0  0  0  0  0  0  0  0
   -0.7313    1.1095    4.2034 H   0  0  0  0  0  0  0  0  0  0  0  0
    0.3859   -0.2715    4.2649 H   0  0  0  0  0  0  0  0  0  0  0  0
  1  2  1  0  0  0  0
  2  3  1  0  0  0  0
  2  4  1  0  0  0  0
  2  5  1  0  0  0  0
  5  6  2  0  0  0  0
  5  7  1  0  0  0  0
  7  8  1  0  0  0  0
  7  9  1  0  0  0  0
  9 10  1  0  0  0  0
  9 11  1  0  0  0  0
  9 22  1  0  0  0  0
 11 12  1  0  0  0  0
 11 13  1  0  0  0  0
 11 14  1  0  0  0  0
 14 15  1  0  0  0  0
 14 16  1  0  0  0  0
 14 17  1  0  0  0  0
 17 18  1  0  0  0  0
 18 19  1  0  0  0  0
 18 20  1  0  0  0  0
 18 21  1  0  0  0  0
 22 23  2  0  0  0  0
 22 24  1  0  0  0  0
 24 25  1  0  0  0  0
 24 26  1  0  0  0  0
 26 27  1  0  0  0  0
 26 28  1  0  0  0  0
 26 29  1  0  0  0  0
M  END
$$$$

  -OEChem-04042216023D

 29 28  0     1  0  0  0  0  0999 V2000
   -2.9337   -4.0156    0.6891 H   0  0  0  0  0  0  0  0  0  0  0  0
   -2.8165   -3.0775    0.1389 C   0  0  0  0  0  0  0  0  0  0  0  0
   -3.6585   -2.4227    0.3759 H   0  0  0  0  0  0  0  0  0  0  0  0
   -2.8223   -3.2968   -0.9316 H   0  0  0  0  0  0  0  0  0  0  0  0
   -1.5113   -2.4069    0.5242 C   0  0  0  0  0  0  0  0  0  0  0  0
   -0.7956   -2.9159    1.3673 O   0  0  0  0  0  0  0  0  0  0  0  0
   -1.1539   -1.2149   -0.0754 N   0  0  0  0  0  0  0  0  0  0  0  0
   -1.7282   -0.9366   -0.8650 H   0  0  0  0  0  0  0  0  0  0  0  0
    0.1971   -0.6244    0.0179 C   0  0  1  0  0  0  0  0  0  0  0  0
    0.8978   -1.3747   -0.3493 H   0  0  0  0  0  0  0  0  0  0  0  0
    0.2404    0.6761   -0.8348 C   0  0  0  0  0  0  0  0  0  0  0  0
   -0.7526    0.8372   -1.2658 H   0  0  0  0  0  0  0  0  0  0  0  0
    0.4256    1.5353   -0.1805 H   0  0  0  0  0  0  0  0  0  0  0  0
    1.2504    0.7561   -2.0046 C   0  0  0  0  0  0  0  0  0  0  0  0
    0.7490    1.2191   -2.8606 H   0  0  0  0  0  0  0  0  0  0  0  0
    2.0623    1.4290   -1.7096 H   0  0  0  0  0  0  0  0  0  0  0  0
    2.0156   -0.8212   -2.5718 S   0  0  0  0  0  0  0  0  0  0  0  0
    3.5185   -0.9277   -1.5179 C   0  0  0  0  0  0  0  0  0  0  0  0
    3.2487   -0.9390   -0.4583 H   0  0  0  0  0  0  0  0  0  0  0  0
    4.0705   -1.8446   -1.7443 H   0  0  0  0  0  0  0  0  0  0  0  0
    4.1730   -0.0708   -1.7019 H   0  0  0  0  0  0  0  0  0  0  0  0
    0.6615   -0.3037    1.4586 C   0  0  0  0  0  0  0  0  0  0  0  0
    1.8535   -0.3434    1.7366 O   0  0  0  0  0  0  0  0  0  0  0  0
   -0.2077    0.3196    2.3360 N   0  0  0  0  0  0  0  0  0  0  0  0
   -1.1933    0.2294    2.1118 H   0  0  0  0  0  0  0  0  0  0  0  0
    0.1675    0.6632    3.7018 C   0  0  0  0  0  0  0  0  0  0  0  0
    1.0136    1.3586    3.7049 H   0  0  0  0  0  0  0  0  0  0  0  0
   -0.6720    1.1413    4.2155 H   0  0  0  0  0  0  0  0  0  0  0  0
    0.4492   -0.2371    4.2583 H   0  0  0  0  0  0  0  0  0  0  0  0
  1  2  1  0  0  0  0
  2  3  1  0  0  0  0
  2  4  1  0  0  0  0
  2  5  1  0  0  0  0
  5  6  2  0  0  0  0
  5  7  1  0  0  0  0
  7  8  1  0  0  0  0
  7  9  1  0  0  0  0
  9 10  1  0  0  0  0
  9 11  1  0  0  0  0
  9 22  1  0  0  0  0
 11 12  1  0  0  0  0
 11 13  1  0  0  0  0
 11 14  1  0  0  0  0
 14 15  1  0  0  0  0
 14 16  1  0  0  0  0
 14 17  1  0  0  0  0
 17 18  1  0  0  0  0
 18 19  1  0  0  0  0
 18 20  1  0  0  0  0
 18 21  1  0  0  0  0
 22 23  2  0  0  0  0
 22 24  1  0  0  0  0
 24 25  1  0  0  0  0
 24 26  1  0  0  0  0
 26 27  1  0  0  0  0
 26 28  1  0  0  0  0
 26 29  1  0  0  0  0
M  END
$$$$

  -OEChem-04042216023D

 29 28  0     1  0  0  0  0  0999 V2000
   -2.6997   -3.9457   -0.2224 H   0  0  0  0  0  0  0  0  0  0  0  0
   -2.9267   -2.8791   -0.3071 C   0  0  0  0  0  0  0  0  0  0  0  0
   -3.7716   -2.6466    0.3453 H   0  0  0  0  0  0  0  0  0  0  0  0
   -3.2004   -2.6606   -1.3420 H   0  0  0  0  0  0  0  0  0  0  0  0
   -1.7171   -2.0561    0.0945 C   0  0  0  0  0  0  0  0  0  0  0  0
   -0.7240   -2.6147    0.5185 O   0  0  0  0  0  0  0  0  0  0  0  0
   -1.7960   -0.6776    0.0820 N   0  0  0  0  0  0  0  0  0  0  0  0
   -2.6607   -0.3012   -0.2939 H   0  0  0  0  0  0  0  0  0  0  0  0
   -0.6251    0.2262    0.0929 C   0  0  1  0  0  0  0  0  0  0  0  0
   -1.0661    1.2101    0.2805 H   0  0  0  0  0  0  0  0  0  0  0  0
   -0.0678    0.3454   -1.3638 C   0  0  0  0  0  0  0  0  0  0  0  0
   -0.7316   -0.2235   -2.0221 H   0  0  0  0  0  0  0  0  0  0  0  0
   -0.1652    1.3938   -1.6633 H   0  0  0  0  0  0  0  0  0  0  0  0
    1.3710   -0.0829   -1.7411 C   0  0  0  0  0  0  0  0  0  0  0  0
    1.4062   -0.3323   -2.8058 H   0  0  0  0  0  0  0  0  0  0  0  0
    2.0161    0.7886   -1.5888 H   0  0  0  0  0  0  0  0  0  0  0  0
    2.1172   -1.4622   -0.7760 S   0  0  0  0  0  0  0  0  0  0  0  0
    3.8916   -1.2870   -1.2037 C   0  0  0  0  0  0  0  0  0  0  0  0
    4.0320   -1.3704   -2.2850 H   0  0  0  0  0  0  0  0  0  0  0  0
    4.4742   -2.0709   -0.7111 H   0  0  0  0  0  0  0  0  0  0  0  0
    4.2635   -0.3133   -0.8712 H   0  0  0  0  0  0  0  0  0  0  0  0
    0.3554    0.1395    1.2918 C   0  0  0  0  0  0  0  0  0  0  0  0
    1.4405    0.7089    1.2322 O   0  0  0  0  0  0  0  0  0  0  0  0
   -0.2037    0.0639    2.5557 N   0  0  0  0  0  0  0  0  0  0  0  0
   -1.0700   -0.4642    2.5990 H   0  0  0  0  0  0  0  0  0  0  0  0
    0.5896    0.1724    3.7750 C   0  0  0  0  0  0  0  0  0  0  0  0
    1.0502    1.1634    3.8479 H   0  0  0  0  0  0  0  0  0  0  0  0
   -0.0458    0.0239    4.6531 H   0  0  0  0  0  0  0  0  0  0  0  0
    1.3805   -0.5852    3.7856 H   0  0  0  0  0  0  0  0  0  0  0  0
  1  2  1  0  0  0  0
  2  3  1  0  0  0  0
  2  4  1  0  0  0  0
  2  5  1  0  0  0  0
  5  6  2  0  0  0  0
  5  7  1  0  0  0  0
  7  8  1  0  0  0  0
  7  9  1  0  0  0  0
  9 10  1  0  0  0  0
  9 11  1  0  0  0  0
  9 22  1  0  0  0  0
 11 12  1  0  0  0  0
 11 13  1  0  0  0  0
 11 14  1  0  0  0  0
 14 15  1  0  0  0  0
 14 16  1  0  0  0  0
 14 17  1  0  0  0  0
 17 18  1  0  0  0  0
 18 19  1  0  0  0  0
 18 20  1  0  0  0  0
 18 21  1  0  0  0  0
 22 23  2  0  0  0  0
 22 24  1  0  0  0  0
 24 25  1  0  0  0  0
 24 26  1  0  0  0  0
 26 27  1  0  0  0  0
 26 28  1  0  0  0  0
 26 29  1  0  0  0  0
M  END
$$$$

  -OEChem-04042216023D

 29 28  0     1  0  0  0  0  0999 V2000
   -3.1158   -3.5991    0.0265 H   0  0  0  0  0  0  0  0  0  0  0  0
   -3.2022   -2.5219   -0.1431 C   0  0  0  0  0  0  0  0  0  0  0  0
   -4.0290   -2.1366    0.4579 H   0  0  0  0  0  0  0  0  0  0  0  0
   -3.4157   -2.3499   -1.2007 H   0  0  0  0  0  0  0  0  0  0  0  0
   -1.9088   -1.8293    0.2420 C   0  0  0  0  0  0  0  0  0  0  0  0
   -0.9855   -2.4843    0.6855 O   0  0  0  0  0  0  0  0  0  0  0  0
   -1.8453   -0.4498    0.2379 N   0  0  0  0  0  0  0  0  0  0  0  0
   -2.6912    0.0009   -0.0967 H   0  0  0  0  0  0  0  0  0  0  0  0
   -0.5954    0.3259    0.0761 C   0  0  1  0  0  0  0  0  0  0  0  0
   -0.8901    1.3526    0.3130 H   0  0  0  0  0  0  0  0  0  0  0  0
   -0.2178    0.3834   -1.4406 C   0  0  0  0  0  0  0  0  0  0  0  0
   -1.0070   -0.1160   -2.0109 H   0  0  0  0  0  0  0  0  0  0  0  0
   -0.2326    1.4352   -1.7433 H   0  0  0  0  0  0  0  0  0  0  0  0
    1.1188   -0.1989   -1.9406 C   0  0  0  0  0  0  0  0  0  0  0  0
    1.1084   -0.2537   -3.0333 H   0  0  0  0  0  0  0  0  0  0  0  0
    1.9200    0.4915   -1.6579 H   0  0  0  0  0  0  0  0  0  0  0  0
    1.5238   -1.8571   -1.2573 S   0  0  0  0  0  0  0  0  0  0  0  0
    3.3525   -1.8685   -1.3993 C   0  0  0  0  0  0  0  0  0  0  0  0
    3.6548   -1.7361   -2.4419 H   0  0  0  0  0  0  0  0  0  0  0  0
    3.7507   -2.8196   -1.0345 H   0  0  0  0  0  0  0  0  0  0  0  0
    3.7794   -1.0580   -0.8005 H   0  0  0  0  0  0  0  0  0  0  0  0
    0.5173    0.0974    1.1364 C   0  0  0  0  0  0  0  0  0  0  0  0
    1.6736    0.4449    0.9192 O   0  0  0  0  0  0  0  0  0  0  0  0
    0.1292    0.0579    2.4639 N   0  0  0  0  0  0  0  0  0  0  0  0
   -0.7921   -0.3433    2.6141 H   0  0  0  0  0  0  0  0  0  0  0  0
    1.0892   -0.0180    3.5589 C   0  0  0  0  0  0  0  0  0  0  0  0
    1.7226    0.8749    3.5782 H   0  0  0  0  0  0  0  0  0  0  0  0
    0.5649   -0.0869    4.5166 H   0  0  0  0  0  0  0  0  0  0  0  0
    1.7275   -0.9008    3.4473 H   0  0  0  0  0  0  0  0  0  0  0  0
  1  2  1  0  0  0  0
  2  3  1  0  0  0  0
  2  4  1  0  0  0  0
  2  5  1  0  0  0  0
  5  6  2  0  0  0  0
  5  7  1  0  0  0  0
  7  8  1  0  0  0  0
  7  9  1  0  0  0  0
  9 10  1  0  0  0  0
  9 11  1  0  0  0  0
  9 22  1  0  0  0  0
 11 12  1  0  0  0  0
 11 13  1  0  0  0  0
 11 14  1  0  0  0  0
 14 15  1  0  0  0  0
 14 16  1  0  0  0  0
 14 17  1  0  0  0  0
 17 18  1  0  0  0  0
 18 19  1  0  0  0  0
 18 20  1  0  0  0  0
 18 21  1  0  0  0  0
 22 23  2  0  0  0  0
 22 24  1  0  0  0  0
 24 25  1  0  0  0  0
 24 26  1  0  0  0  0
 26 27  1  0  0  0  0
 26 28  1  0  0  0  0
 26 29  1  0  0  0  0
M  END
$$$$

  -OEChem-04042216023D

 29 28  0     1  0  0  0  0  0999 V2000
   -3.3677   -3.7527    1.0544 H   0  0  0  0  0  0  0  0  0  0  0  0
   -3.1220   -2.8973    0.4185 C   0  0  0  0  0  0  0  0  0  0  0  0
   -3.9057   -2.1437    0.5245 H   0  0  0  0  0  0  0  0  0  0  0  0
   -3.0847   -3.2324   -0.6209 H   0  0  0  0  0  0  0  0  0  0  0  0
   -1.7816   -2.3134    0.8237 C   0  0  0  0  0  0  0  0  0  0  0  0
   -1.1665   -2.7998    1.7554 O   0  0  0  0  0  0  0  0  0  0  0  0
   -1.2792   -1.2232    0.1409 N   0  0  0  0  0  0  0  0  0  0  0  0
   -1.7738   -0.9822   -0.7130 H   0  0  0  0  0  0  0  0  0  0  0  0
    0.1176   -0.7598    0.2560 C   0  0  1  0  0  0  0  0  0  0  0  0
    0.7696   -1.5949   -0.0229 H   0  0  0  0  0  0  0  0  0  0  0  0
    0.3369    0.4272   -0.7141 C   0  0  0  0  0  0  0  0  0  0  0  0
   -0.5924    0.6638   -1.2421 H   0  0  0  0  0  0  0  0  0  0  0  0
    0.6217    1.3251   -0.1546 H   0  0  0  0  0  0  0  0  0  0  0  0
    1.4254    0.1352   -1.7512 C   0  0  0  0  0  0  0  0  0  0  0  0
    1.5612    1.0062   -2.3999 H   0  0  0  0  0  0  0  0  0  0  0  0
    2.3751   -0.0535   -1.2384 H   0  0  0  0  0  0  0  0  0  0  0  0
    0.9745   -1.3290   -2.7707 S   0  0  0  0  0  0  0  0  0  0  0  0
    2.4772   -1.5200   -3.8073 C   0  0  0  0  0  0  0  0  0  0  0  0
    3.3534   -1.6941   -3.1755 H   0  0  0  0  0  0  0  0  0  0  0  0
    2.3600   -2.3710   -4.4848 H   0  0  0  0  0  0  0  0  0  0  0  0
    2.6453   -0.6181   -4.4035 H   0  0  0  0  0  0  0  0  0  0  0  0
    0.5535   -0.3494    1.6816 C   0  0  0  0  0  0  0  0  0  0  0  0
    1.7262   -0.4716    2.0121 O   0  0  0  0  0  0  0  0  0  0  0  0
   -0.2819    0.4369    2.4545 N   0  0  0  0  0  0  0  0  0  0  0  0
   -1.2625    0.4213    2.1932 H   0  0  0  0  0  0  0  0  0  0  0  0
    0.0767    0.8859    3.7939 C   0  0  0  0  0  0  0  0  0  0  0  0
    0.9881    1.4924    3.7647 H   0  0  0  0  0  0  0  0  0  0  0  0
   -0.7278    1.4955    4.2163 H   0  0  0  0  0  0  0  0  0  0  0  0
    0.2456    0.0272    4.4522 H   0  0  0  0  0  0  0  0  0  0  0  0
  1  2  1  0  0  0  0
  2  3  1  0  0  0  0
  2  4  1  0  0  0  0
  2  5  1  0  0  0  0
  5  6  2  0  0  0  0
  5  7  1  0  0  0  0
  7  8  1  0  0  0  0
  7  9  1  0  0  0  0
  9 10  1  0  0  0  0
  9 11  1  0  0  0  0
  9 22  1  0  0  0  0
 11 12  1  0  0  0  0
 11 13  1  0  0  0  0
 11 14  1  0  0  0  0
 14 15  1  0  0  0  0
 14 16  1  0  0  0  0
 14 17  1  0  0  0  0
 17 18  1  0  0  0  0
 18 19  1  0  0  0  0
 18 20  1  0  0  0  0
 18 21  1  0  0  0  0
 22 23  2  0  0  0  0
 22 24  1  0  0  0  0
 24 25  1  0  0  0  0
 24 26  1  0  0  0  0
 26 27  1  0  0  0  0
 26 28  1  0  0  0  0
 26 29  1  0  0  0  0
M  END
$$$$

  -OEChem-04042216023D

 29 28  0     1  0  0  0  0  0999 V2000
   -3.3790   -3.7364    1.2229 H   0  0  0  0  0  0  0  0  0  0  0  0
   -3.1585   -2.8955    0.5591 C   0  0  0  0  0  0  0  0  0  0  0  0
   -3.9226   -2.1272    0.6992 H   0  0  0  0  0  0  0  0  0  0  0  0
   -3.1889   -3.2473   -0.4749 H   0  0  0  0  0  0  0  0  0  0  0  0
   -1.7874   -2.3280    0.8746 C   0  0  0  0  0  0  0  0  0  0  0  0
   -1.1178   -2.8224    1.7634 O   0  0  0  0  0  0  0  0  0  0  0  0
   -1.3189   -1.2394    0.1658 N   0  0  0  0  0  0  0  0  0  0  0  0
   -1.8604   -0.9899   -0.6569 H   0  0  0  0  0  0  0  0  0  0  0  0
    0.0807   -0.7739    0.2116 C   0  0  1  0  0  0  0  0  0  0  0  0
    0.7144   -1.6113   -0.1027 H   0  0  0  0  0  0  0  0  0  0  0  0
    0.2460    0.4019   -0.7793 C   0  0  0  0  0  0  0  0  0  0  0  0
   -0.7058    0.6514   -1.2590 H   0  0  0  0  0  0  0  0  0  0  0  0
    0.5737    1.2969   -0.2392 H   0  0  0  0  0  0  0  0  0  0  0  0
    1.2864    0.0816   -1.8536 C   0  0  0  0  0  0  0  0  0  0  0  0
    1.5698    1.0017   -2.3747 H   0  0  0  0  0  0  0  0  0  0  0  0
    2.1910   -0.3358   -1.3972 H   0  0  0  0  0  0  0  0  0  0  0  0
    0.5670   -1.0991   -3.0649 S   0  0  0  0  0  0  0  0  0  0  0  0
    1.9949   -1.3643   -4.1873 C   0  0  0  0  0  0  0  0  0  0  0  0
    2.8393   -1.7851   -3.6331 H   0  0  0  0  0  0  0  0  0  0  0  0
    1.7205   -2.0584   -4.9873 H   0  0  0  0  0  0  0  0  0  0  0  0
    2.3057   -0.4166   -4.6370 H   0  0  0  0  0  0  0  0  0  0  0  0
    0.5869   -0.3585    1.6116 C   0  0  0  0  0  0  0  0  0  0  0  0
    1.7744   -0.4817    1.8835 O   0  0  0  0  0  0  0  0  0  0  0  0
   -0.2100    0.4292    2.4226 N   0  0  0  0  0  0  0  0  0  0  0  0
   -1.2018    0.4131    2.2075 H   0  0  0  0  0  0  0  0  0  0  0  0
    0.2088    0.8684    3.7475 C   0  0  0  0  0  0  0  0  0  0  0  0
    1.1211    1.4709    3.6828 H   0  0  0  0  0  0  0  0  0  0  0  0
   -0.5739    1.4788    4.2079 H   0  0  0  0  0  0  0  0  0  0  0  0
    0.4016    0.0044    4.3924 H   0  0  0  0  0  0  0  0  0  0  0  0
  1  2  1  0  0  0  0
  2  3  1  0  0  0  0
  2  4  1  0  0  0  0
  2  5  1  0  0  0  0
  5  6  2  0  0  0  0
  5  7  1  0  0  0  0
  7  8  1  0  0  0  0
  7  9  1  0  0  0  0
  9 10  1  0  0  0  0
  9 11  1  0  0  0  0
  9 22  1  0  0  0  0
 11 12  1  0  0  0  0
 11 13  1  0  0  0  0
 11 14  1  0  0  0  0
 14 15  1  0  0  0  0
 14 16  1  0  0  0  0
 14 17  1  0  0  0  0
 17 18  1  0  0  0  0
 18 19  1  0  0  0  0
 18 20  1  0  0  0  0
 18 21  1  0  0  0  0
 22 23  2  0  0  0  0
 22 24  1  0  0  0  0
 24 25  1  0  0  0  0
 24 26  1  0  0  0  0
 26 27  1  0  0  0  0
 26 28  1  0  0  0  0
 26 29  1  0  0  0  0
M  END
$$$$

  -OEChem-04042216023D

 29 28  0     1  0  0  0  0  0999 V2000
   -2.7807   -4.0289    0.6405 H   0  0  0  0  0  0  0  0  0  0  0  0
   -2.7379   -3.0485    0.1574 C   0  0  0  0  0  0  0  0  0  0  0  0
   -3.5504   -2.4296    0.5454 H   0  0  0  0  0  0  0  0  0  0  0  0
   -2.8714   -3.1819   -0.9189 H   0  0  0  0  0  0  0  0  0  0  0  0
   -1.4017   -2.3872    0.4371 C   0  0  0  0  0  0  0  0  0  0  0  0
   -0.5791   -2.9511    1.1352 O   0  0  0  0  0  0  0  0  0  0  0  0
   -1.1203   -1.1527   -0.1133 N   0  0  0  0  0  0  0  0  0  0  0  0
   -1.7911   -0.7997   -0.7901 H   0  0  0  0  0  0  0  0  0  0  0  0
    0.2068   -0.5095   -0.0635 C   0  0  1  0  0  0  0  0  0  0  0  0
    0.9223   -1.1995   -0.5225 H   0  0  0  0  0  0  0  0  0  0  0  0
    0.1499    0.7993   -0.8839 C   0  0  0  0  0  0  0  0  0  0  0  0
   -0.8582    0.9869   -1.2672 H   0  0  0  0  0  0  0  0  0  0  0  0
    0.3979    1.6431   -0.2306 H   0  0  0  0  0  0  0  0  0  0  0  0
    1.1481    0.7942   -2.0476 C   0  0  0  0  0  0  0  0  0  0  0  0
    1.4326    1.8284   -2.2669 H   0  0  0  0  0  0  0  0  0  0  0  0
    2.0659    0.2544   -1.7900 H   0  0  0  0  0  0  0  0  0  0  0  0
    0.3621    0.0926   -3.5561 S   0  0  0  0  0  0  0  0  0  0  0  0
    0.6885   -1.7088   -3.3973 C   0  0  0  0  0  0  0  0  0  0  0  0
    0.1510   -2.1247   -2.5411 H   0  0  0  0  0  0  0  0  0  0  0  0
    0.3563   -2.2292   -4.3005 H   0  0  0  0  0  0  0  0  0  0  0  0
    1.7593   -1.8904   -3.2638 H   0  0  0  0  0  0  0  0  0  0  0  0
    0.7498   -0.2374    1.3576 C   0  0  0  0  0  0  0  0  0  0  0  0
    1.9579   -0.2571    1.5529 O   0  0  0  0  0  0  0  0  0  0  0  0
   -0.0797    0.3053    2.3223 N   0  0  0  0  0  0  0  0  0  0  0  0
   -1.0762    0.2188    2.1513 H   0  0  0  0  0  0  0  0  0  0  0  0
    0.3763    0.6104    3.6726 C   0  0  0  0  0  0  0  0  0  0  0  0
    1.1895    1.3436    3.6467 H   0  0  0  0  0  0  0  0  0  0  0  0
   -0.4444    1.0281    4.2638 H   0  0  0  0  0  0  0  0  0  0  0  0
    0.7361   -0.2973    4.1688 H   0  0  0  0  0  0  0  0  0  0  0  0
  1  2  1  0  0  0  0
  2  3  1  0  0  0  0
  2  4  1  0  0  0  0
  2  5  1  0  0  0  0
  5  6  2  0  0  0  0
  5  7  1  0  0  0  0
  7  8  1  0  0  0  0
  7  9  1  0  0  0  0
  9 10  1  0  0  0  0
  9 11  1  0  0  0  0
  9 22  1  0  0  0  0
 11 12  1  0  0  0  0
 11 13  1  0  0  0  0
 11 14  1  0  0  0  0
 14 15  1  0  0  0  0
 14 16  1  0  0  0  0
 14 17  1  0  0  0  0
 17 18  1  0  0  0  0
 18 19  1  0  0  0  0
 18 20  1  0  0  0  0
 18 21  1  0  0  0  0
 22 23  2  0  0  0  0
 22 24  1  0  0  0  0
 24 25  1  0  0  0  0
 24 26  1  0  0  0  0
 26 27  1  0  0  0  0
 26 28  1  0  0  0  0
 26 29  1  0  0  0  0
M  END
$$$$

  -OEChem-04042216023D

 29 28  0     1  0  0  0  0  0999 V2000
   -2.7612   -4.0361    0.6460 H   0  0  0  0  0  0  0  0  0  0  0  0
   -2.7182   -3.0610    0.1522 C   0  0  0  0  0  0  0  0  0  0  0  0
   -3.5187   -2.4315    0.5478 H   0  0  0  0  0  0  0  0  0  0  0  0
   -2.8709   -3.2037   -0.9204 H   0  0  0  0  0  0  0  0  0  0  0  0
   -1.3714   -2.4091    0.4028 C   0  0  0  0  0  0  0  0  0  0  0  0
   -0.5334   -2.9837    1.0731 O   0  0  0  0  0  0  0  0  0  0  0  0
   -1.0973   -1.1689   -0.1383 N   0  0  0  0  0  0  0  0  0  0  0  0
   -1.7964   -0.7813   -0.7655 H   0  0  0  0  0  0  0  0  0  0  0  0
    0.2222   -0.5107   -0.0770 C   0  0  1  0  0  0  0  0  0  0  0  0
    0.9416   -1.1985   -0.5344 H   0  0  0  0  0  0  0  0  0  0  0  0
    0.1602    0.7991   -0.8970 C   0  0  0  0  0  0  0  0  0  0  0  0
   -0.8487    0.9747   -1.2835 H   0  0  0  0  0  0  0  0  0  0  0  0
    0.3885    1.6442   -0.2380 H   0  0  0  0  0  0  0  0  0  0  0  0
    1.1682    0.8184   -2.0562 C   0  0  0  0  0  0  0  0  0  0  0  0
    1.6372    1.8072   -2.0907 H   0  0  0  0  0  0  0  0  0  0  0  0
    1.9737    0.0902   -1.9163 H   0  0  0  0  0  0  0  0  0  0  0  0
    0.3061    0.5460   -3.6567 S   0  0  0  0  0  0  0  0  0  0  0  0
    0.1621   -1.2846   -3.7039 C   0  0  0  0  0  0  0  0  0  0  0  0
   -0.4298   -1.6451   -2.8588 H   0  0  0  0  0  0  0  0  0  0  0  0
   -0.3263   -1.5978   -4.6313 H   0  0  0  0  0  0  0  0  0  0  0  0
    1.1542   -1.7440   -3.6595 H   0  0  0  0  0  0  0  0  0  0  0  0
    0.7564   -0.2383    1.3471 C   0  0  0  0  0  0  0  0  0  0  0  0
    1.9639   -0.2425    1.5461 O   0  0  0  0  0  0  0  0  0  0  0  0
   -0.0816    0.2910    2.3119 N   0  0  0  0  0  0  0  0  0  0  0  0
   -1.0772    0.2024    2.1372 H   0  0  0  0  0  0  0  0  0  0  0  0
    0.3699    0.5980    3.6633 C   0  0  0  0  0  0  0  0  0  0  0  0
    1.1720    1.3433    3.6395 H   0  0  0  0  0  0  0  0  0  0  0  0
   -0.4563    1.0009    4.2568 H   0  0  0  0  0  0  0  0  0  0  0  0
    0.7438   -0.3060    4.1557 H   0  0  0  0  0  0  0  0  0  0  0  0
  1  2  1  0  0  0  0
  2  3  1  0  0  0  0
  2  4  1  0  0  0  0
  2  5  1  0  0  0  0
  5  6  2  0  0  0  0
  5  7  1  0  0  0  0
  7  8  1  0  0  0  0
  7  9  1  0  0  0  0
  9 10  1  0  0  0  0
  9 11  1  0  0  0  0
  9 22  1  0  0  0  0
 11 12  1  0  0  0  0
 11 13  1  0  0  0  0
 11 14  1  0  0  0  0
 14 15  1  0  0  0  0
 14 16  1  0  0  0  0
 14 17  1  0  0  0  0
 17 18  1  0  0  0  0
 18 19  1  0  0  0  0
 18 20  1  0  0  0  0
 18 21  1  0  0  0  0
 22 23  2  0  0  0  0
 22 24  1  0  0  0  0
 24 25  1  0  0  0  0
 24 26  1  0  0  0  0
 26 27  1  0  0  0  0
 26 28  1  0  0  0  0
 26 29  1  0  0  0  0
M  END
$$$$

  -OEChem-04042216023D

 29 28  0     1  0  0  0  0  0999 V2000
   -2.7222   -4.0584    0.6342 H   0  0  0  0  0  0  0  0  0  0  0  0
   -2.6859   -3.0780    0.1504 C   0  0  0  0  0  0  0  0  0  0  0  0
   -3.4781   -2.4512    0.5667 H   0  0  0  0  0  0  0  0  0  0  0  0
   -2.8570   -3.2091   -0.9208 H   0  0  0  0  0  0  0  0  0  0  0  0
   -1.3340   -2.4312    0.3857 C   0  0  0  0  0  0  0  0  0  0  0  0
   -0.4914   -3.0071    1.0489 O   0  0  0  0  0  0  0  0  0  0  0  0
   -1.0636   -1.1903   -0.1561 N   0  0  0  0  0  0  0  0  0  0  0  0
   -1.7755   -0.7895   -0.7592 H   0  0  0  0  0  0  0  0  0  0  0  0
    0.2499   -0.5212   -0.0848 C   0  0  1  0  0  0  0  0  0  0  0  0
    0.9789   -1.2062   -0.5304 H   0  0  0  0  0  0  0  0  0  0  0  0
    0.1874    0.7894   -0.9058 C   0  0  0  0  0  0  0  0  0  0  0  0
   -0.8214    0.9414   -1.3021 H   0  0  0  0  0  0  0  0  0  0  0  0
    0.3880    1.6431   -0.2490 H   0  0  0  0  0  0  0  0  0  0  0  0
    1.2036    0.8266   -2.0611 C   0  0  0  0  0  0  0  0  0  0  0  0
    1.8658    1.6875   -1.9207 H   0  0  0  0  0  0  0  0  0  0  0  0
    1.8396   -0.0633   -2.0823 H   0  0  0  0  0  0  0  0  0  0  0  0
    0.3379    1.0064   -3.6730 S   0  0  0  0  0  0  0  0  0  0  0  0
   -0.2940   -0.6969   -3.9445 C   0  0  0  0  0  0  0  0  0  0  0  0
   -0.9828   -0.9816   -3.1448 H   0  0  0  0  0  0  0  0  0  0  0  0
   -0.8247   -0.7516   -4.8997 H   0  0  0  0  0  0  0  0  0  0  0  0
    0.5358   -1.4098   -3.9647 H   0  0  0  0  0  0  0  0  0  0  0  0
    0.7656   -0.2421    1.3449 C   0  0  0  0  0  0  0  0  0  0  0  0
    1.9704   -0.2404    1.5597 O   0  0  0  0  0  0  0  0  0  0  0  0
   -0.0885    0.2819    2.2986 N   0  0  0  0  0  0  0  0  0  0  0  0
   -1.0810    0.1917    2.1088 H   0  0  0  0  0  0  0  0  0  0  0  0
    0.3417    0.6028    3.6538 C   0  0  0  0  0  0  0  0  0  0  0  0
    1.1434    1.3486    3.6354 H   0  0  0  0  0  0  0  0  0  0  0  0
   -0.4943    1.0113    4.2295 H   0  0  0  0  0  0  0  0  0  0  0  0
    0.7083   -0.2955    4.1615 H   0  0  0  0  0  0  0  0  0  0  0  0
  1  2  1  0  0  0  0
  2  3  1  0  0  0  0
  2  4  1  0  0  0  0
  2  5  1  0  0  0  0
  5  6  2  0  0  0  0
  5  7  1  0  0  0  0
  7  8  1  0  0  0  0
  7  9  1  0  0  0  0
  9 10  1  0  0  0  0
  9 11  1  0  0  0  0
  9 22  1  0  0  0  0
 11 12  1  0  0  0  0
 11 13  1  0  0  0  0
 11 14  1  0  0  0  0
 14 15  1  0  0  0  0
 14 16  1  0  0  0  0
 14 17  1  0  0  0  0
 17 18  1  0  0  0  0
 18 19  1  0  0  0  0
 18 20  1  0  0  0  0
 18 21  1  0  0  0  0
 22 23  2  0  0  0  0
 22 24  1  0  0  0  0
 24 25  1  0  0  0  0
 24 26  1  0  0  0  0
 26 27  1  0  0  0  0
 26 28  1  0  0  0  0
 26 29  1  0  0  0  0
M  END
$$$$

  -OEChem-04042216023D

 29 28  0     1  0  0  0  0  0999 V2000
   -2.7145   -4.0696    0.6601 H   0  0  0  0  0  0  0  0  0  0  0  0
   -2.6826   -3.0906    0.1732 C   0  0  0  0  0  0  0  0  0  0  0  0
   -3.4738   -2.4642    0.5919 H   0  0  0  0  0  0  0  0  0  0  0  0
   -2.8596   -3.2254   -0.8965 H   0  0  0  0  0  0  0  0  0  0  0  0
   -1.3302   -2.4408    0.3979 C   0  0  0  0  0  0  0  0  0  0  0  0
   -0.4817   -3.0148    1.0551 O   0  0  0  0  0  0  0  0  0  0  0  0
   -1.0664   -1.1992   -0.1460 N   0  0  0  0  0  0  0  0  0  0  0  0
   -1.7862   -0.7977   -0.7391 H   0  0  0  0  0  0  0  0  0  0  0  0
    0.2456   -0.5253   -0.0812 C   0  0  1  0  0  0  0  0  0  0  0  0
    0.9781   -1.2048   -0.5296 H   0  0  0  0  0  0  0  0  0  0  0  0
    0.1782    0.7902   -0.8936 C   0  0  0  0  0  0  0  0  0  0  0  0
   -0.8319    0.9211   -1.2933 H   0  0  0  0  0  0  0  0  0  0  0  0
    0.3633    1.6511   -0.2418 H   0  0  0  0  0  0  0  0  0  0  0  0
    1.1887    0.8312   -2.0529 C   0  0  0  0  0  0  0  0  0  0  0  0
    2.0257    1.4822   -1.7791 H   0  0  0  0  0  0  0  0  0  0  0  0
    1.6035   -0.1589   -2.2643 H   0  0  0  0  0  0  0  0  0  0  0  0
    0.3857    1.4615   -3.5820 S   0  0  0  0  0  0  0  0  0  0  0  0
   -0.5362   -0.0168   -4.1638 C   0  0  0  0  0  0  0  0  0  0  0  0
   -1.2764   -0.3237   -3.4200 H   0  0  0  0  0  0  0  0  0  0  0  0
   -1.0542    0.2107   -5.1003 H   0  0  0  0  0  0  0  0  0  0  0  0
    0.1533   -0.8482   -4.3389 H   0  0  0  0  0  0  0  0  0  0  0  0
    0.7662   -0.2436    1.3462 C   0  0  0  0  0  0  0  0  0  0  0  0
    1.9717   -0.2376    1.5564 O   0  0  0  0  0  0  0  0  0  0  0  0
   -0.0855    0.2780    2.3031 N   0  0  0  0  0  0  0  0  0  0  0  0
   -1.0787    0.1866    2.1177 H   0  0  0  0  0  0  0  0  0  0  0  0
    0.3509    0.6006    3.6559 C   0  0  0  0  0  0  0  0  0  0  0  0
    1.1562    1.3425    3.6329 H   0  0  0  0  0  0  0  0  0  0  0  0
   -0.4809    1.0144    4.2338 H   0  0  0  0  0  0  0  0  0  0  0  0
    0.7148   -0.2988    4.1640 H   0  0  0  0  0  0  0  0  0  0  0  0
  1  2  1  0  0  0  0
  2  3  1  0  0  0  0
  2  4  1  0  0  0  0
  2  5  1  0  0  0  0
  5  6  2  0  0  0  0
  5  7  1  0  0  0  0
  7  8  1  0  0  0  0
  7  9  1  0  0  0  0
  9 10  1  0  0  0  0
  9 11  1  0  0  0  0
  9 22  1  0  0  0  0
 11 12  1  0  0  0  0
 11 13  1  0  0  0  0
 11 14  1  0  0  0  0
 14 15  1  0  0  0  0
 14 16  1  0  0  0  0
 14 17  1  0  0  0  0
 17 18  1  0  0  0  0
 18 19  1  0  0  0  0
 18 20  1  0  0  0  0
 18 21  1  0  0  0  0
 22 23  2  0  0  0  0
 22 24  1  0  0  0  0
 24 25  1  0  0  0  0
 24 26  1  0  0  0  0
 26 27  1  0  0  0  0
 26 28  1  0  0  0  0
 26 29  1  0  0  0  0
M  END
$$$$

  -OEChem-04042216023D

 29 28  0     1  0  0  0  0  0999 V2000
   -2.6977   -4.0804    0.6728 H   0  0  0  0  0  0  0  0  0  0  0  0
   -2.6738   -3.1028    0.1826 C   0  0  0  0  0  0  0  0  0  0  0  0
   -3.4705   -2.4819    0.5988 H   0  0  0  0  0  0  0  0  0  0  0  0
   -2.8491   -3.2424   -0.8868 H   0  0  0  0  0  0  0  0  0  0  0  0
   -1.3272   -2.4410    0.4060 C   0  0  0  0  0  0  0  0  0  0  0  0
   -0.4721   -3.0096    1.0594 O   0  0  0  0  0  0  0  0  0  0  0  0
   -1.0763   -1.1949   -0.1338 N   0  0  0  0  0  0  0  0  0  0  0  0
   -1.7983   -0.8020   -0.7297 H   0  0  0  0  0  0  0  0  0  0  0  0
    0.2331   -0.5156   -0.0776 C   0  0  1  0  0  0  0  0  0  0  0  0
    0.9662   -1.1868   -0.5383 H   0  0  0  0  0  0  0  0  0  0  0  0
    0.1573    0.8035   -0.8813 C   0  0  0  0  0  0  0  0  0  0  0  0
   -0.8523    0.9244   -1.2846 H   0  0  0  0  0  0  0  0  0  0  0  0
    0.3396    1.6670   -0.2321 H   0  0  0  0  0  0  0  0  0  0  0  0
    1.1632    0.8344   -2.0405 C   0  0  0  0  0  0  0  0  0  0  0  0
    2.1176    1.2369   -1.6844 H   0  0  0  0  0  0  0  0  0  0  0  0
    1.3510   -0.1730   -2.4250 H   0  0  0  0  0  0  0  0  0  0  0  0
    0.5144    1.8626   -3.4193 S   0  0  0  0  0  0  0  0  0  0  0  0
   -0.6363    0.7083   -4.2659 C   0  0  0  0  0  0  0  0  0  0  0  0
   -1.4355    0.3971   -3.5880 H   0  0  0  0  0  0  0  0  0  0  0  0
   -1.0862    1.1997   -5.1338 H   0  0  0  0  0  0  0  0  0  0  0  0
   -0.0972   -0.1801   -4.6081 H   0  0  0  0  0  0  0  0  0  0  0  0
    0.7660   -0.2403    1.3469 C   0  0  0  0  0  0  0  0  0  0  0  0
    1.9732   -0.2364    1.5476 O   0  0  0  0  0  0  0  0  0  0  0  0
   -0.0785    0.2718    2.3153 N   0  0  0  0  0  0  0  0  0  0  0  0
   -1.0729    0.1766    2.1387 H   0  0  0  0  0  0  0  0  0  0  0  0
    0.3687    0.5848    3.6667 C   0  0  0  0  0  0  0  0  0  0  0  0
    1.1647    1.3366    3.6437 H   0  0  0  0  0  0  0  0  0  0  0  0
   -0.4619    0.9822    4.2577 H   0  0  0  0  0  0  0  0  0  0  0  0
    0.7488   -0.3155    4.1610 H   0  0  0  0  0  0  0  0  0  0  0  0
  1  2  1  0  0  0  0
  2  3  1  0  0  0  0
  2  4  1  0  0  0  0
  2  5  1  0  0  0  0
  5  6  2  0  0  0  0
  5  7  1  0  0  0  0
  7  8  1  0  0  0  0
  7  9  1  0  0  0  0
  9 10  1  0  0  0  0
  9 11  1  0  0  0  0
  9 22  1  0  0  0  0
 11 12  1  0  0  0  0
 11 13  1  0  0  0  0
 11 14  1  0  0  0  0
 14 15  1  0  0  0  0
 14 16  1  0  0  0  0
 14 17  1  0  0  0  0
 17 18  1  0  0  0  0
 18 19  1  0  0  0  0
 18 20  1  0  0  0  0
 18 21  1  0  0  0  0
 22 23  2  0  0  0  0
 22 24  1  0  0  0  0
 24 25  1  0  0  0  0
 24 26  1  0  0  0  0
 26 27  1  0  0  0  0
 26 28  1  0  0  0  0
 26 29  1  0  0  0  0
M  END
$$$$

  -OEChem-04042216023D

 29 28  0     1  0  0  0  0  0999 V2000
   -2.6802   -4.0952    0.6540 H   0  0  0  0  0  0  0  0  0  0  0  0
   -2.6591   -3.1155    0.1678 C   0  0  0  0  0  0  0  0  0  0  0  0
   -3.4612   -2.5004    0.5824 H   0  0  0  0  0  0  0  0  0  0  0  0
   -2.8281   -3.2516   -0.9032 H   0  0  0  0  0  0  0  0  0  0  0  0
   -1.3173   -2.4468    0.4003 C   0  0  0  0  0  0  0  0  0  0  0  0
   -0.4619   -3.0118    1.0563 O   0  0  0  0  0  0  0  0  0  0  0  0
   -1.0727   -1.1977   -0.1353 N   0  0  0  0  0  0  0  0  0  0  0  0
   -1.7929   -0.8136   -0.7391 H   0  0  0  0  0  0  0  0  0  0  0  0
    0.2336   -0.5120   -0.0774 C   0  0  1  0  0  0  0  0  0  0  0  0
    0.9700   -1.1751   -0.5456 H   0  0  0  0  0  0  0  0  0  0  0  0
    0.1486    0.8072   -0.8780 C   0  0  0  0  0  0  0  0  0  0  0  0
   -0.8595    0.9300   -1.2838 H   0  0  0  0  0  0  0  0  0  0  0  0
    0.3356    1.6688   -0.2275 H   0  0  0  0  0  0  0  0  0  0  0  0
    1.1574    0.8296   -2.0305 C   0  0  0  0  0  0  0  0  0  0  0  0
    2.1650    0.9852   -1.6293 H   0  0  0  0  0  0  0  0  0  0  0  0
    1.1534   -0.1249   -2.5667 H   0  0  0  0  0  0  0  0  0  0  0  0
    0.7394    2.1766   -3.2091 S   0  0  0  0  0  0  0  0  0  0  0  0
   -0.6212    1.4425   -4.2013 C   0  0  0  0  0  0  0  0  0  0  0  0
   -1.4831    1.2195   -3.5667 H   0  0  0  0  0  0  0  0  0  0  0  0
   -0.9348    2.1439   -4.9803 H   0  0  0  0  0  0  0  0  0  0  0  0
   -0.2850    0.5175   -4.6791 H   0  0  0  0  0  0  0  0  0  0  0  0
    0.7675   -0.2377    1.3469 C   0  0  0  0  0  0  0  0  0  0  0  0
    1.9748   -0.2341    1.5470 O   0  0  0  0  0  0  0  0  0  0  0  0
   -0.0774    0.2676    2.3184 N   0  0  0  0  0  0  0  0  0  0  0  0
   -1.0719    0.1771    2.1403 H   0  0  0  0  0  0  0  0  0  0  0  0
    0.3697    0.5783    3.6704 C   0  0  0  0  0  0  0  0  0  0  0  0
    1.1591    1.3372    3.6488 H   0  0  0  0  0  0  0  0  0  0  0  0
   -0.4630    0.9659    4.2650 H   0  0  0  0  0  0  0  0  0  0  0  0
    0.7585   -0.3208    4.1602 H   0  0  0  0  0  0  0  0  0  0  0  0
  1  2  1  0  0  0  0
  2  3  1  0  0  0  0
  2  4  1  0  0  0  0
  2  5  1  0  0  0  0
  5  6  2  0  0  0  0
  5  7  1  0  0  0  0
  7  8  1  0  0  0  0
  7  9  1  0  0  0  0
  9 10  1  0  0  0  0
  9 11  1  0  0  0  0
  9 22  1  0  0  0  0
 11 12  1  0  0  0  0
 11 13  1  0  0  0  0
 11 14  1  0  0  0  0
 14 15  1  0  0  0  0
 14 16  1  0  0  0  0
 14 17  1  0  0  0  0
 17 18  1  0  0  0  0
 18 19  1  0  0  0  0
 18 20  1  0  0  0  0
 18 21  1  0  0  0  0
 22 23  2  0  0  0  0
 22 24  1  0  0  0  0
 24 25  1  0  0  0  0
 24 26  1  0  0  0  0
 26 27  1  0  0  0  0
 26 28  1  0  0  0  0
 26 29  1  0  0  0  0
M  END
$$$$

  -OEChem-04042216023D

 29 28  0     1  0  0  0  0  0999 V2000
   -2.6624   -4.0958    0.6449 H   0  0  0  0  0  0  0  0  0  0  0  0
   -2.6364   -3.1165    0.1582 C   0  0  0  0  0  0  0  0  0  0  0  0
   -3.4373   -2.4981    0.5704 H   0  0  0  0  0  0  0  0  0  0  0  0
   -2.8034   -3.2530   -0.9129 H   0  0  0  0  0  0  0  0  0  0  0  0
   -1.2928   -2.4528    0.3949 C   0  0  0  0  0  0  0  0  0  0  0  0
   -0.4517   -3.0107    1.0748 O   0  0  0  0  0  0  0  0  0  0  0  0
   -1.0330   -1.2147   -0.1590 N   0  0  0  0  0  0  0  0  0  0  0  0
   -1.7393   -0.8400   -0.7844 H   0  0  0  0  0  0  0  0  0  0  0  0
    0.2754   -0.5338   -0.0928 C   0  0  1  0  0  0  0  0  0  0  0  0
    1.0292   -1.1910   -0.5415 H   0  0  0  0  0  0  0  0  0  0  0  0
    0.1884    0.7806   -0.8982 C   0  0  0  0  0  0  0  0  0  0  0  0
   -0.8557    1.0652   -1.0557 H   0  0  0  0  0  0  0  0  0  0  0  0
    0.6612    1.5949   -0.3373 H   0  0  0  0  0  0  0  0  0  0  0  0
    0.9138    0.6528   -2.2401 C   0  0  0  0  0  0  0  0  0  0  0  0
    1.9698    0.4210   -2.0632 H   0  0  0  0  0  0  0  0  0  0  0  0
    0.4842   -0.1634   -2.8295 H   0  0  0  0  0  0  0  0  0  0  0  0
    0.7991    2.2259   -3.1835 S   0  0  0  0  0  0  0  0  0  0  0  0
   -0.9487    2.2565   -3.7476 C   0  0  0  0  0  0  0  0  0  0  0  0
   -1.6271    2.3315   -2.8934 H   0  0  0  0  0  0  0  0  0  0  0  0
   -1.1145    3.1201   -4.3985 H   0  0  0  0  0  0  0  0  0  0  0  0
   -1.1828    1.3468   -4.3081 H   0  0  0  0  0  0  0  0  0  0  0  0
    0.7714   -0.2446    1.3430 C   0  0  0  0  0  0  0  0  0  0  0  0
    1.9719   -0.2487    1.5796 O   0  0  0  0  0  0  0  0  0  0  0  0
   -0.0985    0.2760    2.2841 N   0  0  0  0  0  0  0  0  0  0  0  0
   -1.0875    0.1806    2.0803 H   0  0  0  0  0  0  0  0  0  0  0  0
    0.3108    0.5892    3.6474 C   0  0  0  0  0  0  0  0  0  0  0  0
    1.1149    1.3327    3.6456 H   0  0  0  0  0  0  0  0  0  0  0  0
   -0.5330    0.9974    4.2117 H   0  0  0  0  0  0  0  0  0  0  0  0
    0.6666   -0.3130    4.1561 H   0  0  0  0  0  0  0  0  0  0  0  0
  1  2  1  0  0  0  0
  2  3  1  0  0  0  0
  2  4  1  0  0  0  0
  2  5  1  0  0  0  0
  5  6  2  0  0  0  0
  5  7  1  0  0  0  0
  7  8  1  0  0  0  0
  7  9  1  0  0  0  0
  9 10  1  0  0  0  0
  9 11  1  0  0  0  0
  9 22  1  0  0  0  0
 11 12  1  0  0  0  0
 11 13  1  0  0  0  0
 11 14  1  0  0  0  0
 14 15  1  0  0  0  0
 14 16  1  0  0  0  0
 14 17  1  0  0  0  0
 17 18  1  0  0  0  0
 18 19  1  0  0  0  0
 18 20  1  0  0  0  0
 18 21  1  0  0  0  0
 22 23  2  0  0  0  0
 22 24  1  0  0  0  0
 24 25  1  0  0  0  0
 24 26  1  0  0  0  0
 26 27  1  0  0  0  0
 26 28  1  0  0  0  0
 26 29  1  0  0  0  0
M  END
$$$$

  -OEChem-04042216023D

 29 28  0     1  0  0  0  0  0999 V2000
   -2.6577   -4.1015    0.6487 H   0  0  0  0  0  0  0  0  0  0  0  0
   -2.6322   -3.1237    0.1591 C   0  0  0  0  0  0  0  0  0  0  0  0
   -3.4352   -2.5055    0.5671 H   0  0  0  0  0  0  0  0  0  0  0  0
   -2.7959   -3.2641   -0.9119 H   0  0  0  0  0  0  0  0  0  0  0  0
   -1.2908   -2.4564    0.3970 C   0  0  0  0  0  0  0  0  0  0  0  0
   -0.4551   -3.0050    1.0911 O   0  0  0  0  0  0  0  0  0  0  0  0
   -1.0272   -1.2257   -0.1721 N   0  0  0  0  0  0  0  0  0  0  0  0
   -1.7291   -0.8611   -0.8085 H   0  0  0  0  0  0  0  0  0  0  0  0
    0.2804   -0.5431   -0.1064 C   0  0  1  0  0  0  0  0  0  0  0  0
    1.0366   -1.2080   -0.5390 H   0  0  0  0  0  0  0  0  0  0  0  0
    0.1937    0.7593   -0.9330 C   0  0  0  0  0  0  0  0  0  0  0  0
   -0.8476    1.0523   -1.0958 H   0  0  0  0  0  0  0  0  0  0  0  0
    0.6722    1.5722   -0.3745 H   0  0  0  0  0  0  0  0  0  0  0  0
    0.9245    0.6249   -2.2731 C   0  0  0  0  0  0  0  0  0  0  0  0
    1.9061    0.1657   -2.1133 H   0  0  0  0  0  0  0  0  0  0  0  0
    0.3582   -0.0183   -2.9538 H   0  0  0  0  0  0  0  0  0  0  0  0
    1.1905    2.2787   -3.0300 S   0  0  0  0  0  0  0  0  0  0  0  0
   -0.5091    2.8166   -3.4720 C   0  0  0  0  0  0  0  0  0  0  0  0
   -1.1172    2.9438   -2.5721 H   0  0  0  0  0  0  0  0  0  0  0  0
   -0.4711    3.7725   -4.0031 H   0  0  0  0  0  0  0  0  0  0  0  0
   -0.9848    2.0752   -4.1204 H   0  0  0  0  0  0  0  0  0  0  0  0
    0.7650   -0.2345    1.3293 C   0  0  0  0  0  0  0  0  0  0  0  0
    1.9629   -0.2427    1.5783 O   0  0  0  0  0  0  0  0  0  0  0  0
   -0.1125    0.2982    2.2567 N   0  0  0  0  0  0  0  0  0  0  0  0
   -1.0996    0.1976    2.0463 H   0  0  0  0  0  0  0  0  0  0  0  0
    0.2842    0.6139    3.6230 C   0  0  0  0  0  0  0  0  0  0  0  0
    1.0923    1.3532    3.6274 H   0  0  0  0  0  0  0  0  0  0  0  0
   -0.5633    1.0280    4.1773 H   0  0  0  0  0  0  0  0  0  0  0  0
    0.6297   -0.2887    4.1382 H   0  0  0  0  0  0  0  0  0  0  0  0
  1  2  1  0  0  0  0
  2  3  1  0  0  0  0
  2  4  1  0  0  0  0
  2  5  1  0  0  0  0
  5  6  2  0  0  0  0
  5  7  1  0  0  0  0
  7  8  1  0  0  0  0
  7  9  1  0  0  0  0
  9 10  1  0  0  0  0
  9 11  1  0  0  0  0
  9 22  1  0  0  0  0
 11 12  1  0  0  0  0
 11 13  1  0  0  0  0
 11 14  1  0  0  0  0
 14 15  1  0  0  0  0
 14 16  1  0  0  0  0
 14 17  1  0  0  0  0
 17 18  1  0  0  0  0
 18 19  1  0  0  0  0
 18 20  1  0  0  0  0
 18 21  1  0  0  0  0
 22 23  2  0  0  0  0
 22 24  1  0  0  0  0
 24 25  1  0  0  0  0
 24 26  1  0  0  0  0
 26 27  1  0  0  0  0
 26 28  1  0  0  0  0
 26 29  1  0  0  0  0
M  END
$$$$

  -OEChem-04042216023D

 29 28  0     1  0  0  0  0  0999 V2000
   -2.6648   -4.0939    0.6608 H   0  0  0  0  0  0  0  0  0  0  0  0
   -2.6341   -3.1218    0.1603 C   0  0  0  0  0  0  0  0  0  0  0  0
   -3.4399   -2.4980    0.5544 H   0  0  0  0  0  0  0  0  0  0  0  0
   -2.7887   -3.2740   -0.9106 H   0  0  0  0  0  0  0  0  0  0  0  0
   -1.2939   -2.4536    0.4022 C   0  0  0  0  0  0  0  0  0  0  0  0
   -0.4663   -2.9931    1.1128 O   0  0  0  0  0  0  0  0  0  0  0  0
   -1.0236   -1.2309   -0.1804 N   0  0  0  0  0  0  0  0  0  0  0  0
   -1.7174   -0.8770   -0.8314 H   0  0  0  0  0  0  0  0  0  0  0  0
    0.2860   -0.5520   -0.1176 C   0  0  1  0  0  0  0  0  0  0  0  0
    1.0420   -1.2252   -0.5364 H   0  0  0  0  0  0  0  0  0  0  0  0
    0.1974    0.7412   -0.9608 C   0  0  0  0  0  0  0  0  0  0  0  0
   -0.8422    1.0425   -1.1217 H   0  0  0  0  0  0  0  0  0  0  0  0
    0.6793    1.5518   -0.4022 H   0  0  0  0  0  0  0  0  0  0  0  0
    0.9251    0.6100   -2.3067 C   0  0  0  0  0  0  0  0  0  0  0  0
    1.7845   -0.0612   -2.2080 H   0  0  0  0  0  0  0  0  0  0  0  0
    0.2552    0.1862   -3.0612 H   0  0  0  0  0  0  0  0  0  0  0  0
    1.5705    2.2406   -2.8576 S   0  0  0  0  0  0  0  0  0  0  0  0
    0.0376    3.2109   -3.1438 C   0  0  0  0  0  0  0  0  0  0  0  0
   -0.5212    3.3289   -2.2111 H   0  0  0  0  0  0  0  0  0  0  0  0
    0.2912    4.2046   -3.5251 H   0  0  0  0  0  0  0  0  0  0  0  0
   -0.5988    2.7069   -3.8770 H   0  0  0  0  0  0  0  0  0  0  0  0
    0.7645   -0.2286    1.3174 C   0  0  0  0  0  0  0  0  0  0  0  0
    1.9607   -0.2405    1.5747 O   0  0  0  0  0  0  0  0  0  0  0  0
   -0.1160    0.3174    2.2341 N   0  0  0  0  0  0  0  0  0  0  0  0
   -1.1021    0.2194    2.0181 H   0  0  0  0  0  0  0  0  0  0  0  0
    0.2736    0.6408    3.6008 C   0  0  0  0  0  0  0  0  0  0  0  0
    1.0853    1.3760    3.6046 H   0  0  0  0  0  0  0  0  0  0  0  0
   -0.5753    1.0630    4.1468 H   0  0  0  0  0  0  0  0  0  0  0  0
    0.6114   -0.2597    4.1247 H   0  0  0  0  0  0  0  0  0  0  0  0
  1  2  1  0  0  0  0
  2  3  1  0  0  0  0
  2  4  1  0  0  0  0
  2  5  1  0  0  0  0
  5  6  2  0  0  0  0
  5  7  1  0  0  0  0
  7  8  1  0  0  0  0
  7  9  1  0  0  0  0
  9 10  1  0  0  0  0
  9 11  1  0  0  0  0
  9 22  1  0  0  0  0
 11 12  1  0  0  0  0
 11 13  1  0  0  0  0
 11 14  1  0  0  0  0
 14 15  1  0  0  0  0
 14 16  1  0  0  0  0
 14 17  1  0  0  0  0
 17 18  1  0  0  0  0
 18 19  1  0  0  0  0
 18 20  1  0  0  0  0
 18 21  1  0  0  0  0
 22 23  2  0  0  0  0
 22 24  1  0  0  0  0
 24 25  1  0  0  0  0
 24 26  1  0  0  0  0
 26 27  1  0  0  0  0
 26 28  1  0  0  0  0
 26 29  1  0  0  0  0
M  END
$$$$

  -OEChem-04042216023D

 29 28  0     1  0  0  0  0  0999 V2000
   -2.6657   -4.0961    0.6645 H   0  0  0  0  0  0  0  0  0  0  0  0
   -2.6355   -3.1243    0.1631 C   0  0  0  0  0  0  0  0  0  0  0  0
   -3.4473   -2.5038    0.5502 H   0  0  0  0  0  0  0  0  0  0  0  0
   -2.7814   -3.2789   -0.9086 H   0  0  0  0  0  0  0  0  0  0  0  0
   -1.2996   -2.4498    0.4132 C   0  0  0  0  0  0  0  0  0  0  0  0
   -0.4758   -2.9844    1.1316 O   0  0  0  0  0  0  0  0  0  0  0  0
   -1.0272   -1.2307   -0.1764 N   0  0  0  0  0  0  0  0  0  0  0  0
   -1.7165   -0.8853   -0.8368 H   0  0  0  0  0  0  0  0  0  0  0  0
    0.2857   -0.5567   -0.1212 C   0  0  1  0  0  0  0  0  0  0  0  0
    1.0402   -1.2333   -0.5365 H   0  0  0  0  0  0  0  0  0  0  0  0
    0.1970    0.7383   -0.9646 C   0  0  0  0  0  0  0  0  0  0  0  0
   -0.8431    1.0431   -1.1157 H   0  0  0  0  0  0  0  0  0  0  0  0
    0.6796    1.5454   -0.4014 H   0  0  0  0  0  0  0  0  0  0  0  0
    0.9127    0.6209   -2.3224 C   0  0  0  0  0  0  0  0  0  0  0  0
    1.5874   -0.2407   -2.3329 H   0  0  0  0  0  0  0  0  0  0  0  0
    0.1789    0.4719   -3.1204 H   0  0  0  0  0  0  0  0  0  0  0  0
    1.9285    2.1142   -2.6657 S   0  0  0  0  0  0  0  0  0  0  0  0
    0.6617    3.4343   -2.8290 C   0  0  0  0  0  0  0  0  0  0  0  0
    0.1043    3.5488   -1.8949 H   0  0  0  0  0  0  0  0  0  0  0  0
    1.1448    4.3872   -3.0650 H   0  0  0  0  0  0  0  0  0  0  0  0
   -0.0398    3.1894   -3.6319 H   0  0  0  0  0  0  0  0  0  0  0  0
    0.7663   -0.2305    1.3130 C   0  0  0  0  0  0  0  0  0  0  0  0
    1.9618   -0.2479    1.5725 O   0  0  0  0  0  0  0  0  0  0  0  0
   -0.1126    0.3220    2.2276 N   0  0  0  0  0  0  0  0  0  0  0  0
   -1.0990    0.2224    2.0137 H   0  0  0  0  0  0  0  0  0  0  0  0
    0.2791    0.6507    3.5925 C   0  0  0  0  0  0  0  0  0  0  0  0
    1.0962    1.3799    3.5921 H   0  0  0  0  0  0  0  0  0  0  0  0
   -0.5663    1.0827    4.1363 H   0  0  0  0  0  0  0  0  0  0  0  0
    0.6102   -0.2490    4.1219 H   0  0  0  0  0  0  0  0  0  0  0  0
  1  2  1  0  0  0  0
  2  3  1  0  0  0  0
  2  4  1  0  0  0  0
  2  5  1  0  0  0  0
  5  6  2  0  0  0  0
  5  7  1  0  0  0  0
  7  8  1  0  0  0  0
  7  9  1  0  0  0  0
  9 10  1  0  0  0  0
  9 11  1  0  0  0  0
  9 22  1  0  0  0  0
 11 12  1  0  0  0  0
 11 13  1  0  0  0  0
 11 14  1  0  0  0  0
 14 15  1  0  0  0  0
 14 16  1  0  0  0  0
 14 17  1  0  0  0  0
 17 18  1  0  0  0  0
 18 19  1  0  0  0  0
 18 20  1  0  0  0  0
 18 21  1  0  0  0  0
 22 23  2  0  0  0  0
 22 24  1  0  0  0  0
 24 25  1  0  0  0  0
 24 26  1  0  0  0  0
 26 27  1  0  0  0  0
 26 28  1  0  0  0  0
 26 29  1  0  0  0  0
M  END
$$$$

  -OEChem-04042216023D

 29 28  0     1  0  0  0  0  0999 V2000
   -2.6640   -4.0930    0.6706 H   0  0  0  0  0  0  0  0  0  0  0  0
   -2.6344   -3.1206    0.1704 C   0  0  0  0  0  0  0  0  0  0  0  0
   -3.4420   -2.4986    0.5634 H   0  0  0  0  0  0  0  0  0  0  0  0
   -2.7871   -3.2735   -0.9006 H   0  0  0  0  0  0  0  0  0  0  0  0
   -1.2960   -2.4495    0.4150 C   0  0  0  0  0  0  0  0  0  0  0  0
   -0.4705   -2.9873    1.1290 O   0  0  0  0  0  0  0  0  0  0  0  0
   -1.0256   -1.2280   -0.1710 N   0  0  0  0  0  0  0  0  0  0  0  0
   -1.7157   -0.8830   -0.8307 H   0  0  0  0  0  0  0  0  0  0  0  0
    0.2875   -0.5535   -0.1189 C   0  0  1  0  0  0  0  0  0  0  0  0
    1.0448   -1.2234   -0.5406 H   0  0  0  0  0  0  0  0  0  0  0  0
    0.1943    0.7504   -0.9485 C   0  0  0  0  0  0  0  0  0  0  0  0
   -0.8506    1.0384   -1.0992 H   0  0  0  0  0  0  0  0  0  0  0  0
    0.6601    1.5629   -0.3801 H   0  0  0  0  0  0  0  0  0  0  0  0
    0.9009    0.6472   -2.3132 C   0  0  0  0  0  0  0  0  0  0  0  0
    1.3329   -0.3477   -2.4597 H   0  0  0  0  0  0  0  0  0  0  0  0
    0.1727    0.8027   -3.1153 H   0  0  0  0  0  0  0  0  0  0  0  0
    2.2448    1.8924   -2.4682 S   0  0  0  0  0  0  0  0  0  0  0  0
    1.3208    3.4786   -2.5473 C   0  0  0  0  0  0  0  0  0  0  0  0
    0.7473    3.6355   -1.6295 H   0  0  0  0  0  0  0  0  0  0  0  0
    2.0199    4.3115   -2.6671 H   0  0  0  0  0  0  0  0  0  0  0  0
    0.6326    3.4750   -3.3976 H   0  0  0  0  0  0  0  0  0  0  0  0
    0.7691   -0.2349    1.3168 C   0  0  0  0  0  0  0  0  0  0  0  0
    1.9638   -0.2579    1.5794 O   0  0  0  0  0  0  0  0  0  0  0  0
   -0.1104    0.3120    2.2343 N   0  0  0  0  0  0  0  0  0  0  0  0
   -1.0964    0.2129    2.0184 H   0  0  0  0  0  0  0  0  0  0  0  0
    0.2788    0.6266    3.6031 C   0  0  0  0  0  0  0  0  0  0  0  0
    1.0970    1.3545    3.6120 H   0  0  0  0  0  0  0  0  0  0  0  0
   -0.5676    1.0544    4.1486 H   0  0  0  0  0  0  0  0  0  0  0  0
    0.6077   -0.2786    4.1244 H   0  0  0  0  0  0  0  0  0  0  0  0
  1  2  1  0  0  0  0
  2  3  1  0  0  0  0
  2  4  1  0  0  0  0
  2  5  1  0  0  0  0
  5  6  2  0  0  0  0
  5  7  1  0  0  0  0
  7  8  1  0  0  0  0
  7  9  1  0  0  0  0
  9 10  1  0  0  0  0
  9 11  1  0  0  0  0
  9 22  1  0  0  0  0
 11 12  1  0  0  0  0
 11 13  1  0  0  0  0
 11 14  1  0  0  0  0
 14 15  1  0  0  0  0
 14 16  1  0  0  0  0
 14 17  1  0  0  0  0
 17 18  1  0  0  0  0
 18 19  1  0  0  0  0
 18 20  1  0  0  0  0
 18 21  1  0  0  0  0
 22 23  2  0  0  0  0
 22 24  1  0  0  0  0
 24 25  1  0  0  0  0
 24 26  1  0  0  0  0
 26 27  1  0  0  0  0
 26 28  1  0  0  0  0
 26 29  1  0  0  0  0
M  END
$$$$

  -OEChem-04042216023D

 29 28  0     1  0  0  0  0  0999 V2000
   -2.6482   -4.1064    0.6571 H   0  0  0  0  0  0  0  0  0  0  0  0
   -2.6273   -3.1301    0.1642 C   0  0  0  0  0  0  0  0  0  0  0  0
   -3.4405   -2.5182    0.5619 H   0  0  0  0  0  0  0  0  0  0  0  0
   -2.7786   -3.2765   -0.9079 H   0  0  0  0  0  0  0  0  0  0  0  0
   -1.2945   -2.4493    0.4135 C   0  0  0  0  0  0  0  0  0  0  0  0
   -0.4662   -2.9847    1.1261 O   0  0  0  0  0  0  0  0  0  0  0  0
   -1.0346   -1.2216   -0.1646 N   0  0  0  0  0  0  0  0  0  0  0  0
   -1.7258   -0.8817   -0.8255 H   0  0  0  0  0  0  0  0  0  0  0  0
    0.2759   -0.5409   -0.1148 C   0  0  1  0  0  0  0  0  0  0  0  0
    1.0353   -1.2000   -0.5502 H   0  0  0  0  0  0  0  0  0  0  0  0
    0.1802    0.7720   -0.9278 C   0  0  0  0  0  0  0  0  0  0  0  0
   -0.8696    1.0388   -1.0846 H   0  0  0  0  0  0  0  0  0  0  0  0
    0.6270    1.5933   -0.3580 H   0  0  0  0  0  0  0  0  0  0  0  0
    0.8850    0.6687   -2.2914 C   0  0  0  0  0  0  0  0  0  0  0  0
    1.0498   -0.3770   -2.5700 H   0  0  0  0  0  0  0  0  0  0  0  0
    0.2446    1.1091   -3.0620 H   0  0  0  0  0  0  0  0  0  0  0  0
    2.4889    1.5669   -2.2912 S   0  0  0  0  0  0  0  0  0  0  0  0
    1.9822    3.3328   -2.2662 C   0  0  0  0  0  0  0  0  0  0  0  0
    1.4226    3.5610   -1.3548 H   0  0  0  0  0  0  0  0  0  0  0  0
    2.8678    3.9744   -2.2989 H   0  0  0  0  0  0  0  0  0  0  0  0
    1.3543    3.5588   -3.1329 H   0  0  0  0  0  0  0  0  0  0  0  0
    0.7640   -0.2318    1.3210 C   0  0  0  0  0  0  0  0  0  0  0  0
    1.9598   -0.2501    1.5791 O   0  0  0  0  0  0  0  0  0  0  0  0
   -0.1144    0.3032    2.2467 N   0  0  0  0  0  0  0  0  0  0  0  0
   -1.1006    0.1972    2.0349 H   0  0  0  0  0  0  0  0  0  0  0  0
    0.2783    0.6051    3.6173 C   0  0  0  0  0  0  0  0  0  0  0  0
    1.0947    1.3350    3.6312 H   0  0  0  0  0  0  0  0  0  0  0  0
   -0.5675    1.0249    4.1697 H   0  0  0  0  0  0  0  0  0  0  0  0
    0.6107   -0.3049    4.1279 H   0  0  0  0  0  0  0  0  0  0  0  0
  1  2  1  0  0  0  0
  2  3  1  0  0  0  0
  2  4  1  0  0  0  0
  2  5  1  0  0  0  0
  5  6  2  0  0  0  0
  5  7  1  0  0  0  0
  7  8  1  0  0  0  0
  7  9  1  0  0  0  0
  9 10  1  0  0  0  0
  9 11  1  0  0  0  0
  9 22  1  0  0  0  0
 11 12  1  0  0  0  0
 11 13  1  0  0  0  0
 11 14  1  0  0  0  0
 14 15  1  0  0  0  0
 14 16  1  0  0  0  0
 14 17  1  0  0  0  0
 17 18  1  0  0  0  0
 18 19  1  0  0  0  0
 18 20  1  0  0  0  0
 18 21  1  0  0  0  0
 22 23  2  0  0  0  0
 22 24  1  0  0  0  0
 24 25  1  0  0  0  0
 24 26  1  0  0  0  0
 26 27  1  0  0  0  0
 26 28  1  0  0  0  0
 26 29  1  0  0  0  0
M  END
$$$$

  -OEChem-04042216023D

 29 28  0     1  0  0  0  0  0999 V2000
   -2.6362   -4.1089    0.6513 H   0  0  0  0  0  0  0  0  0  0  0  0
   -2.6190   -3.1350    0.1538 C   0  0  0  0  0  0  0  0  0  0  0  0
   -3.4393   -2.5273    0.5429 H   0  0  0  0  0  0  0  0  0  0  0  0
   -2.7623   -3.2872   -0.9186 H   0  0  0  0  0  0  0  0  0  0  0  0
   -1.2927   -2.4440    0.4085 C   0  0  0  0  0  0  0  0  0  0  0  0
   -0.4618   -2.9744    1.1219 O   0  0  0  0  0  0  0  0  0  0  0  0
   -1.0411   -1.2132   -0.1660 N   0  0  0  0  0  0  0  0  0  0  0  0
   -1.7337   -0.8772   -0.8277 H   0  0  0  0  0  0  0  0  0  0  0  0
    0.2665   -0.5264   -0.1192 C   0  0  1  0  0  0  0  0  0  0  0  0
    1.0266   -1.1793   -0.5644 H   0  0  0  0  0  0  0  0  0  0  0  0
    0.1640    0.7868   -0.9287 C   0  0  0  0  0  0  0  0  0  0  0  0
   -0.8878    1.0409   -1.0914 H   0  0  0  0  0  0  0  0  0  0  0  0
    0.6016    1.6160   -0.3643 H   0  0  0  0  0  0  0  0  0  0  0  0
    0.8688    0.6728   -2.2883 C   0  0  0  0  0  0  0  0  0  0  0  0
    0.7905   -0.3479   -2.6770 H   0  0  0  0  0  0  0  0  0  0  0  0
    0.3734    1.3336   -3.0066 H   0  0  0  0  0  0  0  0  0  0  0  0
    2.6361    1.1674   -2.1810 S   0  0  0  0  0  0  0  0  0  0  0  0
    2.5735    2.9887   -1.9442 C   0  0  0  0  0  0  0  0  0  0  0  0
    2.1021    3.2386   -0.9898 H   0  0  0  0  0  0  0  0  0  0  0  0
    3.5880    3.3982   -1.9452 H   0  0  0  0  0  0  0  0  0  0  0  0
    2.0064    3.4577   -2.7534 H   0  0  0  0  0  0  0  0  0  0  0  0
    0.7601   -0.2200    1.3156 C   0  0  0  0  0  0  0  0  0  0  0  0
    1.9574   -0.2233    1.5675 O   0  0  0  0  0  0  0  0  0  0  0  0
   -0.1176    0.3075    2.2466 N   0  0  0  0  0  0  0  0  0  0  0  0
   -1.1034    0.1841    2.0429 H   0  0  0  0  0  0  0  0  0  0  0  0
    0.2800    0.6092    3.6161 C   0  0  0  0  0  0  0  0  0  0  0  0
    1.0921    1.3439    3.6272 H   0  0  0  0  0  0  0  0  0  0  0  0
   -0.5656    1.0234    4.1733 H   0  0  0  0  0  0  0  0  0  0  0  0
    0.6203   -0.2995    4.1240 H   0  0  0  0  0  0  0  0  0  0  0  0
  1  2  1  0  0  0  0
  2  3  1  0  0  0  0
  2  4  1  0  0  0  0
  2  5  1  0  0  0  0
  5  6  2  0  0  0  0
  5  7  1  0  0  0  0
  7  8  1  0  0  0  0
  7  9  1  0  0  0  0
  9 10  1  0  0  0  0
  9 11  1  0  0  0  0
  9 22  1  0  0  0  0
 11 12  1  0  0  0  0
 11 13  1  0  0  0  0
 11 14  1  0  0  0  0
 14 15  1  0  0  0  0
 14 16  1  0  0  0  0
 14 17  1  0  0  0  0
 17 18  1  0  0  0  0
 18 19  1  0  0  0  0
 18 20  1  0  0  0  0
 18 21  1  0  0  0  0
 22 23  2  0  0  0  0
 22 24  1  0  0  0  0
 24 25  1  0  0  0  0
 24 26  1  0  0  0  0
 26 27  1  0  0  0  0
 26 28  1  0  0  0  0
 26 29  1  0  0  0  0
M  END
$$$$

  -OEChem-04042216023D

 29 28  0     1  0  0  0  0  0999 V2000
   -2.5588   -4.0802    0.7763 H   0  0  0  0  0  0  0  0  0  0  0  0
   -2.5487   -3.1570    0.1898 C   0  0  0  0  0  0  0  0  0  0  0  0
   -3.3849   -2.5299    0.5080 H   0  0  0  0  0  0  0  0  0  0  0  0
   -2.6708   -3.4106   -0.8659 H   0  0  0  0  0  0  0  0  0  0  0  0
   -1.2384   -2.4219    0.3984 C   0  0  0  0  0  0  0  0  0  0  0  0
   -0.3771   -2.9102    1.1059 O   0  0  0  0  0  0  0  0  0  0  0  0
   -1.0397   -1.1949   -0.2043 N   0  0  0  0  0  0  0  0  0  0  0  0
   -1.7540   -0.8994   -0.8621 H   0  0  0  0  0  0  0  0  0  0  0  0
    0.2500   -0.4740   -0.2098 C   0  0  1  0  0  0  0  0  0  0  0  0
    1.0098   -1.1152   -0.6721 H   0  0  0  0  0  0  0  0  0  0  0  0
    0.0935    0.8257   -1.0310 C   0  0  0  0  0  0  0  0  0  0  0  0
   -0.9685    1.0505   -1.1691 H   0  0  0  0  0  0  0  0  0  0  0  0
    0.5185    1.6773   -0.4926 H   0  0  0  0  0  0  0  0  0  0  0  0
    0.7595    0.7077   -2.4086 C   0  0  0  0  0  0  0  0  0  0  0  0
    0.4597   -0.2287   -2.8908 H   0  0  0  0  0  0  0  0  0  0  0  0
    0.4033    1.5294   -3.0379 H   0  0  0  0  0  0  0  0  0  0  0  0
    2.5985    0.8017   -2.3442 S   0  0  0  0  0  0  0  0  0  0  0  0
    3.0132    2.2579   -1.3020 C   0  0  0  0  0  0  0  0  0  0  0  0
    2.7690    2.0612   -0.2537 H   0  0  0  0  0  0  0  0  0  0  0  0
    4.0844    2.4695   -1.3688 H   0  0  0  0  0  0  0  0  0  0  0  0
    2.4602    3.1393   -1.6387 H   0  0  0  0  0  0  0  0  0  0  0  0
    0.7801   -0.1307    1.2032 C   0  0  0  0  0  0  0  0  0  0  0  0
    1.9848   -0.0705    1.4096 O   0  0  0  0  0  0  0  0  0  0  0  0
   -0.0837    0.3891    2.1510 N   0  0  0  0  0  0  0  0  0  0  0  0
   -1.0705    0.2219    1.9856 H   0  0  0  0  0  0  0  0  0  0  0  0
    0.3486    0.7367    3.4990 C   0  0  0  0  0  0  0  0  0  0  0  0
    1.1265    1.5068    3.4662 H   0  0  0  0  0  0  0  0  0  0  0  0
   -0.4944    1.1241    4.0789 H   0  0  0  0  0  0  0  0  0  0  0  0
    0.7478   -0.1450    4.0116 H   0  0  0  0  0  0  0  0  0  0  0  0
  1  2  1  0  0  0  0
  2  3  1  0  0  0  0
  2  4  1  0  0  0  0
  2  5  1  0  0  0  0
  5  6  2  0  0  0  0
  5  7  1  0  0  0  0
  7  8  1  0  0  0  0
  7  9  1  0  0  0  0
  9 10  1  0  0  0  0
  9 11  1  0  0  0  0
  9 22  1  0  0  0  0
 11 12  1  0  0  0  0
 11 13  1  0  0  0  0
 11 14  1  0  0  0  0
 14 15  1  0  0  0  0
 14 16  1  0  0  0  0
 14 17  1  0  0  0  0
 17 18  1  0  0  0  0
 18 19  1  0  0  0  0
 18 20  1  0  0  0  0
 18 21  1  0  0  0  0
 22 23  2  0  0  0  0
 22 24  1  0  0  0  0
 24 25  1  0  0  0  0
 24 26  1  0  0  0  0
 26 27  1  0  0  0  0
 26 28  1  0  0  0  0
 26 29  1  0  0  0  0
M  END
$$$$

  -OEChem-04042216023D

 29 28  0     1  0  0  0  0  0999 V2000
   -2.5867   -4.1000    0.6617 H   0  0  0  0  0  0  0  0  0  0  0  0
   -2.5780   -3.1345    0.1475 C   0  0  0  0  0  0  0  0  0  0  0  0
   -3.4138   -2.5338    0.5140 H   0  0  0  0  0  0  0  0  0  0  0  0
   -2.7025   -3.3077   -0.9241 H   0  0  0  0  0  0  0  0  0  0  0  0
   -1.2673   -2.4164    0.4082 C   0  0  0  0  0  0  0  0  0  0  0  0
   -0.4385   -2.9196    1.1434 O   0  0  0  0  0  0  0  0  0  0  0  0
   -1.0312   -1.1900   -0.1826 N   0  0  0  0  0  0  0  0  0  0  0  0
   -1.7159   -0.8885   -0.8686 H   0  0  0  0  0  0  0  0  0  0  0  0
    0.2749   -0.4991   -0.1624 C   0  0  1  0  0  0  0  0  0  0  0  0
    1.0229   -1.1574   -0.6178 H   0  0  0  0  0  0  0  0  0  0  0  0
    0.1442    0.8099   -0.9784 C   0  0  0  0  0  0  0  0  0  0  0  0
   -0.9104    1.0733   -1.1058 H   0  0  0  0  0  0  0  0  0  0  0  0
    0.6054    1.6367   -0.4287 H   0  0  0  0  0  0  0  0  0  0  0  0
    0.8127    0.7230   -2.3581 C   0  0  0  0  0  0  0  0  0  0  0  0
    0.3287   -0.0639   -2.9451 H   0  0  0  0  0  0  0  0  0  0  0  0
    0.6631    1.6695   -2.8872 H   0  0  0  0  0  0  0  0  0  0  0  0
    2.6185    0.3716   -2.2796 S   0  0  0  0  0  0  0  0  0  0  0  0
    3.3086    1.7370   -1.2612 C   0  0  0  0  0  0  0  0  0  0  0  0
    2.9482    1.6699   -0.2309 H   0  0  0  0  0  0  0  0  0  0  0  0
    4.4006    1.6749   -1.2464 H   0  0  0  0  0  0  0  0  0  0  0  0
    3.0179    2.7063   -1.6759 H   0  0  0  0  0  0  0  0  0  0  0  0
    0.7906   -0.1777    1.2615 C   0  0  0  0  0  0  0  0  0  0  0  0
    1.9922   -0.1579    1.4932 O   0  0  0  0  0  0  0  0  0  0  0  0
   -0.0764    0.3560    2.1987 N   0  0  0  0  0  0  0  0  0  0  0  0
   -1.0640    0.2176    2.0129 H   0  0  0  0  0  0  0  0  0  0  0  0
    0.3390    0.6816    3.5574 C   0  0  0  0  0  0  0  0  0  0  0  0
    1.1437    1.4243    3.5458 H   0  0  0  0  0  0  0  0  0  0  0  0
   -0.5022    1.0956    4.1212 H   0  0  0  0  0  0  0  0  0  0  0  0
    0.6962   -0.2160    4.0734 H   0  0  0  0  0  0  0  0  0  0  0  0
  1  2  1  0  0  0  0
  2  3  1  0  0  0  0
  2  4  1  0  0  0  0
  2  5  1  0  0  0  0
  5  6  2  0  0  0  0
  5  7  1  0  0  0  0
  7  8  1  0  0  0  0
  7  9  1  0  0  0  0
  9 10  1  0  0  0  0
  9 11  1  0  0  0  0
  9 22  1  0  0  0  0
 11 12  1  0  0  0  0
 11 13  1  0  0  0  0
 11 14  1  0  0  0  0
 14 15  1  0  0  0  0
 14 16  1  0  0  0  0
 14 17  1  0  0  0  0
 17 18  1  0  0  0  0
 18 19  1  0  0  0  0
 18 20  1  0  0  0  0
 18 21  1  0  0  0  0
 22 23  2  0  0  0  0
 22 24  1  0  0  0  0
 24 25  1  0  0  0  0
 24 26  1  0  0  0  0
 26 27  1  0  0  0  0
 26 28  1  0  0  0  0
 26 29  1  0  0  0  0
M  END
$$$$

  -OEChem-04042216023D

 29 28  0     1  0  0  0  0  0999 V2000
   -2.6459   -4.0940    0.6281 H   0  0  0  0  0  0  0  0  0  0  0  0
   -2.6120   -3.1249    0.1220 C   0  0  0  0  0  0  0  0  0  0  0  0
   -3.4532   -2.5189    0.4668 H   0  0  0  0  0  0  0  0  0  0  0  0
   -2.7051   -3.2891   -0.9543 H   0  0  0  0  0  0  0  0  0  0  0  0
   -1.3030   -2.4218    0.4292 C   0  0  0  0  0  0  0  0  0  0  0  0
   -0.5106   -2.9313    1.1996 O   0  0  0  0  0  0  0  0  0  0  0  0
   -1.0294   -1.2011   -0.1576 N   0  0  0  0  0  0  0  0  0  0  0  0
   -1.6808   -0.9020   -0.8761 H   0  0  0  0  0  0  0  0  0  0  0  0
    0.2900   -0.5369   -0.1097 C   0  0  1  0  0  0  0  0  0  0  0  0
    1.0297   -1.2156   -0.5434 H   0  0  0  0  0  0  0  0  0  0  0  0
    0.1906    0.7787   -0.9259 C   0  0  0  0  0  0  0  0  0  0  0  0
   -0.8554    1.0801   -1.0408 H   0  0  0  0  0  0  0  0  0  0  0  0
    0.6816    1.5776   -0.3596 H   0  0  0  0  0  0  0  0  0  0  0  0
    0.8642    0.7431   -2.3100 C   0  0  0  0  0  0  0  0  0  0  0  0
    0.2290    0.1649   -2.9881 H   0  0  0  0  0  0  0  0  0  0  0  0
    0.9255    1.7616   -2.7068 H   0  0  0  0  0  0  0  0  0  0  0  0
    2.5422   -0.0135   -2.3367 S   0  0  0  0  0  0  0  0  0  0  0  0
    3.5340    1.1462   -1.3135 C   0  0  0  0  0  0  0  0  0  0  0  0
    3.1413    1.1942   -0.2945 H   0  0  0  0  0  0  0  0  0  0  0  0
    4.5732    0.8074   -1.2665 H   0  0  0  0  0  0  0  0  0  0  0  0
    3.5114    2.1499   -1.7472 H   0  0  0  0  0  0  0  0  0  0  0  0
    0.7784   -0.2256    1.3265 C   0  0  0  0  0  0  0  0  0  0  0  0
    1.9746   -0.2286    1.5861 O   0  0  0  0  0  0  0  0  0  0  0  0
   -0.1000    0.3256    2.2425 N   0  0  0  0  0  0  0  0  0  0  0  0
   -1.0851    0.2009    2.0346 H   0  0  0  0  0  0  0  0  0  0  0  0
    0.2895    0.6425    3.6109 C   0  0  0  0  0  0  0  0  0  0  0  0
    1.1064    1.3719    3.6186 H   0  0  0  0  0  0  0  0  0  0  0  0
   -0.5576    1.0695    4.1559 H   0  0  0  0  0  0  0  0  0  0  0  0
    0.6197   -0.2618    4.1330 H   0  0  0  0  0  0  0  0  0  0  0  0
  1  2  1  0  0  0  0
  2  3  1  0  0  0  0
  2  4  1  0  0  0  0
  2  5  1  0  0  0  0
  5  6  2  0  0  0  0
  5  7  1  0  0  0  0
  7  8  1  0  0  0  0
  7  9  1  0  0  0  0
  9 10  1  0  0  0  0
  9 11  1  0  0  0  0
  9 22  1  0  0  0  0
 11 12  1  0  0  0  0
 11 13  1  0  0  0  0
 11 14  1  0  0  0  0
 14 15  1  0  0  0  0
 14 16  1  0  0  0  0
 14 17  1  0  0  0  0
 17 18  1  0  0  0  0
 18 19  1  0  0  0  0
 18 20  1  0  0  0  0
 18 21  1  0  0  0  0
 22 23  2  0  0  0  0
 22 24  1  0  0  0  0
 24 25  1  0  0  0  0
 24 26  1  0  0  0  0
 26 27  1  0  0  0  0
 26 28  1  0  0  0  0
 26 29  1  0  0  0  0
M  END
$$$$

  -OEChem-04042216023D

 29 28  0     1  0  0  0  0  0999 V2000
   -2.6985   -4.0859    0.6249 H   0  0  0  0  0  0  0  0  0  0  0  0
   -2.6425   -3.1197    0.1153 C   0  0  0  0  0  0  0  0  0  0  0  0
   -3.4875   -2.5049    0.4334 H   0  0  0  0  0  0  0  0  0  0  0  0
   -2.7068   -3.2881   -0.9623 H   0  0  0  0  0  0  0  0  0  0  0  0
   -1.3372   -2.4258    0.4558 C   0  0  0  0  0  0  0  0  0  0  0  0
   -0.5740   -2.9346    1.2558 O   0  0  0  0  0  0  0  0  0  0  0  0
   -1.0344   -1.2141   -0.1353 N   0  0  0  0  0  0  0  0  0  0  0  0
   -1.6546   -0.9256   -0.8853 H   0  0  0  0  0  0  0  0  0  0  0  0
    0.2935   -0.5703   -0.0644 C   0  0  1  0  0  0  0  0  0  0  0  0
    1.0322   -1.2654   -0.4691 H   0  0  0  0  0  0  0  0  0  0  0  0
    0.2249    0.7459   -0.8867 C   0  0  0  0  0  0  0  0  0  0  0  0
   -0.8136    1.0731   -0.9975 H   0  0  0  0  0  0  0  0  0  0  0  0
    0.7297    1.5264   -0.3065 H   0  0  0  0  0  0  0  0  0  0  0  0
    0.9080    0.7489   -2.2715 C   0  0  0  0  0  0  0  0  0  0  0  0
    0.1673    0.4238   -3.0087 H   0  0  0  0  0  0  0  0  0  0  0  0
    1.1914    1.7744   -2.5292 H   0  0  0  0  0  0  0  0  0  0  0  0
    2.3731   -0.3476   -2.4710 S   0  0  0  0  0  0  0  0  0  0  0  0
    3.6321    0.4846   -1.4237 C   0  0  0  0  0  0  0  0  0  0  0  0
    3.2886    0.5517   -0.3885 H   0  0  0  0  0  0  0  0  0  0  0  0
    4.5679   -0.0816   -1.4416 H   0  0  0  0  0  0  0  0  0  0  0  0
    3.8268    1.4949   -1.7942 H   0  0  0  0  0  0  0  0  0  0  0  0
    0.7522   -0.2568    1.3815 C   0  0  0  0  0  0  0  0  0  0  0  0
    1.9423   -0.2762    1.6668 O   0  0  0  0  0  0  0  0  0  0  0  0
   -0.1367    0.3142    2.2751 N   0  0  0  0  0  0  0  0  0  0  0  0
   -1.1192    0.2017    2.0484 H   0  0  0  0  0  0  0  0  0  0  0  0
    0.2293    0.6331    3.6495 C   0  0  0  0  0  0  0  0  0  0  0  0
    1.0564    1.3506    3.6703 H   0  0  0  0  0  0  0  0  0  0  0  0
   -0.6221    1.0756    4.1752 H   0  0  0  0  0  0  0  0  0  0  0  0
    0.5358   -0.2730    4.1830 H   0  0  0  0  0  0  0  0  0  0  0  0
  1  2  1  0  0  0  0
  2  3  1  0  0  0  0
  2  4  1  0  0  0  0
  2  5  1  0  0  0  0
  5  6  2  0  0  0  0
  5  7  1  0  0  0  0
  7  8  1  0  0  0  0
  7  9  1  0  0  0  0
  9 10  1  0  0  0  0
  9 11  1  0  0  0  0
  9 22  1  0  0  0  0
 11 12  1  0  0  0  0
 11 13  1  0  0  0  0
 11 14  1  0  0  0  0
 14 15  1  0  0  0  0
 14 16  1  0  0  0  0
 14 17  1  0  0  0  0
 17 18  1  0  0  0  0
 18 19  1  0  0  0  0
 18 20  1  0  0  0  0
 18 21  1  0  0  0  0
 22 23  2  0  0  0  0
 22 24  1  0  0  0  0
 24 25  1  0  0  0  0
 24 26  1  0  0  0  0
 26 27  1  0  0  0  0
 26 28  1  0  0  0  0
 26 29  1  0  0  0  0
M  END
$$$$

  -OEChem-04042216023D

 29 28  0     1  0  0  0  0  0999 V2000
   -2.7598   -4.0640    0.6647 H   0  0  0  0  0  0  0  0  0  0  0  0
   -2.6708   -3.1214    0.1170 C   0  0  0  0  0  0  0  0  0  0  0  0
   -3.5215   -2.4851    0.3718 H   0  0  0  0  0  0  0  0  0  0  0  0
   -2.6906   -3.3353   -0.9543 H   0  0  0  0  0  0  0  0  0  0  0  0
   -1.3732   -2.4262    0.4838 C   0  0  0  0  0  0  0  0  0  0  0  0
   -0.6345   -2.9250    1.3129 O   0  0  0  0  0  0  0  0  0  0  0  0
   -1.0513   -1.2223   -0.1131 N   0  0  0  0  0  0  0  0  0  0  0  0
   -1.6452   -0.9492   -0.8897 H   0  0  0  0  0  0  0  0  0  0  0  0
    0.2828   -0.5933   -0.0295 C   0  0  1  0  0  0  0  0  0  0  0  0
    1.0196   -1.3011   -0.4124 H   0  0  0  0  0  0  0  0  0  0  0  0
    0.2441    0.7226   -0.8566 C   0  0  0  0  0  0  0  0  0  0  0  0
   -0.7904    1.0610   -0.9742 H   0  0  0  0  0  0  0  0  0  0  0  0
    0.7483    1.4971   -0.2674 H   0  0  0  0  0  0  0  0  0  0  0  0
    0.9383    0.7416   -2.2393 C   0  0  0  0  0  0  0  0  0  0  0  0
    0.1539    0.7067   -3.0018 H   0  0  0  0  0  0  0  0  0  0  0  0
    1.4594    1.6968   -2.3621 H   0  0  0  0  0  0  0  0  0  0  0  0
    2.1099   -0.6256   -2.6256 S   0  0  0  0  0  0  0  0  0  0  0  0
    3.5611   -0.2046   -1.5795 C   0  0  0  0  0  0  0  0  0  0  0  0
    3.2802   -0.1750   -0.5237 H   0  0  0  0  0  0  0  0  0  0  0  0
    4.3455   -0.9561   -1.7080 H   0  0  0  0  0  0  0  0  0  0  0  0
    3.9626    0.7729   -1.8616 H   0  0  0  0  0  0  0  0  0  0  0  0
    0.7289   -0.2732    1.4187 C   0  0  0  0  0  0  0  0  0  0  0  0
    1.9182   -0.2888    1.7096 O   0  0  0  0  0  0  0  0  0  0  0  0
   -0.1637    0.3149    2.2969 N   0  0  0  0  0  0  0  0  0  0  0  0
   -1.1448    0.2028    2.0633 H   0  0  0  0  0  0  0  0  0  0  0  0
    0.1926    0.6516    3.6695 C   0  0  0  0  0  0  0  0  0  0  0  0
    1.0218    1.3668    3.6866 H   0  0  0  0  0  0  0  0  0  0  0  0
   -0.6616    1.1042    4.1820 H   0  0  0  0  0  0  0  0  0  0  0  0
    0.4920   -0.2477    4.2183 H   0  0  0  0  0  0  0  0  0  0  0  0
  1  2  1  0  0  0  0
  2  3  1  0  0  0  0
  2  4  1  0  0  0  0
  2  5  1  0  0  0  0
  5  6  2  0  0  0  0
  5  7  1  0  0  0  0
  7  8  1  0  0  0  0
  7  9  1  0  0  0  0
  9 10  1  0  0  0  0
  9 11  1  0  0  0  0
  9 22  1  0  0  0  0
 11 12  1  0  0  0  0
 11 13  1  0  0  0  0
 11 14  1  0  0  0  0
 14 15  1  0  0  0  0
 14 16  1  0  0  0  0
 14 17  1  0  0  0  0
 17 18  1  0  0  0  0
 18 19  1  0  0  0  0
 18 20  1  0  0  0  0
 18 21  1  0  0  0  0
 22 23  2  0  0  0  0
 22 24  1  0  0  0  0
 24 25  1  0  0  0  0
 24 26  1  0  0  0  0
 26 27  1  0  0  0  0
 26 28  1  0  0  0  0
 26 29  1  0  0  0  0
M  END
$$$$

  -OEChem-04042216023D

 29 28  0     1  0  0  0  0  0999 V2000
   -2.8111   -4.0722    0.6429 H   0  0  0  0  0  0  0  0  0  0  0  0
   -2.7251   -3.1148    0.1211 C   0  0  0  0  0  0  0  0  0  0  0  0
   -3.5818   -2.4909    0.3865 H   0  0  0  0  0  0  0  0  0  0  0  0
   -2.7368   -3.3009   -0.9555 H   0  0  0  0  0  0  0  0  0  0  0  0
   -1.4348   -2.4205    0.5144 C   0  0  0  0  0  0  0  0  0  0  0  0
   -0.7182   -2.9140    1.3662 O   0  0  0  0  0  0  0  0  0  0  0  0
   -1.0936   -1.2244   -0.0864 N   0  0  0  0  0  0  0  0  0  0  0  0
   -1.6631   -0.9632   -0.8854 H   0  0  0  0  0  0  0  0  0  0  0  0
    0.2474   -0.6133    0.0090 C   0  0  1  0  0  0  0  0  0  0  0  0
    0.9760   -1.3396   -0.3520 H   0  0  0  0  0  0  0  0  0  0  0  0
    0.2505    0.6933   -0.8334 C   0  0  0  0  0  0  0  0  0  0  0  0
   -0.7804    1.0281   -0.9851 H   0  0  0  0  0  0  0  0  0  0  0  0
    0.7357    1.4792   -0.2436 H   0  0  0  0  0  0  0  0  0  0  0  0
    0.9707    0.6863   -2.2038 C   0  0  0  0  0  0  0  0  0  0  0  0
    0.2339    0.9487   -2.9698 H   0  0  0  0  0  0  0  0  0  0  0  0
    1.7280    1.4772   -2.2084 H   0  0  0  0  0  0  0  0  0  0  0  0
    1.7746   -0.8838   -2.7337 S   0  0  0  0  0  0  0  0  0  0  0  0
    3.3686   -0.8153   -1.8182 C   0  0  0  0  0  0  0  0  0  0  0  0
    3.1951   -0.7399   -0.7405 H   0  0  0  0  0  0  0  0  0  0  0  0
    3.9516   -1.7202   -2.0131 H   0  0  0  0  0  0  0  0  0  0  0  0
    3.9524    0.0526   -2.1384 H   0  0  0  0  0  0  0  0  0  0  0  0
    0.6956   -0.2860    1.4533 C   0  0  0  0  0  0  0  0  0  0  0  0
    1.8878   -0.3049    1.7335 O   0  0  0  0  0  0  0  0  0  0  0  0
   -0.1874    0.3232    2.3265 N   0  0  0  0  0  0  0  0  0  0  0  0
   -1.1708    0.2143    2.1008 H   0  0  0  0  0  0  0  0  0  0  0  0
    0.1792    0.6822    3.6907 C   0  0  0  0  0  0  0  0  0  0  0  0
    1.0184    1.3860    3.6903 H   0  0  0  0  0  0  0  0  0  0  0  0
   -0.6666    1.1570    4.1971 H   0  0  0  0  0  0  0  0  0  0  0  0
    0.4681   -0.2100    4.2563 H   0  0  0  0  0  0  0  0  0  0  0  0
  1  2  1  0  0  0  0
  2  3  1  0  0  0  0
  2  4  1  0  0  0  0
  2  5  1  0  0  0  0
  5  6  2  0  0  0  0
  5  7  1  0  0  0  0
  7  8  1  0  0  0  0
  7  9  1  0  0  0  0
  9 10  1  0  0  0  0
  9 11  1  0  0  0  0
  9 22  1  0  0  0  0
 11 12  1  0  0  0  0
 11 13  1  0  0  0  0
 11 14  1  0  0  0  0
 14 15  1  0  0  0  0
 14 16  1  0  0  0  0
 14 17  1  0  0  0  0
 17 18  1  0  0  0  0
 18 19  1  0  0  0  0
 18 20  1  0  0  0  0
 18 21  1  0  0  0  0
 22 23  2  0  0  0  0
 22 24  1  0  0  0  0
 24 25  1  0  0  0  0
 24 26  1  0  0  0  0
 26 27  1  0  0  0  0
 26 28  1  0  0  0  0
 26 29  1  0  0  0  0
M  END
$$$$

  -OEChem-04042216023D

 29 28  0     1  0  0  0  0  0999 V2000
   -2.9174   -4.0043    0.7388 H   0  0  0  0  0  0  0  0  0  0  0  0
   -2.7947   -3.0767    0.1722 C   0  0  0  0  0  0  0  0  0  0  0  0
   -3.6417   -2.4200    0.3845 H   0  0  0  0  0  0  0  0  0  0  0  0
   -2.7841   -3.3163   -0.8937 H   0  0  0  0  0  0  0  0  0  0  0  0
   -1.4969   -2.3949    0.5632 C   0  0  0  0  0  0  0  0  0  0  0  0
   -0.7892   -2.8900    1.4216 O   0  0  0  0  0  0  0  0  0  0  0  0
   -1.1369   -1.2100   -0.0487 N   0  0  0  0  0  0  0  0  0  0  0  0
   -1.6951   -0.9544   -0.8576 H   0  0  0  0  0  0  0  0  0  0  0  0
    0.2133   -0.6196    0.0449 C   0  0  1  0  0  0  0  0  0  0  0  0
    0.9357   -1.3585   -0.3040 H   0  0  0  0  0  0  0  0  0  0  0  0
    0.2523    0.6751   -0.8123 C   0  0  0  0  0  0  0  0  0  0  0  0
   -0.7749    1.0043   -0.9983 H   0  0  0  0  0  0  0  0  0  0  0  0
    0.7261    1.4764   -0.2339 H   0  0  0  0  0  0  0  0  0  0  0  0
    0.9882    0.6116   -2.1705 C   0  0  0  0  0  0  0  0  0  0  0  0
    0.3872    1.1443   -2.9141 H   0  0  0  0  0  0  0  0  0  0  0  0
    1.9350    1.1540   -2.0782 H   0  0  0  0  0  0  0  0  0  0  0  0
    1.3616   -1.0696   -2.8256 S   0  0  0  0  0  0  0  0  0  0  0  0
    3.0638   -1.3503   -2.1877 C   0  0  0  0  0  0  0  0  0  0  0  0
    3.0910   -1.2479   -1.0984 H   0  0  0  0  0  0  0  0  0  0  0  0
    3.4022   -2.3567   -2.4513 H   0  0  0  0  0  0  0  0  0  0  0  0
    3.7560   -0.6239   -2.6233 H   0  0  0  0  0  0  0  0  0  0  0  0
    0.6649   -0.2847    1.4856 C   0  0  0  0  0  0  0  0  0  0  0  0
    1.8565   -0.3243    1.7660 O   0  0  0  0  0  0  0  0  0  0  0  0
   -0.2073    0.3476    2.3533 N   0  0  0  0  0  0  0  0  0  0  0  0
   -1.1923    0.2531    2.1280 H   0  0  0  0  0  0  0  0  0  0  0  0
    0.1646    0.6982    3.7183 C   0  0  0  0  0  0  0  0  0  0  0  0
    1.0170    1.3857    3.7198 H   0  0  0  0  0  0  0  0  0  0  0  0
   -0.6724    1.1878    4.2250 H   0  0  0  0  0  0  0  0  0  0  0  0
    0.4360   -0.2003    4.2826 H   0  0  0  0  0  0  0  0  0  0  0  0
  1  2  1  0  0  0  0
  2  3  1  0  0  0  0
  2  4  1  0  0  0  0
  2  5  1  0  0  0  0
  5  6  2  0  0  0  0
  5  7  1  0  0  0  0
  7  8  1  0  0  0  0
  7  9  1  0  0  0  0
  9 10  1  0  0  0  0
  9 11  1  0  0  0  0
  9 22  1  0  0  0  0
 11 12  1  0  0  0  0
 11 13  1  0  0  0  0
 11 14  1  0  0  0  0
 14 15  1  0  0  0  0
 14 16  1  0  0  0  0
 14 17  1  0  0  0  0
 17 18  1  0  0  0  0
 18 19  1  0  0  0  0
 18 20  1  0  0  0  0
 18 21  1  0  0  0  0
 22 23  2  0  0  0  0
 22 24  1  0  0  0  0
 24 25  1  0  0  0  0
 24 26  1  0  0  0  0
 26 27  1  0  0  0  0
 26 28  1  0  0  0  0
 26 29  1  0  0  0  0
M  END
$$$$

  -OEChem-04042216023D

 29 28  0     1  0  0  0  0  0999 V2000
   -2.6466   -3.8454   -0.1793 H   0  0  0  0  0  0  0  0  0  0  0  0
   -2.8650   -2.7847   -0.3332 C   0  0  0  0  0  0  0  0  0  0  0  0
   -3.8220   -2.5494    0.1383 H   0  0  0  0  0  0  0  0  0  0  0  0
   -2.9362   -2.5949   -1.4068 H   0  0  0  0  0  0  0  0  0  0  0  0
   -1.7635   -1.9346    0.2709 C   0  0  0  0  0  0  0  0  0  0  0  0
   -0.9082   -2.4565    0.9618 O   0  0  0  0  0  0  0  0  0  0  0  0
   -1.8650   -0.5589    0.2462 N   0  0  0  0  0  0  0  0  0  0  0  0
   -2.7081   -0.2329   -0.2151 H   0  0  0  0  0  0  0  0  0  0  0  0
   -0.7024    0.3474    0.1197 C   0  0  1  0  0  0  0  0  0  0  0  0
   -1.1357    1.3270    0.3433 H   0  0  0  0  0  0  0  0  0  0  0  0
   -0.2535    0.4842   -1.3659 C   0  0  0  0  0  0  0  0  0  0  0  0
   -1.0860    0.1590   -1.9969 H   0  0  0  0  0  0  0  0  0  0  0  0
   -0.1071    1.5504   -1.5670 H   0  0  0  0  0  0  0  0  0  0  0  0
    1.0139   -0.2338   -1.8796 C   0  0  0  0  0  0  0  0  0  0  0  0
    0.9248   -0.4011   -2.9572 H   0  0  0  0  0  0  0  0  0  0  0  0
    1.8605    0.4437   -1.7239 H   0  0  0  0  0  0  0  0  0  0  0  0
    1.4397   -1.8179   -1.0537 S   0  0  0  0  0  0  0  0  0  0  0  0
    3.1661   -2.0740   -1.6175 C   0  0  0  0  0  0  0  0  0  0  0  0
    3.2055   -2.1290   -2.7091 H   0  0  0  0  0  0  0  0  0  0  0  0
    3.5603   -3.0067   -1.2033 H   0  0  0  0  0  0  0  0  0  0  0  0
    3.7984   -1.2468   -1.2807 H   0  0  0  0  0  0  0  0  0  0  0  0
    0.3977    0.2749    1.2105 C   0  0  0  0  0  0  0  0  0  0  0  0
    1.5229    0.7077    0.9828 O   0  0  0  0  0  0  0  0  0  0  0  0
   -0.0050    0.2160    2.5319 N   0  0  0  0  0  0  0  0  0  0  0  0
   -0.8723   -0.2959    2.6727 H   0  0  0  0  0  0  0  0  0  0  0  0
    0.9460    0.2508    3.6364 C   0  0  0  0  0  0  0  0  0  0  0  0
    1.4917    1.2001    3.6447 H   0  0  0  0  0  0  0  0  0  0  0  0
    0.4197    0.1489    4.5902 H   0  0  0  0  0  0  0  0  0  0  0  0
    1.6663   -0.5694    3.5467 H   0  0  0  0  0  0  0  0  0  0  0  0
  1  2  1  0  0  0  0
  2  3  1  0  0  0  0
  2  4  1  0  0  0  0
  2  5  1  0  0  0  0
  5  6  2  0  0  0  0
  5  7  1  0  0  0  0
  7  8  1  0  0  0  0
  7  9  1  0  0  0  0
  9 10  1  0  0  0  0
  9 11  1  0  0  0  0
  9 22  1  0  0  0  0
 11 12  1  0  0  0  0
 11 13  1  0  0  0  0
 11 14  1  0  0  0  0
 14 15  1  0  0  0  0
 14 16  1  0  0  0  0
 14 17  1  0  0  0  0
 17 18  1  0  0  0  0
 18 19  1  0  0  0  0
 18 20  1  0  0  0  0
 18 21  1  0  0  0  0
 22 23  2  0  0  0  0
 22 24  1  0  0  0  0
 24 25  1  0  0  0  0
 24 26  1  0  0  0  0
 26 27  1  0  0  0  0
 26 28  1  0  0  0  0
 26 29  1  0  0  0  0
M  END
$$$$

  -OEChem-04042216023D

 29 28  0     1  0  0  0  0  0999 V2000
   -2.9649   -3.6038   -0.2865 H   0  0  0  0  0  0  0  0  0  0  0  0
   -3.1032   -2.5208   -0.3518 C   0  0  0  0  0  0  0  0  0  0  0  0
   -4.0079   -2.2466    0.1958 H   0  0  0  0  0  0  0  0  0  0  0  0
   -3.2209   -2.2462   -1.4028 H   0  0  0  0  0  0  0  0  0  0  0  0
   -1.9008   -1.8079    0.2361 C   0  0  0  0  0  0  0  0  0  0  0  0
   -1.0493   -2.4436    0.8316 O   0  0  0  0  0  0  0  0  0  0  0  0
   -1.8932   -0.4313    0.3278 N   0  0  0  0  0  0  0  0  0  0  0  0
   -2.7462   -0.0140   -0.0306 H   0  0  0  0  0  0  0  0  0  0  0  0
   -0.6815    0.3940    0.1258 C   0  0  1  0  0  0  0  0  0  0  0  0
   -0.9960    1.3840    0.4695 H   0  0  0  0  0  0  0  0  0  0  0  0
   -0.3821    0.6135   -1.3889 C   0  0  0  0  0  0  0  0  0  0  0  0
   -1.2971    0.4028   -1.9506 H   0  0  0  0  0  0  0  0  0  0  0  0
   -0.1639    1.6773   -1.5286 H   0  0  0  0  0  0  0  0  0  0  0  0
    0.7654   -0.1584   -2.0690 C   0  0  0  0  0  0  0  0  0  0  0  0
    0.6853   -0.0443   -3.1541 H   0  0  0  0  0  0  0  0  0  0  0  0
    1.7151    0.2960   -1.7700 H   0  0  0  0  0  0  0  0  0  0  0  0
    0.8225   -1.9459   -1.6603 S   0  0  0  0  0  0  0  0  0  0  0  0
    2.6267   -2.2307   -1.4840 C   0  0  0  0  0  0  0  0  0  0  0  0
    2.8187   -3.2806   -1.2445 H   0  0  0  0  0  0  0  0  0  0  0  0
    3.1450   -1.9807   -2.4139 H   0  0  0  0  0  0  0  0  0  0  0  0
    3.0287   -1.6101   -0.6771 H   0  0  0  0  0  0  0  0  0  0  0  0
    0.5124    0.1223    1.0797 C   0  0  0  0  0  0  0  0  0  0  0  0
    1.6590    0.4113    0.7550 O   0  0  0  0  0  0  0  0  0  0  0  0
    0.2460   -0.0253    2.4281 N   0  0  0  0  0  0  0  0  0  0  0  0
   -0.6597   -0.4455    2.6220 H   0  0  0  0  0  0  0  0  0  0  0  0
    1.3027   -0.2125    3.4146 C   0  0  0  0  0  0  0  0  0  0  0  0
    1.9669    0.6578    3.4360 H   0  0  0  0  0  0  0  0  0  0  0  0
    0.8696   -0.3387    4.4114 H   0  0  0  0  0  0  0  0  0  0  0  0
    1.8950   -1.1026    3.1771 H   0  0  0  0  0  0  0  0  0  0  0  0
  1  2  1  0  0  0  0
  2  3  1  0  0  0  0
  2  4  1  0  0  0  0
  2  5  1  0  0  0  0
  5  6  2  0  0  0  0
  5  7  1  0  0  0  0
  7  8  1  0  0  0  0
  7  9  1  0  0  0  0
  9 10  1  0  0  0  0
  9 11  1  0  0  0  0
  9 22  1  0  0  0  0
 11 12  1  0  0  0  0
 11 13  1  0  0  0  0
 11 14  1  0  0  0  0
 14 15  1  0  0  0  0
 14 16  1  0  0  0  0
 14 17  1  0  0  0  0
 17 18  1  0  0  0  0
 18 19  1  0  0  0  0
 18 20  1  0  0  0  0
 18 21  1  0  0  0  0
 22 23  2  0  0  0  0
 22 24  1  0  0  0  0
 24 25  1  0  0  0  0
 24 26  1  0  0  0  0
 26 27  1  0  0  0  0
 26 28  1  0  0  0  0
 26 29  1  0  0  0  0
M  END
$$$$

  -OEChem-04042216023D

 29 28  0     1  0  0  0  0  0999 V2000
   -3.2522   -3.7745    1.2131 H   0  0  0  0  0  0  0  0  0  0  0  0
   -3.0024   -2.9640    0.5225 C   0  0  0  0  0  0  0  0  0  0  0  0
   -3.8082   -2.2262    0.5398 H   0  0  0  0  0  0  0  0  0  0  0  0
   -2.9149   -3.3762   -0.4859 H   0  0  0  0  0  0  0  0  0  0  0  0
   -1.6934   -2.3149    0.9306 C   0  0  0  0  0  0  0  0  0  0  0  0
   -1.0816   -2.7396    1.8942 O   0  0  0  0  0  0  0  0  0  0  0  0
   -1.2127   -1.2419    0.2070 N   0  0  0  0  0  0  0  0  0  0  0  0
   -1.6908   -1.0726   -0.6739 H   0  0  0  0  0  0  0  0  0  0  0  0
    0.1760   -0.7513    0.2998 C   0  0  1  0  0  0  0  0  0  0  0  0
    0.8530   -1.5727    0.0381 H   0  0  0  0  0  0  0  0  0  0  0  0
    0.3513    0.4135   -0.7030 C   0  0  0  0  0  0  0  0  0  0  0  0
   -0.6231    0.8103   -1.0056 H   0  0  0  0  0  0  0  0  0  0  0  0
    0.8957    1.2361   -0.2260 H   0  0  0  0  0  0  0  0  0  0  0  0
    1.1430   -0.0098   -1.9435 C   0  0  0  0  0  0  0  0  0  0  0  0
    1.2584    0.8463   -2.6160 H   0  0  0  0  0  0  0  0  0  0  0  0
    2.1442   -0.3392   -1.6450 H   0  0  0  0  0  0  0  0  0  0  0  0
    0.2802   -1.3746   -2.8262 S   0  0  0  0  0  0  0  0  0  0  0  0
    1.4833   -1.7502   -4.1612 C   0  0  0  0  0  0  0  0  0  0  0  0
    2.4380   -2.0704   -3.7329 H   0  0  0  0  0  0  0  0  0  0  0  0
    1.0994   -2.5524   -4.7983 H   0  0  0  0  0  0  0  0  0  0  0  0
    1.6538   -0.8637   -4.7791 H   0  0  0  0  0  0  0  0  0  0  0  0
    0.6031   -0.2843    1.7106 C   0  0  0  0  0  0  0  0  0  0  0  0
    1.7760   -0.3854    2.0476 O   0  0  0  0  0  0  0  0  0  0  0  0
   -0.2437    0.5132    2.4590 N   0  0  0  0  0  0  0  0  0  0  0  0
   -1.2241    0.4736    2.1992 H   0  0  0  0  0  0  0  0  0  0  0  0
    0.1061    0.9935    3.7897 C   0  0  0  0  0  0  0  0  0  0  0  0
    1.0097    1.6110    3.7501 H   0  0  0  0  0  0  0  0  0  0  0  0
   -0.7073    1.6002    4.1989 H   0  0  0  0  0  0  0  0  0  0  0  0
    0.2853    0.1501    4.4652 H   0  0  0  0  0  0  0  0  0  0  0  0
  1  2  1  0  0  0  0
  2  3  1  0  0  0  0
  2  4  1  0  0  0  0
  2  5  1  0  0  0  0
  5  6  2  0  0  0  0
  5  7  1  0  0  0  0
  7  8  1  0  0  0  0
  7  9  1  0  0  0  0
  9 10  1  0  0  0  0
  9 11  1  0  0  0  0
  9 22  1  0  0  0  0
 11 12  1  0  0  0  0
 11 13  1  0  0  0  0
 11 14  1  0  0  0  0
 14 15  1  0  0  0  0
 14 16  1  0  0  0  0
 14 17  1  0  0  0  0
 17 18  1  0  0  0  0
 18 19  1  0  0  0  0
 18 20  1  0  0  0  0
 18 21  1  0  0  0  0
 22 23  2  0  0  0  0
 22 24  1  0  0  0  0
 24 25  1  0  0  0  0
 24 26  1  0  0  0  0
 26 27  1  0  0  0  0
 26 28  1  0  0  0  0
 26 29  1  0  0  0  0
M  END
$$$$

  -OEChem-04042216023D

 29 28  0     1  0  0  0  0  0999 V2000
   -2.9741   -3.9030    0.9143 H   0  0  0  0  0  0  0  0  0  0  0  0
   -2.8522   -2.9960    0.3153 C   0  0  0  0  0  0  0  0  0  0  0  0
   -3.6670   -2.3071    0.5509 H   0  0  0  0  0  0  0  0  0  0  0  0
   -2.9041   -3.2635   -0.7429 H   0  0  0  0  0  0  0  0  0  0  0  0
   -1.5165   -2.3449    0.6199 C   0  0  0  0  0  0  0  0  0  0  0  0
   -0.7416   -2.8814    1.3909 O   0  0  0  0  0  0  0  0  0  0  0  0
   -1.1875   -1.1489    0.0145 N   0  0  0  0  0  0  0  0  0  0  0  0
   -1.8016   -0.8580   -0.7422 H   0  0  0  0  0  0  0  0  0  0  0  0
    0.1648   -0.5605    0.0354 C   0  0  1  0  0  0  0  0  0  0  0  0
    0.8613   -1.2830   -0.4033 H   0  0  0  0  0  0  0  0  0  0  0  0
    0.1375    0.7288   -0.8155 C   0  0  0  0  0  0  0  0  0  0  0  0
   -0.8857    1.0920   -0.9567 H   0  0  0  0  0  0  0  0  0  0  0  0
    0.6863    1.5201   -0.2930 H   0  0  0  0  0  0  0  0  0  0  0  0
    0.8168    0.5153   -2.1694 C   0  0  0  0  0  0  0  0  0  0  0  0
    0.9999    1.4869   -2.6393 H   0  0  0  0  0  0  0  0  0  0  0  0
    1.7867    0.0216   -2.0452 H   0  0  0  0  0  0  0  0  0  0  0  0
   -0.2944   -0.4672   -3.2576 S   0  0  0  0  0  0  0  0  0  0  0  0
    0.6899   -1.9968   -3.5129 C   0  0  0  0  0  0  0  0  0  0  0  0
    0.8709   -2.4978   -2.5571 H   0  0  0  0  0  0  0  0  0  0  0  0
    0.1512   -2.6849   -4.1712 H   0  0  0  0  0  0  0  0  0  0  0  0
    1.6534   -1.7562   -3.9724 H   0  0  0  0  0  0  0  0  0  0  0  0
    0.7134   -0.2522    1.4470 C   0  0  0  0  0  0  0  0  0  0  0  0
    1.9197   -0.3116    1.6481 O   0  0  0  0  0  0  0  0  0  0  0  0
   -0.0960    0.3641    2.3838 N   0  0  0  0  0  0  0  0  0  0  0  0
   -1.0947    0.2959    2.2158 H   0  0  0  0  0  0  0  0  0  0  0  0
    0.3671    0.6922    3.7262 C   0  0  0  0  0  0  0  0  0  0  0  0
    1.2135    1.3857    3.6815 H   0  0  0  0  0  0  0  0  0  0  0  0
   -0.4358    1.1665    4.2985 H   0  0  0  0  0  0  0  0  0  0  0  0
    0.6824   -0.2145    4.2533 H   0  0  0  0  0  0  0  0  0  0  0  0
  1  2  1  0  0  0  0
  2  3  1  0  0  0  0
  2  4  1  0  0  0  0
  2  5  1  0  0  0  0
  5  6  2  0  0  0  0
  5  7  1  0  0  0  0
  7  8  1  0  0  0  0
  7  9  1  0  0  0  0
  9 10  1  0  0  0  0
  9 11  1  0  0  0  0
  9 22  1  0  0  0  0
 11 12  1  0  0  0  0
 11 13  1  0  0  0  0
 11 14  1  0  0  0  0
 14 15  1  0  0  0  0
 14 16  1  0  0  0  0
 14 17  1  0  0  0  0
 17 18  1  0  0  0  0
 18 19  1  0  0  0  0
 18 20  1  0  0  0  0
 18 21  1  0  0  0  0
 22 23  2  0  0  0  0
 22 24  1  0  0  0  0
 24 25  1  0  0  0  0
 24 26  1  0  0  0  0
 26 27  1  0  0  0  0
 26 28  1  0  0  0  0
 26 29  1  0  0  0  0
M  END
$$$$

  -OEChem-04042216023D

 29 28  0     1  0  0  0  0  0999 V2000
   -2.8495   -3.9785    0.7447 H   0  0  0  0  0  0  0  0  0  0  0  0
   -2.7852   -3.0082    0.2439 C   0  0  0  0  0  0  0  0  0  0  0  0
   -3.5857   -2.3656    0.6184 H   0  0  0  0  0  0  0  0  0  0  0  0
   -2.9191   -3.1584   -0.8302 H   0  0  0  0  0  0  0  0  0  0  0  0
   -1.4358   -2.3700    0.5150 C   0  0  0  0  0  0  0  0  0  0  0  0
   -0.6245   -2.9398    1.2213 O   0  0  0  0  0  0  0  0  0  0  0  0
   -1.1293   -1.1517   -0.0567 N   0  0  0  0  0  0  0  0  0  0  0  0
   -1.7890   -0.8023   -0.7470 H   0  0  0  0  0  0  0  0  0  0  0  0
    0.2096   -0.5331   -0.0256 C   0  0  1  0  0  0  0  0  0  0  0  0
    0.9216   -1.2272   -0.4849 H   0  0  0  0  0  0  0  0  0  0  0  0
    0.1383    0.7749   -0.8436 C   0  0  0  0  0  0  0  0  0  0  0  0
   -0.8927    1.1264   -0.9541 H   0  0  0  0  0  0  0  0  0  0  0  0
    0.6792    1.5586   -0.3012 H   0  0  0  0  0  0  0  0  0  0  0  0
    0.8096    0.6315   -2.2135 C   0  0  0  0  0  0  0  0  0  0  0  0
    1.1711    1.6151   -2.5305 H   0  0  0  0  0  0  0  0  0  0  0  0
    1.6771   -0.0356   -2.1772 H   0  0  0  0  0  0  0  0  0  0  0  0
   -0.4307    0.0575   -3.4434 S   0  0  0  0  0  0  0  0  0  0  0  0
   -0.0570   -1.7385   -3.5469 C   0  0  0  0  0  0  0  0  0  0  0  0
   -0.1812   -2.2148   -2.5703 H   0  0  0  0  0  0  0  0  0  0  0  0
   -0.7321   -2.2214   -4.2597 H   0  0  0  0  0  0  0  0  0  0  0  0
    0.9728   -1.8924   -3.8834 H   0  0  0  0  0  0  0  0  0  0  0  0
    0.7546   -0.2515    1.3935 C   0  0  0  0  0  0  0  0  0  0  0  0
    1.9614   -0.2943    1.5935 O   0  0  0  0  0  0  0  0  0  0  0  0
   -0.0662    0.3201    2.3489 N   0  0  0  0  0  0  0  0  0  0  0  0
   -1.0637    0.2533    2.1749 H   0  0  0  0  0  0  0  0  0  0  0  0
    0.3909    0.6265    3.6985 C   0  0  0  0  0  0  0  0  0  0  0  0
    1.2218    1.3394    3.6701 H   0  0  0  0  0  0  0  0  0  0  0  0
   -0.4218    1.0692    4.2821 H   0  0  0  0  0  0  0  0  0  0  0  0
    0.7259   -0.2852    4.2045 H   0  0  0  0  0  0  0  0  0  0  0  0
  1  2  1  0  0  0  0
  2  3  1  0  0  0  0
  2  4  1  0  0  0  0
  2  5  1  0  0  0  0
  5  6  2  0  0  0  0
  5  7  1  0  0  0  0
  7  8  1  0  0  0  0
  7  9  1  0  0  0  0
  9 10  1  0  0  0  0
  9 11  1  0  0  0  0
  9 22  1  0  0  0  0
 11 12  1  0  0  0  0
 11 13  1  0  0  0  0
 11 14  1  0  0  0  0
 14 15  1  0  0  0  0
 14 16  1  0  0  0  0
 14 17  1  0  0  0  0
 17 18  1  0  0  0  0
 18 19  1  0  0  0  0
 18 20  1  0  0  0  0
 18 21  1  0  0  0  0
 22 23  2  0  0  0  0
 22 24  1  0  0  0  0
 24 25  1  0  0  0  0
 24 26  1  0  0  0  0
 26 27  1  0  0  0  0
 26 28  1  0  0  0  0
 26 29  1  0  0  0  0
M  END
$$$$

  -OEChem-04042216023D

 29 28  0     1  0  0  0  0  0999 V2000
   -2.8335   -3.9764    0.7788 H   0  0  0  0  0  0  0  0  0  0  0  0
   -2.7675   -3.0151    0.2610 C   0  0  0  0  0  0  0  0  0  0  0  0
   -3.5504   -2.3558    0.6431 H   0  0  0  0  0  0  0  0  0  0  0  0
   -2.9272   -3.1798   -0.8074 H   0  0  0  0  0  0  0  0  0  0  0  0
   -1.4043   -2.3909    0.4918 C   0  0  0  0  0  0  0  0  0  0  0  0
   -0.5739   -2.9748    1.1634 O   0  0  0  0  0  0  0  0  0  0  0  0
   -1.1094   -1.1652   -0.0707 N   0  0  0  0  0  0  0  0  0  0  0  0
   -1.8011   -0.7803   -0.7083 H   0  0  0  0  0  0  0  0  0  0  0  0
    0.2234   -0.5337   -0.0402 C   0  0  1  0  0  0  0  0  0  0  0  0
    0.9408   -1.2184   -0.5050 H   0  0  0  0  0  0  0  0  0  0  0  0
    0.1356    0.7825   -0.8449 C   0  0  0  0  0  0  0  0  0  0  0  0
   -0.8997    1.1268   -0.9368 H   0  0  0  0  0  0  0  0  0  0  0  0
    0.6713    1.5639   -0.2942 H   0  0  0  0  0  0  0  0  0  0  0  0
    0.7988    0.6764   -2.2257 C   0  0  0  0  0  0  0  0  0  0  0  0
    1.3740    1.5902   -2.4076 H   0  0  0  0  0  0  0  0  0  0  0  0
    1.5007   -0.1610   -2.2893 H   0  0  0  0  0  0  0  0  0  0  0  0
   -0.4956    0.5537   -3.5247 S   0  0  0  0  0  0  0  0  0  0  0  0
   -0.5722   -1.2618   -3.7937 C   0  0  0  0  0  0  0  0  0  0  0  0
   -0.8158   -1.7781   -2.8612 H   0  0  0  0  0  0  0  0  0  0  0  0
   -1.3393   -1.4985   -4.5368 H   0  0  0  0  0  0  0  0  0  0  0  0
    0.3916   -1.6308   -4.1574 H   0  0  0  0  0  0  0  0  0  0  0  0
    0.7665   -0.2605    1.3812 C   0  0  0  0  0  0  0  0  0  0  0  0
    1.9731   -0.2974    1.5825 O   0  0  0  0  0  0  0  0  0  0  0  0
   -0.0601    0.2938    2.3418 N   0  0  0  0  0  0  0  0  0  0  0  0
   -1.0570    0.2244    2.1657 H   0  0  0  0  0  0  0  0  0  0  0  0
    0.3946    0.6004    3.6920 C   0  0  0  0  0  0  0  0  0  0  0  0
    1.2091    1.3320    3.6661 H   0  0  0  0  0  0  0  0  0  0  0  0
   -0.4259    1.0204    4.2813 H   0  0  0  0  0  0  0  0  0  0  0  0
    0.7519   -0.3071    4.1901 H   0  0  0  0  0  0  0  0  0  0  0  0
  1  2  1  0  0  0  0
  2  3  1  0  0  0  0
  2  4  1  0  0  0  0
  2  5  1  0  0  0  0
  5  6  2  0  0  0  0
  5  7  1  0  0  0  0
  7  8  1  0  0  0  0
  7  9  1  0  0  0  0
  9 10  1  0  0  0  0
  9 11  1  0  0  0  0
  9 22  1  0  0  0  0
 11 12  1  0  0  0  0
 11 13  1  0  0  0  0
 11 14  1  0  0  0  0
 14 15  1  0  0  0  0
 14 16  1  0  0  0  0
 14 17  1  0  0  0  0
 17 18  1  0  0  0  0
 18 19  1  0  0  0  0
 18 20  1  0  0  0  0
 18 21  1  0  0  0  0
 22 23  2  0  0  0  0
 22 24  1  0  0  0  0
 24 25  1  0  0  0  0
 24 26  1  0  0  0  0
 26 27  1  0  0  0  0
 26 28  1  0  0  0  0
 26 29  1  0  0  0  0
M  END
$$$$

  -OEChem-04042216023D

 29 28  0     1  0  0  0  0  0999 V2000
   -2.7781   -3.9981    0.7631 H   0  0  0  0  0  0  0  0  0  0  0  0
   -2.7166   -3.0449    0.2301 C   0  0  0  0  0  0  0  0  0  0  0  0
   -3.4979   -2.3810    0.6075 H   0  0  0  0  0  0  0  0  0  0  0  0
   -2.8833   -3.2266   -0.8343 H   0  0  0  0  0  0  0  0  0  0  0  0
   -1.3520   -2.4171    0.4418 C   0  0  0  0  0  0  0  0  0  0  0  0
   -0.5080   -3.0038    1.0933 O   0  0  0  0  0  0  0  0  0  0  0  0
   -1.0719   -1.1830   -0.1105 N   0  0  0  0  0  0  0  0  0  0  0  0
   -1.7861   -0.7757   -0.7070 H   0  0  0  0  0  0  0  0  0  0  0  0
    0.2503   -0.5295   -0.0637 C   0  0  1  0  0  0  0  0  0  0  0  0
    0.9839   -1.2021   -0.5206 H   0  0  0  0  0  0  0  0  0  0  0  0
    0.1633    0.7925   -0.8609 C   0  0  0  0  0  0  0  0  0  0  0  0
   -0.8793    1.1078   -0.9697 H   0  0  0  0  0  0  0  0  0  0  0  0
    0.6655    1.5866   -0.2967 H   0  0  0  0  0  0  0  0  0  0  0  0
    0.8473    0.7105   -2.2358 C   0  0  0  0  0  0  0  0  0  0  0  0
    1.6355    1.4693   -2.2844 H   0  0  0  0  0  0  0  0  0  0  0  0
    1.3244   -0.2598   -2.4032 H   0  0  0  0  0  0  0  0  0  0  0  0
   -0.3718    1.0414   -3.5711 S   0  0  0  0  0  0  0  0  0  0  0  0
   -1.0393   -0.6387   -3.8930 C   0  0  0  0  0  0  0  0  0  0  0  0
   -1.4932   -1.0502   -2.9880 H   0  0  0  0  0  0  0  0  0  0  0  0
   -1.7998   -0.5954   -4.6783 H   0  0  0  0  0  0  0  0  0  0  0  0
   -0.2374   -1.3074   -4.2202 H   0  0  0  0  0  0  0  0  0  0  0  0
    0.7744   -0.2563    1.3651 C   0  0  0  0  0  0  0  0  0  0  0  0
    1.9790   -0.2786    1.5798 O   0  0  0  0  0  0  0  0  0  0  0  0
   -0.0688    0.2781    2.3228 N   0  0  0  0  0  0  0  0  0  0  0  0
   -1.0631    0.2103    2.1334 H   0  0  0  0  0  0  0  0  0  0  0  0
    0.3701    0.5834    3.6789 C   0  0  0  0  0  0  0  0  0  0  0  0
    1.1668    1.3346    3.6643 H   0  0  0  0  0  0  0  0  0  0  0  0
   -0.4639    0.9777    4.2672 H   0  0  0  0  0  0  0  0  0  0  0  0
    0.7465   -0.3197    4.1711 H   0  0  0  0  0  0  0  0  0  0  0  0
  1  2  1  0  0  0  0
  2  3  1  0  0  0  0
  2  4  1  0  0  0  0
  2  5  1  0  0  0  0
  5  6  2  0  0  0  0
  5  7  1  0  0  0  0
  7  8  1  0  0  0  0
  7  9  1  0  0  0  0
  9 10  1  0  0  0  0
  9 11  1  0  0  0  0
  9 22  1  0  0  0  0
 11 12  1  0  0  0  0
 11 13  1  0  0  0  0
 11 14  1  0  0  0  0
 14 15  1  0  0  0  0
 14 16  1  0  0  0  0
 14 17  1  0  0  0  0
 17 18  1  0  0  0  0
 18 19  1  0  0  0  0
 18 20  1  0  0  0  0
 18 21  1  0  0  0  0
 22 23  2  0  0  0  0
 22 24  1  0  0  0  0
 24 25  1  0  0  0  0
 24 26  1  0  0  0  0
 26 27  1  0  0  0  0
 26 28  1  0  0  0  0
 26 29  1  0  0  0  0
M  END
$$$$

  -OEChem-04042216023D

 29 28  0     1  0  0  0  0  0999 V2000
   -2.7007   -4.0599    0.6668 H   0  0  0  0  0  0  0  0  0  0  0  0
   -2.6614   -3.0827    0.1769 C   0  0  0  0  0  0  0  0  0  0  0  0
   -3.4500   -2.4500    0.5910 H   0  0  0  0  0  0  0  0  0  0  0  0
   -2.8358   -3.2197   -0.8930 H   0  0  0  0  0  0  0  0  0  0  0  0
   -1.3059   -2.4403    0.4041 C   0  0  0  0  0  0  0  0  0  0  0  0
   -0.4646   -3.0155    1.0693 O   0  0  0  0  0  0  0  0  0  0  0  0
   -1.0309   -1.2057   -0.1502 N   0  0  0  0  0  0  0  0  0  0  0  0
   -1.7431   -0.8066   -0.7535 H   0  0  0  0  0  0  0  0  0  0  0  0
    0.2837   -0.5377   -0.0842 C   0  0  1  0  0  0  0  0  0  0  0  0
    1.0336   -1.2036   -0.5248 H   0  0  0  0  0  0  0  0  0  0  0  0
    0.2073    0.7820   -0.8855 C   0  0  0  0  0  0  0  0  0  0  0  0
   -0.8385    1.0720   -1.0265 H   0  0  0  0  0  0  0  0  0  0  0  0
    0.6780    1.5940   -0.3194 H   0  0  0  0  0  0  0  0  0  0  0  0
    0.9224    0.6855   -2.2425 C   0  0  0  0  0  0  0  0  0  0  0  0
    1.8832    1.2079   -2.1847 H   0  0  0  0  0  0  0  0  0  0  0  0
    1.1304   -0.3550   -2.5103 H   0  0  0  0  0  0  0  0  0  0  0  0
   -0.1119    1.4285   -3.5685 S   0  0  0  0  0  0  0  0  0  0  0  0
   -1.3579    0.1150   -3.8773 C   0  0  0  0  0  0  0  0  0  0  0  0
   -1.9653   -0.0542   -2.9844 H   0  0  0  0  0  0  0  0  0  0  0  0
   -2.0181    0.4124   -4.6976 H   0  0  0  0  0  0  0  0  0  0  0  0
   -0.8612   -0.8209   -4.1502 H   0  0  0  0  0  0  0  0  0  0  0  0
    0.7790   -0.2526    1.3522 C   0  0  0  0  0  0  0  0  0  0  0  0
    1.9797   -0.2557    1.5884 O   0  0  0  0  0  0  0  0  0  0  0  0
   -0.0892    0.2770    2.2899 N   0  0  0  0  0  0  0  0  0  0  0  0
   -1.0786    0.1918    2.0831 H   0  0  0  0  0  0  0  0  0  0  0  0
    0.3187    0.5994    3.6513 C   0  0  0  0  0  0  0  0  0  0  0  0
    1.1271    1.3381    3.6455 H   0  0  0  0  0  0  0  0  0  0  0  0
   -0.5243    1.0174    4.2096 H   0  0  0  0  0  0  0  0  0  0  0  0
    0.6675   -0.3004    4.1689 H   0  0  0  0  0  0  0  0  0  0  0  0
  1  2  1  0  0  0  0
  2  3  1  0  0  0  0
  2  4  1  0  0  0  0
  2  5  1  0  0  0  0
  5  6  2  0  0  0  0
  5  7  1  0  0  0  0
  7  8  1  0  0  0  0
  7  9  1  0  0  0  0
  9 10  1  0  0  0  0
  9 11  1  0  0  0  0
  9 22  1  0  0  0  0
 11 12  1  0  0  0  0
 11 13  1  0  0  0  0
 11 14  1  0  0  0  0
 14 15  1  0  0  0  0
 14 16  1  0  0  0  0
 14 17  1  0  0  0  0
 17 18  1  0  0  0  0
 18 19  1  0  0  0  0
 18 20  1  0  0  0  0
 18 21  1  0  0  0  0
 22 23  2  0  0  0  0
 22 24  1  0  0  0  0
 24 25  1  0  0  0  0
 24 26  1  0  0  0  0
 26 27  1  0  0  0  0
 26 28  1  0  0  0  0
 26 29  1  0  0  0  0
M  END
$$$$

  -OEChem-04042216023D

 29 28  0     1  0  0  0  0  0999 V2000
   -2.6906   -4.0665    0.6620 H   0  0  0  0  0  0  0  0  0  0  0  0
   -2.6558   -3.0884    0.1735 C   0  0  0  0  0  0  0  0  0  0  0  0
   -3.4480   -2.4604    0.5881 H   0  0  0  0  0  0  0  0  0  0  0  0
   -2.8285   -3.2245   -0.8968 H   0  0  0  0  0  0  0  0  0  0  0  0
   -1.3039   -2.4398    0.4031 C   0  0  0  0  0  0  0  0  0  0  0  0
   -0.4598   -3.0126    1.0670 O   0  0  0  0  0  0  0  0  0  0  0  0
   -1.0372   -1.2006   -0.1447 N   0  0  0  0  0  0  0  0  0  0  0  0
   -1.7487   -0.8094   -0.7539 H   0  0  0  0  0  0  0  0  0  0  0  0
    0.2757   -0.5287   -0.0826 C   0  0  1  0  0  0  0  0  0  0  0  0
    1.0249   -1.1876   -0.5362 H   0  0  0  0  0  0  0  0  0  0  0  0
    0.1933    0.7944   -0.8753 C   0  0  0  0  0  0  0  0  0  0  0  0
   -0.8542    1.0751   -1.0202 H   0  0  0  0  0  0  0  0  0  0  0  0
    0.6611    1.6100   -0.3124 H   0  0  0  0  0  0  0  0  0  0  0  0
    0.9062    0.6861   -2.2292 C   0  0  0  0  0  0  0  0  0  0  0  0
    1.9626    0.9498   -2.1094 H   0  0  0  0  0  0  0  0  0  0  0  0
    0.8605   -0.3392   -2.6105 H   0  0  0  0  0  0  0  0  0  0  0  0
    0.1119    1.7956   -3.4609 S   0  0  0  0  0  0  0  0  0  0  0  0
   -1.3793    0.8435   -3.9548 C   0  0  0  0  0  0  0  0  0  0  0  0
   -2.0449    0.7017   -3.0993 H   0  0  0  0  0  0  0  0  0  0  0  0
   -1.9244    1.3834   -4.7348 H   0  0  0  0  0  0  0  0  0  0  0  0
   -1.0908   -0.1368   -4.3455 H   0  0  0  0  0  0  0  0  0  0  0  0
    0.7801   -0.2514    1.3523 C   0  0  0  0  0  0  0  0  0  0  0  0
    1.9823   -0.2572    1.5809 O   0  0  0  0  0  0  0  0  0  0  0  0
   -0.0830    0.2692    2.2996 N   0  0  0  0  0  0  0  0  0  0  0  0
   -1.0734    0.1816    2.0991 H   0  0  0  0  0  0  0  0  0  0  0  0
    0.3337    0.5853    3.6599 C   0  0  0  0  0  0  0  0  0  0  0  0
    1.1400    1.3264    3.6522 H   0  0  0  0  0  0  0  0  0  0  0  0
   -0.5065    0.9977    4.2265 H   0  0  0  0  0  0  0  0  0  0  0  0
    0.6888   -0.3165    4.1698 H   0  0  0  0  0  0  0  0  0  0  0  0
  1  2  1  0  0  0  0
  2  3  1  0  0  0  0
  2  4  1  0  0  0  0
  2  5  1  0  0  0  0
  5  6  2  0  0  0  0
  5  7  1  0  0  0  0
  7  8  1  0  0  0  0
  7  9  1  0  0  0  0
  9 10  1  0  0  0  0
  9 11  1  0  0  0  0
  9 22  1  0  0  0  0
 11 12  1  0  0  0  0
 11 13  1  0  0  0  0
 11 14  1  0  0  0  0
 14 15  1  0  0  0  0
 14 16  1  0  0  0  0
 14 17  1  0  0  0  0
 17 18  1  0  0  0  0
 18 19  1  0  0  0  0
 18 20  1  0  0  0  0
 18 21  1  0  0  0  0
 22 23  2  0  0  0  0
 22 24  1  0  0  0  0
 24 25  1  0  0  0  0
 24 26  1  0  0  0  0
 26 27  1  0  0  0  0
 26 28  1  0  0  0  0
 26 29  1  0  0  0  0
M  END
$$$$

  -OEChem-04042216023D

 29 28  0     1  0  0  0  0  0999 V2000
   -2.6776   -4.0826    0.6451 H   0  0  0  0  0  0  0  0  0  0  0  0
   -2.6475   -3.1024    0.1603 C   0  0  0  0  0  0  0  0  0  0  0  0
   -3.4462   -2.4814    0.5727 H   0  0  0  0  0  0  0  0  0  0  0  0
   -2.8136   -3.2362   -0.9114 H   0  0  0  0  0  0  0  0  0  0  0  0
   -1.3023   -2.4434    0.3996 C   0  0  0  0  0  0  0  0  0  0  0  0
   -0.4588   -3.0097    1.0695 O   0  0  0  0  0  0  0  0  0  0  0  0
   -1.0413   -1.2018   -0.1458 N   0  0  0  0  0  0  0  0  0  0  0  0
   -1.7497   -0.8192   -0.7643 H   0  0  0  0  0  0  0  0  0  0  0  0
    0.2699   -0.5264   -0.0821 C   0  0  1  0  0  0  0  0  0  0  0  0
    1.0193   -1.1824   -0.5405 H   0  0  0  0  0  0  0  0  0  0  0  0
    0.1843    0.7959   -0.8741 C   0  0  0  0  0  0  0  0  0  0  0  0
   -0.8621    1.0761   -1.0246 H   0  0  0  0  0  0  0  0  0  0  0  0
    0.6535    1.6111   -0.3114 H   0  0  0  0  0  0  0  0  0  0  0  0
    0.9009    0.6784   -2.2223 C   0  0  0  0  0  0  0  0  0  0  0  0
    1.9844    0.6887   -2.0616 H   0  0  0  0  0  0  0  0  0  0  0  0
    0.6432   -0.2664   -2.7119 H   0  0  0  0  0  0  0  0  0  0  0  0
    0.4214    2.0712   -3.3214 S   0  0  0  0  0  0  0  0  0  0  0  0
   -1.2417    1.5724   -3.9211 C   0  0  0  0  0  0  0  0  0  0  0  0
   -1.9509    1.5216   -3.0906 H   0  0  0  0  0  0  0  0  0  0  0  0
   -1.6102    2.3026   -4.6479 H   0  0  0  0  0  0  0  0  0  0  0  0
   -1.1917    0.5926   -4.4052 H   0  0  0  0  0  0  0  0  0  0  0  0
    0.7772   -0.2499    1.3520 C   0  0  0  0  0  0  0  0  0  0  0  0
    1.9800   -0.2550    1.5776 O   0  0  0  0  0  0  0  0  0  0  0  0
   -0.0837    0.2670    2.3034 N   0  0  0  0  0  0  0  0  0  0  0  0
   -1.0748    0.1749    2.1081 H   0  0  0  0  0  0  0  0  0  0  0  0
    0.3391    0.5799    3.6626 C   0  0  0  0  0  0  0  0  0  0  0  0
    1.1420    1.3248    3.6530 H   0  0  0  0  0  0  0  0  0  0  0  0
   -0.4997    0.9862    4.2358 H   0  0  0  0  0  0  0  0  0  0  0  0
    0.7013   -0.3223    4.1669 H   0  0  0  0  0  0  0  0  0  0  0  0
  1  2  1  0  0  0  0
  2  3  1  0  0  0  0
  2  4  1  0  0  0  0
  2  5  1  0  0  0  0
  5  6  2  0  0  0  0
  5  7  1  0  0  0  0
  7  8  1  0  0  0  0
  7  9  1  0  0  0  0
  9 10  1  0  0  0  0
  9 11  1  0  0  0  0
  9 22  1  0  0  0  0
 11 12  1  0  0  0  0
 11 13  1  0  0  0  0
 11 14  1  0  0  0  0
 14 15  1  0  0  0  0
 14 16  1  0  0  0  0
 14 17  1  0  0  0  0
 17 18  1  0  0  0  0
 18 19  1  0  0  0  0
 18 20  1  0  0  0  0
 18 21  1  0  0  0  0
 22 23  2  0  0  0  0
 22 24  1  0  0  0  0
 24 25  1  0  0  0  0
 24 26  1  0  0  0  0
 26 27  1  0  0  0  0
 26 28  1  0  0  0  0
 26 29  1  0  0  0  0
M  END
$$$$

  -OEChem-04042216023D

 29 28  0     1  0  0  0  0  0999 V2000
   -2.6644   -4.0939    0.6373 H   0  0  0  0  0  0  0  0  0  0  0  0
   -2.6342   -3.1146    0.1511 C   0  0  0  0  0  0  0  0  0  0  0  0
   -3.4379   -2.4959    0.5568 H   0  0  0  0  0  0  0  0  0  0  0  0
   -2.7924   -3.2515   -0.9213 H   0  0  0  0  0  0  0  0  0  0  0  0
   -1.2924   -2.4513    0.3978 C   0  0  0  0  0  0  0  0  0  0  0  0
   -0.4589   -3.0068    1.0888 O   0  0  0  0  0  0  0  0  0  0  0  0
   -1.0236   -1.2181   -0.1633 N   0  0  0  0  0  0  0  0  0  0  0  0
   -1.7232   -0.8454   -0.7975 H   0  0  0  0  0  0  0  0  0  0  0  0
    0.2880   -0.5435   -0.0946 C   0  0  1  0  0  0  0  0  0  0  0  0
    1.0471   -1.1966   -0.5406 H   0  0  0  0  0  0  0  0  0  0  0  0
    0.2025    0.7703   -0.8939 C   0  0  0  0  0  0  0  0  0  0  0  0
   -0.8005    1.1991   -0.8139 H   0  0  0  0  0  0  0  0  0  0  0  0
    0.9028    1.5020   -0.4752 H   0  0  0  0  0  0  0  0  0  0  0  0
    0.5858    0.5463   -2.3592 C   0  0  0  0  0  0  0  0  0  0  0  0
    1.6126    0.1686   -2.4145 H   0  0  0  0  0  0  0  0  0  0  0  0
   -0.0714   -0.2004   -2.8155 H   0  0  0  0  0  0  0  0  0  0  0  0
    0.4796    2.1213   -3.3009 S   0  0  0  0  0  0  0  0  0  0  0  0
   -1.3276    2.4154   -3.4466 C   0  0  0  0  0  0  0  0  0  0  0  0
   -1.7701    2.5846   -2.4612 H   0  0  0  0  0  0  0  0  0  0  0  0
   -1.5117    3.2988   -4.0655 H   0  0  0  0  0  0  0  0  0  0  0  0
   -1.8158    1.5546   -3.9129 H   0  0  0  0  0  0  0  0  0  0  0  0
    0.7741   -0.2488    1.3433 C   0  0  0  0  0  0  0  0  0  0  0  0
    1.9726   -0.2567    1.5900 O   0  0  0  0  0  0  0  0  0  0  0  0
   -0.1007    0.2815    2.2745 N   0  0  0  0  0  0  0  0  0  0  0  0
   -1.0884    0.1809    2.0663 H   0  0  0  0  0  0  0  0  0  0  0  0
    0.3002    0.5958    3.6400 C   0  0  0  0  0  0  0  0  0  0  0  0
    1.1082    1.3352    3.6428 H   0  0  0  0  0  0  0  0  0  0  0  0
   -0.5457    1.0093    4.1972 H   0  0  0  0  0  0  0  0  0  0  0  0
    0.6476   -0.3069    4.1535 H   0  0  0  0  0  0  0  0  0  0  0  0
  1  2  1  0  0  0  0
  2  3  1  0  0  0  0
  2  4  1  0  0  0  0
  2  5  1  0  0  0  0
  5  6  2  0  0  0  0
  5  7  1  0  0  0  0
  7  8  1  0  0  0  0
  7  9  1  0  0  0  0
  9 10  1  0  0  0  0
  9 11  1  0  0  0  0
  9 22  1  0  0  0  0
 11 12  1  0  0  0  0
 11 13  1  0  0  0  0
 11 14  1  0  0  0  0
 14 15  1  0  0  0  0
 14 16  1  0  0  0  0
 14 17  1  0  0  0  0
 17 18  1  0  0  0  0
 18 19  1  0  0  0  0
 18 20  1  0  0  0  0
 18 21  1  0  0  0  0
 22 23  2  0  0  0  0
 22 24  1  0  0  0  0
 24 25  1  0  0  0  0
 24 26  1  0  0  0  0
 26 27  1  0  0  0  0
 26 28  1  0  0  0  0
 26 29  1  0  0  0  0
M  END
$$$$

  -OEChem-04042216023D

 29 28  0     1  0  0  0  0  0999 V2000
   -2.6569   -4.1090    0.6368 H   0  0  0  0  0  0  0  0  0  0  0  0
   -2.6291   -3.1327    0.1443 C   0  0  0  0  0  0  0  0  0  0  0  0
   -3.4444   -2.5191    0.5344 H   0  0  0  0  0  0  0  0  0  0  0  0
   -2.7706   -3.2779   -0.9294 H   0  0  0  0  0  0  0  0  0  0  0  0
   -1.2969   -2.4558    0.4054 C   0  0  0  0  0  0  0  0  0  0  0  0
   -0.4723   -2.9951    1.1194 O   0  0  0  0  0  0  0  0  0  0  0  0
   -1.0261   -1.2306   -0.1719 N   0  0  0  0  0  0  0  0  0  0  0  0
   -1.7184   -0.8745   -0.8233 H   0  0  0  0  0  0  0  0  0  0  0  0
    0.2843   -0.5538   -0.1072 C   0  0  1  0  0  0  0  0  0  0  0  0
    1.0460   -1.2129   -0.5389 H   0  0  0  0  0  0  0  0  0  0  0  0
    0.1932    0.7483   -0.9271 C   0  0  0  0  0  0  0  0  0  0  0  0
   -0.8062    1.1873   -0.8515 H   0  0  0  0  0  0  0  0  0  0  0  0
    0.9000    1.4769   -0.5132 H   0  0  0  0  0  0  0  0  0  0  0  0
    0.5782    0.5159   -2.3926 C   0  0  0  0  0  0  0  0  0  0  0  0
    1.4958   -0.0795   -2.4446 H   0  0  0  0  0  0  0  0  0  0  0  0
   -0.2109   -0.0377   -2.9107 H   0  0  0  0  0  0  0  0  0  0  0  0
    0.8931    2.1159   -3.2407 S   0  0  0  0  0  0  0  0  0  0  0  0
   -0.7630    2.9094   -3.2806 C   0  0  0  0  0  0  0  0  0  0  0  0
   -1.1142    3.1169   -2.2660 H   0  0  0  0  0  0  0  0  0  0  0  0
   -0.7100    3.8547   -3.8289 H   0  0  0  0  0  0  0  0  0  0  0  0
   -1.4850    2.2564   -3.7795 H   0  0  0  0  0  0  0  0  0  0  0  0
    0.7640   -0.2380    1.3288 C   0  0  0  0  0  0  0  0  0  0  0  0
    1.9612   -0.2445    1.5814 O   0  0  0  0  0  0  0  0  0  0  0  0
   -0.1142    0.3047    2.2496 N   0  0  0  0  0  0  0  0  0  0  0  0
   -1.1009    0.1997    2.0399 H   0  0  0  0  0  0  0  0  0  0  0  0
    0.2814    0.6338    3.6132 C   0  0  0  0  0  0  0  0  0  0  0  0
    1.0884    1.3741    3.6101 H   0  0  0  0  0  0  0  0  0  0  0  0
   -0.5667    1.0524    4.1633 H   0  0  0  0  0  0  0  0  0  0  0  0
    0.6281   -0.2632    4.1372 H   0  0  0  0  0  0  0  0  0  0  0  0
  1  2  1  0  0  0  0
  2  3  1  0  0  0  0
  2  4  1  0  0  0  0
  2  5  1  0  0  0  0
  5  6  2  0  0  0  0
  5  7  1  0  0  0  0
  7  8  1  0  0  0  0
  7  9  1  0  0  0  0
  9 10  1  0  0  0  0
  9 11  1  0  0  0  0
  9 22  1  0  0  0  0
 11 12  1  0  0  0  0
 11 13  1  0  0  0  0
 11 14  1  0  0  0  0
 14 15  1  0  0  0  0
 14 16  1  0  0  0  0
 14 17  1  0  0  0  0
 17 18  1  0  0  0  0
 18 19  1  0  0  0  0
 18 20  1  0  0  0  0
 18 21  1  0  0  0  0
 22 23  2  0  0  0  0
 22 24  1  0  0  0  0
 24 25  1  0  0  0  0
 24 26  1  0  0  0  0
 26 27  1  0  0  0  0
 26 28  1  0  0  0  0
 26 29  1  0  0  0  0
M  END
$$$$

  -OEChem-04042216023D

 29 28  0     1  0  0  0  0  0999 V2000
   -2.6715   -4.0847    0.7247 H   0  0  0  0  0  0  0  0  0  0  0  0
   -2.6269   -3.1397    0.1754 C   0  0  0  0  0  0  0  0  0  0  0  0
   -3.4369   -2.4937    0.5224 H   0  0  0  0  0  0  0  0  0  0  0  0
   -2.7627   -3.3464   -0.8889 H   0  0  0  0  0  0  0  0  0  0  0  0
   -1.2879   -2.4655    0.4075 C   0  0  0  0  0  0  0  0  0  0  0  0
   -0.4590   -2.9957    1.1234 O   0  0  0  0  0  0  0  0  0  0  0  0
   -1.0191   -1.2501   -0.1912 N   0  0  0  0  0  0  0  0  0  0  0  0
   -1.7135   -0.9051   -0.8463 H   0  0  0  0  0  0  0  0  0  0  0  0
    0.2892   -0.5680   -0.1362 C   0  0  1  0  0  0  0  0  0  0  0  0
    1.0567   -1.2288   -0.5546 H   0  0  0  0  0  0  0  0  0  0  0  0
    0.1865    0.7248   -0.9715 C   0  0  0  0  0  0  0  0  0  0  0  0
   -0.8097    1.1705   -0.8921 H   0  0  0  0  0  0  0  0  0  0  0  0
    0.8975    1.4509   -0.5601 H   0  0  0  0  0  0  0  0  0  0  0  0
    0.5640    0.4981   -2.4426 C   0  0  0  0  0  0  0  0  0  0  0  0
    1.3191   -0.2909   -2.5227 H   0  0  0  0  0  0  0  0  0  0  0  0
   -0.3131    0.1785   -3.0136 H   0  0  0  0  0  0  0  0  0  0  0  0
    1.2825    2.0238   -3.1748 S   0  0  0  0  0  0  0  0  0  0  0  0
   -0.0936    3.2337   -3.0434 C   0  0  0  0  0  0  0  0  0  0  0  0
   -0.3301    3.4324   -1.9941 H   0  0  0  0  0  0  0  0  0  0  0  0
    0.1919    4.1766   -3.5196 H   0  0  0  0  0  0  0  0  0  0  0  0
   -0.9875    2.8471   -3.5414 H   0  0  0  0  0  0  0  0  0  0  0  0
    0.7588   -0.2279    1.2979 C   0  0  0  0  0  0  0  0  0  0  0  0
    1.9533   -0.2319    1.5627 O   0  0  0  0  0  0  0  0  0  0  0  0
   -0.1288    0.3263    2.2031 N   0  0  0  0  0  0  0  0  0  0  0  0
   -1.1135    0.2184    1.9850 H   0  0  0  0  0  0  0  0  0  0  0  0
    0.2529    0.6746    3.5659 C   0  0  0  0  0  0  0  0  0  0  0  0
    1.0566    1.4185    3.5613 H   0  0  0  0  0  0  0  0  0  0  0  0
   -0.6022    1.0960    4.1028 H   0  0  0  0  0  0  0  0  0  0  0  0
    0.5990   -0.2139    4.1046 H   0  0  0  0  0  0  0  0  0  0  0  0
  1  2  1  0  0  0  0
  2  3  1  0  0  0  0
  2  4  1  0  0  0  0
  2  5  1  0  0  0  0
  5  6  2  0  0  0  0
  5  7  1  0  0  0  0
  7  8  1  0  0  0  0
  7  9  1  0  0  0  0
  9 10  1  0  0  0  0
  9 11  1  0  0  0  0
  9 22  1  0  0  0  0
 11 12  1  0  0  0  0
 11 13  1  0  0  0  0
 11 14  1  0  0  0  0
 14 15  1  0  0  0  0
 14 16  1  0  0  0  0
 14 17  1  0  0  0  0
 17 18  1  0  0  0  0
 18 19  1  0  0  0  0
 18 20  1  0  0  0  0
 18 21  1  0  0  0  0
 22 23  2  0  0  0  0
 22 24  1  0  0  0  0
 24 25  1  0  0  0  0
 24 26  1  0  0  0  0
 26 27  1  0  0  0  0
 26 28  1  0  0  0  0
 26 29  1  0  0  0  0
M  END
$$$$

  -OEChem-04042216023D

 29 28  0     1  0  0  0  0  0999 V2000
   -2.6757   -4.0880    0.7085 H   0  0  0  0  0  0  0  0  0  0  0  0
   -2.6310   -3.1394    0.1656 C   0  0  0  0  0  0  0  0  0  0  0  0
   -3.4474   -2.4997    0.5089 H   0  0  0  0  0  0  0  0  0  0  0  0
   -2.7567   -3.3404   -0.9010 H   0  0  0  0  0  0  0  0  0  0  0  0
   -1.2971   -2.4597    0.4123 C   0  0  0  0  0  0  0  0  0  0  0  0
   -0.4719   -2.9884    1.1335 O   0  0  0  0  0  0  0  0  0  0  0  0
   -1.0269   -1.2438   -0.1851 N   0  0  0  0  0  0  0  0  0  0  0  0
   -1.7153   -0.9060   -0.8502 H   0  0  0  0  0  0  0  0  0  0  0  0
    0.2839   -0.5659   -0.1347 C   0  0  1  0  0  0  0  0  0  0  0  0
    1.0499   -1.2263   -0.5559 H   0  0  0  0  0  0  0  0  0  0  0  0
    0.1785    0.7308   -0.9652 C   0  0  0  0  0  0  0  0  0  0  0  0
   -0.8171    1.1771   -0.8784 H   0  0  0  0  0  0  0  0  0  0  0  0
    0.8884    1.4540   -0.5480 H   0  0  0  0  0  0  0  0  0  0  0  0
    0.5450    0.5159   -2.4434 C   0  0  0  0  0  0  0  0  0  0  0  0
    1.0712   -0.4348   -2.5753 H   0  0  0  0  0  0  0  0  0  0  0  0
   -0.3647    0.4730   -3.0501 H   0  0  0  0  0  0  0  0  0  0  0  0
    1.6489    1.8520   -3.0579 S   0  0  0  0  0  0  0  0  0  0  0  0
    0.6029    3.3536   -2.8970 C   0  0  0  0  0  0  0  0  0  0  0  0
    0.3576    3.5395   -1.8474 H   0  0  0  0  0  0  0  0  0  0  0  0
    1.1375    4.2245   -3.2882 H   0  0  0  0  0  0  0  0  0  0  0  0
   -0.3259    3.2309   -3.4616 H   0  0  0  0  0  0  0  0  0  0  0  0
    0.7621   -0.2293    1.2980 C   0  0  0  0  0  0  0  0  0  0  0  0
    1.9584   -0.2325    1.5554 O   0  0  0  0  0  0  0  0  0  0  0  0
   -0.1183    0.3264    2.2093 N   0  0  0  0  0  0  0  0  0  0  0  0
   -1.1046    0.2171    2.0002 H   0  0  0  0  0  0  0  0  0  0  0  0
    0.2761    0.6810    3.5670 C   0  0  0  0  0  0  0  0  0  0  0  0
    1.0834    1.4209    3.5510 H   0  0  0  0  0  0  0  0  0  0  0  0
   -0.5722    1.1099    4.1085 H   0  0  0  0  0  0  0  0  0  0  0  0
    0.6222   -0.2061    4.1082 H   0  0  0  0  0  0  0  0  0  0  0  0
  1  2  1  0  0  0  0
  2  3  1  0  0  0  0
  2  4  1  0  0  0  0
  2  5  1  0  0  0  0
  5  6  2  0  0  0  0
  5  7  1  0  0  0  0
  7  8  1  0  0  0  0
  7  9  1  0  0  0  0
  9 10  1  0  0  0  0
  9 11  1  0  0  0  0
  9 22  1  0  0  0  0
 11 12  1  0  0  0  0
 11 13  1  0  0  0  0
 11 14  1  0  0  0  0
 14 15  1  0  0  0  0
 14 16  1  0  0  0  0
 14 17  1  0  0  0  0
 17 18  1  0  0  0  0
 18 19  1  0  0  0  0
 18 20  1  0  0  0  0
 18 21  1  0  0  0  0
 22 23  2  0  0  0  0
 22 24  1  0  0  0  0
 24 25  1  0  0  0  0
 24 26  1  0  0  0  0
 26 27  1  0  0  0  0
 26 28  1  0  0  0  0
 26 29  1  0  0  0  0
M  END
$$$$

  -OEChem-04042216023D

 29 28  0     1  0  0  0  0  0999 V2000
   -2.6578   -4.0945    0.6659 H   0  0  0  0  0  0  0  0  0  0  0  0
   -2.6299   -3.1219    0.1659 C   0  0  0  0  0  0  0  0  0  0  0  0
   -3.4402   -2.5021    0.5567 H   0  0  0  0  0  0  0  0  0  0  0  0
   -2.7792   -3.2752   -0.9056 H   0  0  0  0  0  0  0  0  0  0  0  0
   -1.2942   -2.4468    0.4139 C   0  0  0  0  0  0  0  0  0  0  0  0
   -0.4694   -2.9814    1.1312 O   0  0  0  0  0  0  0  0  0  0  0  0
   -1.0254   -1.2254   -0.1728 N   0  0  0  0  0  0  0  0  0  0  0  0
   -1.7154   -0.8815   -0.8333 H   0  0  0  0  0  0  0  0  0  0  0  0
    0.2873   -0.5507   -0.1225 C   0  0  1  0  0  0  0  0  0  0  0  0
    1.0517   -1.2057   -0.5559 H   0  0  0  0  0  0  0  0  0  0  0  0
    0.1850    0.7561   -0.9359 C   0  0  0  0  0  0  0  0  0  0  0  0
   -0.8167    1.1882   -0.8467 H   0  0  0  0  0  0  0  0  0  0  0  0
    0.8828    1.4856   -0.5098 H   0  0  0  0  0  0  0  0  0  0  0  0
    0.5452    0.5510   -2.4183 C   0  0  0  0  0  0  0  0  0  0  0  0
    0.7907   -0.4972   -2.6172 H   0  0  0  0  0  0  0  0  0  0  0  0
   -0.3166    0.8050   -3.0431 H   0  0  0  0  0  0  0  0  0  0  0  0
    1.9778    1.5915   -2.9141 S   0  0  0  0  0  0  0  0  0  0  0  0
    1.2957    3.2950   -2.8196 C   0  0  0  0  0  0  0  0  0  0  0  0
    0.9796    3.5266   -1.7985 H   0  0  0  0  0  0  0  0  0  0  0  0
    2.0586    4.0194   -3.1197 H   0  0  0  0  0  0  0  0  0  0  0  0
    0.4353    3.3965   -3.4874 H   0  0  0  0  0  0  0  0  0  0  0  0
    0.7686   -0.2328    1.3132 C   0  0  0  0  0  0  0  0  0  0  0  0
    1.9642   -0.2450    1.5725 O   0  0  0  0  0  0  0  0  0  0  0  0
   -0.1112    0.3133    2.2311 N   0  0  0  0  0  0  0  0  0  0  0  0
   -1.0971    0.2066    2.0182 H   0  0  0  0  0  0  0  0  0  0  0  0
    0.2788    0.6266    3.6001 C   0  0  0  0  0  0  0  0  0  0  0  0
    1.0959    1.3556    3.6092 H   0  0  0  0  0  0  0  0  0  0  0  0
   -0.5678    1.0522    4.1471 H   0  0  0  0  0  0  0  0  0  0  0  0
    0.6095   -0.2789    4.1199 H   0  0  0  0  0  0  0  0  0  0  0  0
  1  2  1  0  0  0  0
  2  3  1  0  0  0  0
  2  4  1  0  0  0  0
  2  5  1  0  0  0  0
  5  6  2  0  0  0  0
  5  7  1  0  0  0  0
  7  8  1  0  0  0  0
  7  9  1  0  0  0  0
  9 10  1  0  0  0  0
  9 11  1  0  0  0  0
  9 22  1  0  0  0  0
 11 12  1  0  0  0  0
 11 13  1  0  0  0  0
 11 14  1  0  0  0  0
 14 15  1  0  0  0  0
 14 16  1  0  0  0  0
 14 17  1  0  0  0  0
 17 18  1  0  0  0  0
 18 19  1  0  0  0  0
 18 20  1  0  0  0  0
 18 21  1  0  0  0  0
 22 23  2  0  0  0  0
 22 24  1  0  0  0  0
 24 25  1  0  0  0  0
 24 26  1  0  0  0  0
 26 27  1  0  0  0  0
 26 28  1  0  0  0  0
 26 29  1  0  0  0  0
M  END
$$$$

  -OEChem-04042216023D

 29 28  0     1  0  0  0  0  0999 V2000
   -2.6488   -4.1034    0.6414 H   0  0  0  0  0  0  0  0  0  0  0  0
   -2.6268   -3.1262    0.1502 C   0  0  0  0  0  0  0  0  0  0  0  0
   -3.4441   -2.5165    0.5427 H   0  0  0  0  0  0  0  0  0  0  0  0
   -2.7708   -3.2712   -0.9231 H   0  0  0  0  0  0  0  0  0  0  0  0
   -1.2974   -2.4426    0.4095 C   0  0  0  0  0  0  0  0  0  0  0  0
   -0.4730   -2.9767    1.1276 O   0  0  0  0  0  0  0  0  0  0  0  0
   -1.0353   -1.2142   -0.1658 N   0  0  0  0  0  0  0  0  0  0  0  0
   -1.7223   -0.8738   -0.8311 H   0  0  0  0  0  0  0  0  0  0  0  0
    0.2766   -0.5373   -0.1134 C   0  0  1  0  0  0  0  0  0  0  0  0
    1.0392   -1.1854   -0.5608 H   0  0  0  0  0  0  0  0  0  0  0  0
    0.1786    0.7785   -0.9110 C   0  0  0  0  0  0  0  0  0  0  0  0
   -0.8314    1.1918   -0.8264 H   0  0  0  0  0  0  0  0  0  0  0  0
    0.8603    1.5184   -0.4786 H   0  0  0  0  0  0  0  0  0  0  0  0
    0.5400    0.5740   -2.3913 C   0  0  0  0  0  0  0  0  0  0  0  0
    0.4970   -0.4872   -2.6579 H   0  0  0  0  0  0  0  0  0  0  0  0
   -0.1907    1.0959   -3.0170 H   0  0  0  0  0  0  0  0  0  0  0  0
    2.2112    1.2359   -2.7763 S   0  0  0  0  0  0  0  0  0  0  0  0
    1.9723    3.0557   -2.6877 C   0  0  0  0  0  0  0  0  0  0  0  0
    1.6698    3.3563   -1.6807 H   0  0  0  0  0  0  0  0  0  0  0  0
    2.9078    3.5663   -2.9352 H   0  0  0  0  0  0  0  0  0  0  0  0
    1.2025    3.3718   -3.3977 H   0  0  0  0  0  0  0  0  0  0  0  0
    0.7646   -0.2329    1.3229 C   0  0  0  0  0  0  0  0  0  0  0  0
    1.9617   -0.2397    1.5756 O   0  0  0  0  0  0  0  0  0  0  0  0
   -0.1124    0.3020    2.2501 N   0  0  0  0  0  0  0  0  0  0  0  0
   -1.0987    0.1878    2.0432 H   0  0  0  0  0  0  0  0  0  0  0  0
    0.2839    0.6045    3.6197 C   0  0  0  0  0  0  0  0  0  0  0  0
    1.0986    1.3362    3.6316 H   0  0  0  0  0  0  0  0  0  0  0  0
   -0.5610    1.0227    4.1748 H   0  0  0  0  0  0  0  0  0  0  0  0
    0.6199   -0.3047    4.1293 H   0  0  0  0  0  0  0  0  0  0  0  0
  1  2  1  0  0  0  0
  2  3  1  0  0  0  0
  2  4  1  0  0  0  0
  2  5  1  0  0  0  0
  5  6  2  0  0  0  0
  5  7  1  0  0  0  0
  7  8  1  0  0  0  0
  7  9  1  0  0  0  0
  9 10  1  0  0  0  0
  9 11  1  0  0  0  0
  9 22  1  0  0  0  0
 11 12  1  0  0  0  0
 11 13  1  0  0  0  0
 11 14  1  0  0  0  0
 14 15  1  0  0  0  0
 14 16  1  0  0  0  0
 14 17  1  0  0  0  0
 17 18  1  0  0  0  0
 18 19  1  0  0  0  0
 18 20  1  0  0  0  0
 18 21  1  0  0  0  0
 22 23  2  0  0  0  0
 22 24  1  0  0  0  0
 24 25  1  0  0  0  0
 24 26  1  0  0  0  0
 26 27  1  0  0  0  0
 26 28  1  0  0  0  0
 26 29  1  0  0  0  0
M  END
$$$$

  -OEChem-04042216023D

 29 28  0     1  0  0  0  0  0999 V2000
   -2.6551   -4.0957    0.6400 H   0  0  0  0  0  0  0  0  0  0  0  0
   -2.6255   -3.1231    0.1403 C   0  0  0  0  0  0  0  0  0  0  0  0
   -3.4436   -2.5072    0.5210 H   0  0  0  0  0  0  0  0  0  0  0  0
   -2.7614   -3.2767   -0.9329 H   0  0  0  0  0  0  0  0  0  0  0  0
   -1.2960   -2.4414    0.4037 C   0  0  0  0  0  0  0  0  0  0  0  0
   -0.4737   -2.9758    1.1240 O   0  0  0  0  0  0  0  0  0  0  0  0
   -1.0348   -1.2111   -0.1674 N   0  0  0  0  0  0  0  0  0  0  0  0
   -1.7207   -0.8725   -0.8344 H   0  0  0  0  0  0  0  0  0  0  0  0
    0.2758   -0.5312   -0.1143 C   0  0  1  0  0  0  0  0  0  0  0  0
    1.0384   -1.1749   -0.5687 H   0  0  0  0  0  0  0  0  0  0  0  0
    0.1718    0.7869   -0.9070 C   0  0  0  0  0  0  0  0  0  0  0  0
   -0.8435    1.1873   -0.8249 H   0  0  0  0  0  0  0  0  0  0  0  0
    0.8435    1.5359   -0.4761 H   0  0  0  0  0  0  0  0  0  0  0  0
    0.5320    0.5821   -2.3852 C   0  0  0  0  0  0  0  0  0  0  0  0
    0.2362   -0.4193   -2.7147 H   0  0  0  0  0  0  0  0  0  0  0  0
   -0.0199    1.3045   -2.9947 H   0  0  0  0  0  0  0  0  0  0  0  0
    2.3292    0.8282   -2.6851 S   0  0  0  0  0  0  0  0  0  0  0  0
    2.5573    2.6425   -2.4978 C   0  0  0  0  0  0  0  0  0  0  0  0
    2.3469    2.9545   -1.4711 H   0  0  0  0  0  0  0  0  0  0  0  0
    3.5902    2.9139   -2.7357 H   0  0  0  0  0  0  0  0  0  0  0  0
    1.8892    3.1818   -3.1757 H   0  0  0  0  0  0  0  0  0  0  0  0
    0.7659   -0.2293    1.3220 C   0  0  0  0  0  0  0  0  0  0  0  0
    1.9636   -0.2283    1.5731 O   0  0  0  0  0  0  0  0  0  0  0  0
   -0.1122    0.3014    2.2506 N   0  0  0  0  0  0  0  0  0  0  0  0
   -1.0982    0.1808    2.0454 H   0  0  0  0  0  0  0  0  0  0  0  0
    0.2834    0.6060    3.6200 C   0  0  0  0  0  0  0  0  0  0  0  0
    1.0915    1.3452    3.6314 H   0  0  0  0  0  0  0  0  0  0  0  0
   -0.5648    1.0157    4.1766 H   0  0  0  0  0  0  0  0  0  0  0  0
    0.6284   -0.3008    4.1283 H   0  0  0  0  0  0  0  0  0  0  0  0
  1  2  1  0  0  0  0
  2  3  1  0  0  0  0
  2  4  1  0  0  0  0
  2  5  1  0  0  0  0
  5  6  2  0  0  0  0
  5  7  1  0  0  0  0
  7  8  1  0  0  0  0
  7  9  1  0  0  0  0
  9 10  1  0  0  0  0
  9 11  1  0  0  0  0
  9 22  1  0  0  0  0
 11 12  1  0  0  0  0
 11 13  1  0  0  0  0
 11 14  1  0  0  0  0
 14 15  1  0  0  0  0
 14 16  1  0  0  0  0
 14 17  1  0  0  0  0
 17 18  1  0  0  0  0
 18 19  1  0  0  0  0
 18 20  1  0  0  0  0
 18 21  1  0  0  0  0
 22 23  2  0  0  0  0
 22 24  1  0  0  0  0
 24 25  1  0  0  0  0
 24 26  1  0  0  0  0
 26 27  1  0  0  0  0
 26 28  1  0  0  0  0
 26 29  1  0  0  0  0
M  END
$$$$

  -OEChem-04042216023D

 29 28  0     1  0  0  0  0  0999 V2000
   -2.5528   -4.0727    0.7880 H   0  0  0  0  0  0  0  0  0  0  0  0
   -2.5276   -3.1783    0.1590 C   0  0  0  0  0  0  0  0  0  0  0  0
   -3.3775   -2.5430    0.4187 H   0  0  0  0  0  0  0  0  0  0  0  0
   -2.6124   -3.4816   -0.8873 H   0  0  0  0  0  0  0  0  0  0  0  0
   -1.2286   -2.4255    0.3764 C   0  0  0  0  0  0  0  0  0  0  0  0
   -0.3601   -2.9065    1.0805 O   0  0  0  0  0  0  0  0  0  0  0  0
   -1.0495   -1.1886   -0.2118 N   0  0  0  0  0  0  0  0  0  0  0  0
   -1.7678   -0.8979   -0.8675 H   0  0  0  0  0  0  0  0  0  0  0  0
    0.2327   -0.4556   -0.2215 C   0  0  1  0  0  0  0  0  0  0  0  0
    0.9949   -1.0768   -0.7062 H   0  0  0  0  0  0  0  0  0  0  0  0
    0.0525    0.8543   -1.0136 C   0  0  0  0  0  0  0  0  0  0  0  0
   -0.9752    1.2122   -0.8972 H   0  0  0  0  0  0  0  0  0  0  0  0
    0.6990    1.6384   -0.6100 H   0  0  0  0  0  0  0  0  0  0  0  0
    0.3591    0.6577   -2.5043 C   0  0  0  0  0  0  0  0  0  0  0  0
   -0.1592   -0.2295   -2.8818 H   0  0  0  0  0  0  0  0  0  0  0  0
   -0.0274    1.5226   -3.0526 H   0  0  0  0  0  0  0  0  0  0  0  0
    2.1599    0.5156   -2.8729 S   0  0  0  0  0  0  0  0  0  0  0  0
    3.0107    1.8157   -1.8903 C   0  0  0  0  0  0  0  0  0  0  0  0
    2.9834    1.5698   -0.8241 H   0  0  0  0  0  0  0  0  0  0  0  0
    4.0580    1.8881   -2.1977 H   0  0  0  0  0  0  0  0  0  0  0  0
    2.5323    2.7870   -2.0453 H   0  0  0  0  0  0  0  0  0  0  0  0
    0.7813   -0.1232    1.1858 C   0  0  0  0  0  0  0  0  0  0  0  0
    1.9895   -0.0336    1.3616 O   0  0  0  0  0  0  0  0  0  0  0  0
   -0.0715    0.3775    2.1534 N   0  0  0  0  0  0  0  0  0  0  0  0
   -1.0577    0.1867    2.0113 H   0  0  0  0  0  0  0  0  0  0  0  0
    0.3843    0.7327    3.4913 C   0  0  0  0  0  0  0  0  0  0  0  0
    1.1418    1.5219    3.4416 H   0  0  0  0  0  0  0  0  0  0  0  0
   -0.4537    1.0982    4.0922 H   0  0  0  0  0  0  0  0  0  0  0  0
    0.8171   -0.1402    3.9913 H   0  0  0  0  0  0  0  0  0  0  0  0
  1  2  1  0  0  0  0
  2  3  1  0  0  0  0
  2  4  1  0  0  0  0
  2  5  1  0  0  0  0
  5  6  2  0  0  0  0
  5  7  1  0  0  0  0
  7  8  1  0  0  0  0
  7  9  1  0  0  0  0
  9 10  1  0  0  0  0
  9 11  1  0  0  0  0
  9 22  1  0  0  0  0
 11 12  1  0  0  0  0
 11 13  1  0  0  0  0
 11 14  1  0  0  0  0
 14 15  1  0  0  0  0
 14 16  1  0  0  0  0
 14 17  1  0  0  0  0
 17 18  1  0  0  0  0
 18 19  1  0  0  0  0
 18 20  1  0  0  0  0
 18 21  1  0  0  0  0
 22 23  2  0  0  0  0
 22 24  1  0  0  0  0
 24 25  1  0  0  0  0
 24 26  1  0  0  0  0
 26 27  1  0  0  0  0
 26 28  1  0  0  0  0
 26 29  1  0  0  0  0
M  END
$$$$

  -OEChem-04042216023D

 29 28  0     1  0  0  0  0  0999 V2000
   -2.5549   -4.1069    0.6677 H   0  0  0  0  0  0  0  0  0  0  0  0
   -2.5450   -3.1603    0.1193 C   0  0  0  0  0  0  0  0  0  0  0  0
   -3.3987   -2.5593    0.4414 H   0  0  0  0  0  0  0  0  0  0  0  0
   -2.6378   -3.3730   -0.9484 H   0  0  0  0  0  0  0  0  0  0  0  0
   -1.2511   -2.4153    0.3892 C   0  0  0  0  0  0  0  0  0  0  0  0
   -0.4161   -2.9031    1.1281 O   0  0  0  0  0  0  0  0  0  0  0  0
   -1.0369   -1.1823   -0.1962 N   0  0  0  0  0  0  0  0  0  0  0  0
   -1.7235   -0.8950   -0.8864 H   0  0  0  0  0  0  0  0  0  0  0  0
    0.2623   -0.4794   -0.1872 C   0  0  1  0  0  0  0  0  0  0  0  0
    1.0143   -1.1208   -0.6582 H   0  0  0  0  0  0  0  0  0  0  0  0
    0.1092    0.8397   -0.9763 C   0  0  0  0  0  0  0  0  0  0  0  0
   -0.9029    1.2360   -0.8468 H   0  0  0  0  0  0  0  0  0  0  0  0
    0.7929    1.5918   -0.5690 H   0  0  0  0  0  0  0  0  0  0  0  0
    0.4149    0.6845   -2.4736 C   0  0  0  0  0  0  0  0  0  0  0  0
   -0.2928   -0.0216   -2.9187 H   0  0  0  0  0  0  0  0  0  0  0  0
    0.2677    1.6522   -2.9639 H   0  0  0  0  0  0  0  0  0  0  0  0
    2.1275    0.1056   -2.8302 S   0  0  0  0  0  0  0  0  0  0  0  0
    3.2200    1.2117   -1.8495 C   0  0  0  0  0  0  0  0  0  0  0  0
    3.0937    1.0261   -0.7789 H   0  0  0  0  0  0  0  0  0  0  0  0
    4.2669    1.0264   -2.1078 H   0  0  0  0  0  0  0  0  0  0  0  0
    2.9877    2.2600   -2.0581 H   0  0  0  0  0  0  0  0  0  0  0  0
    0.7972   -0.1615    1.2294 C   0  0  0  0  0  0  0  0  0  0  0  0
    2.0041   -0.1088    1.4279 O   0  0  0  0  0  0  0  0  0  0  0  0
   -0.0580    0.3581    2.1846 N   0  0  0  0  0  0  0  0  0  0  0  0
   -1.0464    0.1931    2.0255 H   0  0  0  0  0  0  0  0  0  0  0  0
    0.3844    0.7030    3.5299 C   0  0  0  0  0  0  0  0  0  0  0  0
    1.1689    1.4661    3.4916 H   0  0  0  0  0  0  0  0  0  0  0  0
   -0.4520    1.0993    4.1133 H   0  0  0  0  0  0  0  0  0  0  0  0
    0.7782   -0.1816    4.0415 H   0  0  0  0  0  0  0  0  0  0  0  0
  1  2  1  0  0  0  0
  2  3  1  0  0  0  0
  2  4  1  0  0  0  0
  2  5  1  0  0  0  0
  5  6  2  0  0  0  0
  5  7  1  0  0  0  0
  7  8  1  0  0  0  0
  7  9  1  0  0  0  0
  9 10  1  0  0  0  0
  9 11  1  0  0  0  0
  9 22  1  0  0  0  0
 11 12  1  0  0  0  0
 11 13  1  0  0  0  0
 11 14  1  0  0  0  0
 14 15  1  0  0  0  0
 14 16  1  0  0  0  0
 14 17  1  0  0  0  0
 17 18  1  0  0  0  0
 18 19  1  0  0  0  0
 18 20  1  0  0  0  0
 18 21  1  0  0  0  0
 22 23  2  0  0  0  0
 22 24  1  0  0  0  0
 24 25  1  0  0  0  0
 24 26  1  0  0  0  0
 26 27  1  0  0  0  0
 26 28  1  0  0  0  0
 26 29  1  0  0  0  0
M  END
$$$$

  -OEChem-04042216023D

 29 28  0     1  0  0  0  0  0999 V2000
   -2.5882   -4.1137    0.6112 H   0  0  0  0  0  0  0  0  0  0  0  0
   -2.5736   -3.1420    0.1091 C   0  0  0  0  0  0  0  0  0  0  0  0
   -3.4234   -2.5519    0.4604 H   0  0  0  0  0  0  0  0  0  0  0  0
   -2.6685   -3.3032   -0.9675 H   0  0  0  0  0  0  0  0  0  0  0  0
   -1.2759   -2.4176    0.4138 C   0  0  0  0  0  0  0  0  0  0  0  0
   -0.4759   -2.9103    1.1875 O   0  0  0  0  0  0  0  0  0  0  0  0
   -1.0222   -1.1946   -0.1765 N   0  0  0  0  0  0  0  0  0  0  0  0
   -1.6743   -0.9125   -0.9012 H   0  0  0  0  0  0  0  0  0  0  0  0
    0.2904   -0.5191   -0.1408 C   0  0  1  0  0  0  0  0  0  0  0  0
    1.0401   -1.1821   -0.5813 H   0  0  0  0  0  0  0  0  0  0  0  0
    0.1695    0.8022   -0.9368 C   0  0  0  0  0  0  0  0  0  0  0  0
   -0.8269    1.2342   -0.8008 H   0  0  0  0  0  0  0  0  0  0  0  0
    0.8822    1.5212   -0.5180 H   0  0  0  0  0  0  0  0  0  0  0  0
    0.4882    0.6952   -2.4391 C   0  0  0  0  0  0  0  0  0  0  0  0
   -0.3574    0.2169   -2.9425 H   0  0  0  0  0  0  0  0  0  0  0  0
    0.5882    1.7038   -2.8528 H   0  0  0  0  0  0  0  0  0  0  0  0
    2.0028   -0.2688   -2.8499 S   0  0  0  0  0  0  0  0  0  0  0  0
    3.3230    0.5912   -1.9035 C   0  0  0  0  0  0  0  0  0  0  0  0
    3.1457    0.5036   -0.8279 H   0  0  0  0  0  0  0  0  0  0  0  0
    4.2961    0.1448   -2.1289 H   0  0  0  0  0  0  0  0  0  0  0  0
    3.3534    1.6513   -2.1707 H   0  0  0  0  0  0  0  0  0  0  0  0
    0.7927   -0.2017    1.2879 C   0  0  0  0  0  0  0  0  0  0  0  0
    1.9949   -0.1738    1.5181 O   0  0  0  0  0  0  0  0  0  0  0  0
   -0.0769    0.3425    2.2160 N   0  0  0  0  0  0  0  0  0  0  0  0
   -1.0634    0.1939    2.0307 H   0  0  0  0  0  0  0  0  0  0  0  0
    0.3339    0.6705    3.5753 C   0  0  0  0  0  0  0  0  0  0  0  0
    1.1483    1.4026    3.5645 H   0  0  0  0  0  0  0  0  0  0  0  0
   -0.5056    1.0988    4.1313 H   0  0  0  0  0  0  0  0  0  0  0  0
    0.6760   -0.2292    4.0977 H   0  0  0  0  0  0  0  0  0  0  0  0
  1  2  1  0  0  0  0
  2  3  1  0  0  0  0
  2  4  1  0  0  0  0
  2  5  1  0  0  0  0
  5  6  2  0  0  0  0
  5  7  1  0  0  0  0
  7  8  1  0  0  0  0
  7  9  1  0  0  0  0
  9 10  1  0  0  0  0
  9 11  1  0  0  0  0
  9 22  1  0  0  0  0
 11 12  1  0  0  0  0
 11 13  1  0  0  0  0
 11 14  1  0  0  0  0
 14 15  1  0  0  0  0
 14 16  1  0  0  0  0
 14 17  1  0  0  0  0
 17 18  1  0  0  0  0
 18 19  1  0  0  0  0
 18 20  1  0  0  0  0
 18 21  1  0  0  0  0
 22 23  2  0  0  0  0
 22 24  1  0  0  0  0
 24 25  1  0  0  0  0
 24 26  1  0  0  0  0
 26 27  1  0  0  0  0
 26 28  1  0  0  0  0
 26 29  1  0  0  0  0
M  END
$$$$

  -OEChem-04042216023D

 29 28  0     1  0  0  0  0  0999 V2000
   -2.6487   -4.1104    0.5947 H   0  0  0  0  0  0  0  0  0  0  0  0
   -2.6091   -3.1394    0.0929 C   0  0  0  0  0  0  0  0  0  0  0  0
   -3.4659   -2.5422    0.4133 H   0  0  0  0  0  0  0  0  0  0  0  0
   -2.6674   -3.3008   -0.9862 H   0  0  0  0  0  0  0  0  0  0  0  0
   -1.3181   -2.4237    0.4426 C   0  0  0  0  0  0  0  0  0  0  0  0
   -0.5558   -2.9134    1.2556 O   0  0  0  0  0  0  0  0  0  0  0  0
   -1.0306   -1.2095   -0.1499 N   0  0  0  0  0  0  0  0  0  0  0  0
   -1.6443   -0.9403   -0.9123 H   0  0  0  0  0  0  0  0  0  0  0  0
    0.2925   -0.5578   -0.0869 C   0  0  1  0  0  0  0  0  0  0  0  0
    1.0395   -1.2415   -0.4956 H   0  0  0  0  0  0  0  0  0  0  0  0
    0.2110    0.7621   -0.8941 C   0  0  0  0  0  0  0  0  0  0  0  0
   -0.7729    1.2240   -0.7642 H   0  0  0  0  0  0  0  0  0  0  0  0
    0.9400    1.4562   -0.4606 H   0  0  0  0  0  0  0  0  0  0  0  0
    0.5544    0.6852   -2.3968 C   0  0  0  0  0  0  0  0  0  0  0  0
   -0.3692    0.4729   -2.9439 H   0  0  0  0  0  0  0  0  0  0  0  0
    0.9103    1.6648   -2.7320 H   0  0  0  0  0  0  0  0  0  0  0  0
    1.7788   -0.5993   -2.8873 S   0  0  0  0  0  0  0  0  0  0  0  0
    3.2961   -0.0476   -2.0068 C   0  0  0  0  0  0  0  0  0  0  0  0
    3.1394   -0.0539   -0.9241 H   0  0  0  0  0  0  0  0  0  0  0  0
    4.1287   -0.7182   -2.2393 H   0  0  0  0  0  0  0  0  0  0  0  0
    3.5665    0.9664   -2.3154 H   0  0  0  0  0  0  0  0  0  0  0  0
    0.7717   -0.2376    1.3488 C   0  0  0  0  0  0  0  0  0  0  0  0
    1.9711   -0.2240    1.5960 O   0  0  0  0  0  0  0  0  0  0  0  0
   -0.1040    0.3303    2.2567 N   0  0  0  0  0  0  0  0  0  0  0  0
   -1.0894    0.1909    2.0584 H   0  0  0  0  0  0  0  0  0  0  0  0
    0.2909    0.6693    3.6181 C   0  0  0  0  0  0  0  0  0  0  0  0
    1.1119    1.3940    3.6109 H   0  0  0  0  0  0  0  0  0  0  0  0
   -0.5521    1.1110    4.1580 H   0  0  0  0  0  0  0  0  0  0  0  0
    0.6174   -0.2277    4.1550 H   0  0  0  0  0  0  0  0  0  0  0  0
  1  2  1  0  0  0  0
  2  3  1  0  0  0  0
  2  4  1  0  0  0  0
  2  5  1  0  0  0  0
  5  6  2  0  0  0  0
  5  7  1  0  0  0  0
  7  8  1  0  0  0  0
  7  9  1  0  0  0  0
  9 10  1  0  0  0  0
  9 11  1  0  0  0  0
  9 22  1  0  0  0  0
 11 12  1  0  0  0  0
 11 13  1  0  0  0  0
 11 14  1  0  0  0  0
 14 15  1  0  0  0  0
 14 16  1  0  0  0  0
 14 17  1  0  0  0  0
 17 18  1  0  0  0  0
 18 19  1  0  0  0  0
 18 20  1  0  0  0  0
 18 21  1  0  0  0  0
 22 23  2  0  0  0  0
 22 24  1  0  0  0  0
 24 25  1  0  0  0  0
 24 26  1  0  0  0  0
 26 27  1  0  0  0  0
 26 28  1  0  0  0  0
 26 29  1  0  0  0  0
M  END
$$$$

  -OEChem-04042216023D

 29 28  0     1  0  0  0  0  0999 V2000
   -2.7270   -4.0945    0.6171 H   0  0  0  0  0  0  0  0  0  0  0  0
   -2.6562   -3.1350    0.0966 C   0  0  0  0  0  0  0  0  0  0  0  0
   -3.5222   -2.5247    0.3639 H   0  0  0  0  0  0  0  0  0  0  0  0
   -2.6656   -3.3195   -0.9804 H   0  0  0  0  0  0  0  0  0  0  0  0
   -1.3762   -2.4219    0.4898 C   0  0  0  0  0  0  0  0  0  0  0  0
   -0.6510   -2.9065    1.3393 O   0  0  0  0  0  0  0  0  0  0  0  0
   -1.0536   -1.2200   -0.1097 N   0  0  0  0  0  0  0  0  0  0  0  0
   -1.6286   -0.9673   -0.9076 H   0  0  0  0  0  0  0  0  0  0  0  0
    0.2807   -0.5947   -0.0235 C   0  0  1  0  0  0  0  0  0  0  0  0
    1.0250   -1.2972   -0.4027 H   0  0  0  0  0  0  0  0  0  0  0  0
    0.2446    0.7194   -0.8444 C   0  0  0  0  0  0  0  0  0  0  0  0
   -0.7327    1.2006   -0.7349 H   0  0  0  0  0  0  0  0  0  0  0  0
    0.9760    1.4023   -0.3968 H   0  0  0  0  0  0  0  0  0  0  0  0
    0.6162    0.6421   -2.3429 C   0  0  0  0  0  0  0  0  0  0  0  0
   -0.3107    0.7196   -2.9196 H   0  0  0  0  0  0  0  0  0  0  0  0
    1.2296    1.5102   -2.6060 H   0  0  0  0  0  0  0  0  0  0  0  0
    1.4696   -0.8877   -2.9080 S   0  0  0  0  0  0  0  0  0  0  0  0
    3.1546   -0.6513   -2.2097 C   0  0  0  0  0  0  0  0  0  0  0  0
    3.1129   -0.5492   -1.1209 H   0  0  0  0  0  0  0  0  0  0  0  0
    3.7854   -1.5111   -2.4539 H   0  0  0  0  0  0  0  0  0  0  0  0
    3.6143    0.2492   -2.6270 H   0  0  0  0  0  0  0  0  0  0  0  0
    0.7363   -0.2678    1.4181 C   0  0  0  0  0  0  0  0  0  0  0  0
    1.9313   -0.2751    1.6868 O   0  0  0  0  0  0  0  0  0  0  0  0
   -0.1459    0.3283    2.3013 N   0  0  0  0  0  0  0  0  0  0  0  0
   -1.1299    0.2041    2.0859 H   0  0  0  0  0  0  0  0  0  0  0  0
    0.2295    0.6830    3.6643 C   0  0  0  0  0  0  0  0  0  0  0  0
    1.0624    1.3939    3.6605 H   0  0  0  0  0  0  0  0  0  0  0  0
   -0.6155    1.1475    4.1810 H   0  0  0  0  0  0  0  0  0  0  0  0
    0.5310   -0.2099    4.2221 H   0  0  0  0  0  0  0  0  0  0  0  0
  1  2  1  0  0  0  0
  2  3  1  0  0  0  0
  2  4  1  0  0  0  0
  2  5  1  0  0  0  0
  5  6  2  0  0  0  0
  5  7  1  0  0  0  0
  7  8  1  0  0  0  0
  7  9  1  0  0  0  0
  9 10  1  0  0  0  0
  9 11  1  0  0  0  0
  9 22  1  0  0  0  0
 11 12  1  0  0  0  0
 11 13  1  0  0  0  0
 11 14  1  0  0  0  0
 14 15  1  0  0  0  0
 14 16  1  0  0  0  0
 14 17  1  0  0  0  0
 17 18  1  0  0  0  0
 18 19  1  0  0  0  0
 18 20  1  0  0  0  0
 18 21  1  0  0  0  0
 22 23  2  0  0  0  0
 22 24  1  0  0  0  0
 24 25  1  0  0  0  0
 24 26  1  0  0  0  0
 26 27  1  0  0  0  0
 26 28  1  0  0  0  0
 26 29  1  0  0  0  0
M  END
$$$$

  -OEChem-04042216023D

 29 28  0     1  0  0  0  0  0999 V2000
   -2.8081   -4.0561    0.6840 H   0  0  0  0  0  0  0  0  0  0  0  0
   -2.7048   -3.1150    0.1362 C   0  0  0  0  0  0  0  0  0  0  0  0
   -3.5685   -2.4831    0.3565 H   0  0  0  0  0  0  0  0  0  0  0  0
   -2.6832   -3.3331   -0.9345 H   0  0  0  0  0  0  0  0  0  0  0  0
   -1.4262   -2.4096    0.5473 C   0  0  0  0  0  0  0  0  0  0  0  0
   -0.7256   -2.8882    1.4208 O   0  0  0  0  0  0  0  0  0  0  0  0
   -1.0772   -1.2221   -0.0657 N   0  0  0  0  0  0  0  0  0  0  0  0
   -1.6231   -0.9881   -0.8896 H   0  0  0  0  0  0  0  0  0  0  0  0
    0.2645   -0.6147    0.0344 C   0  0  1  0  0  0  0  0  0  0  0  0
    1.0108   -1.3279   -0.3209 H   0  0  0  0  0  0  0  0  0  0  0  0
    0.2667    0.6877   -0.8043 C   0  0  0  0  0  0  0  0  0  0  0  0
   -0.7135    1.1695   -0.7281 H   0  0  0  0  0  0  0  0  0  0  0  0
    0.9853    1.3799   -0.3506 H   0  0  0  0  0  0  0  0  0  0  0  0
    0.6650    0.5773   -2.2944 C   0  0  0  0  0  0  0  0  0  0  0  0
   -0.1740    0.9432   -2.8948 H   0  0  0  0  0  0  0  0  0  0  0  0
    1.5101    1.2462   -2.4884 H   0  0  0  0  0  0  0  0  0  0  0  0
    1.0954   -1.1045   -2.9108 S   0  0  0  0  0  0  0  0  0  0  0  0
    2.8783   -1.2191   -2.4731 C   0  0  0  0  0  0  0  0  0  0  0  0
    3.0244   -1.0695   -1.3990 H   0  0  0  0  0  0  0  0  0  0  0  0
    3.2679   -2.2052   -2.7431 H   0  0  0  0  0  0  0  0  0  0  0  0
    3.4503   -0.4580   -3.0116 H   0  0  0  0  0  0  0  0  0  0  0  0
    0.6967   -0.2726    1.4795 C   0  0  0  0  0  0  0  0  0  0  0  0
    1.8854   -0.2990    1.7735 O   0  0  0  0  0  0  0  0  0  0  0  0
   -0.1930    0.3493    2.3369 N   0  0  0  0  0  0  0  0  0  0  0  0
   -1.1741    0.2408    2.1008 H   0  0  0  0  0  0  0  0  0  0  0  0
    0.1593    0.7075    3.7049 C   0  0  0  0  0  0  0  0  0  0  0  0
    1.0034    1.4052    3.7132 H   0  0  0  0  0  0  0  0  0  0  0  0
   -0.6890    1.1886    4.2010 H   0  0  0  0  0  0  0  0  0  0  0  0
    0.4353   -0.1863    4.2744 H   0  0  0  0  0  0  0  0  0  0  0  0
  1  2  1  0  0  0  0
  2  3  1  0  0  0  0
  2  4  1  0  0  0  0
  2  5  1  0  0  0  0
  5  6  2  0  0  0  0
  5  7  1  0  0  0  0
  7  8  1  0  0  0  0
  7  9  1  0  0  0  0
  9 10  1  0  0  0  0
  9 11  1  0  0  0  0
  9 22  1  0  0  0  0
 11 12  1  0  0  0  0
 11 13  1  0  0  0  0
 11 14  1  0  0  0  0
 14 15  1  0  0  0  0
 14 16  1  0  0  0  0
 14 17  1  0  0  0  0
 17 18  1  0  0  0  0
 18 19  1  0  0  0  0
 18 20  1  0  0  0  0
 18 21  1  0  0  0  0
 22 23  2  0  0  0  0
 22 24  1  0  0  0  0
 24 25  1  0  0  0  0
 24 26  1  0  0  0  0
 26 27  1  0  0  0  0
 26 28  1  0  0  0  0
 26 29  1  0  0  0  0
M  END
$$$$

  -OEChem-04042216023D

 29 28  0     1  0  0  0  0  0999 V2000
   -2.1930   -3.9717   -0.3969 H   0  0  0  0  0  0  0  0  0  0  0  0
   -2.5473   -2.9400   -0.4764 C   0  0  0  0  0  0  0  0  0  0  0  0
   -3.5534   -2.8779   -0.0553 H   0  0  0  0  0  0  0  0  0  0  0  0
   -2.5806   -2.6627   -1.5326 H   0  0  0  0  0  0  0  0  0  0  0  0
   -1.6111   -2.0112    0.2719 C   0  0  0  0  0  0  0  0  0  0  0  0
   -0.8009   -2.4692    1.0579 O   0  0  0  0  0  0  0  0  0  0  0  0
   -1.8606   -0.6559    0.3014 N   0  0  0  0  0  0  0  0  0  0  0  0
   -2.7194   -0.4148   -0.1824 H   0  0  0  0  0  0  0  0  0  0  0  0
   -0.8055    0.3762    0.1934 C   0  0  1  0  0  0  0  0  0  0  0  0
   -1.3388    1.2947    0.4559 H   0  0  0  0  0  0  0  0  0  0  0  0
   -0.3556    0.6297   -1.2727 C   0  0  0  0  0  0  0  0  0  0  0  0
   -1.2354    0.4958   -1.9091 H   0  0  0  0  0  0  0  0  0  0  0  0
   -0.0779    1.6867   -1.3446 H   0  0  0  0  0  0  0  0  0  0  0  0
    0.8012   -0.1706   -1.9175 C   0  0  0  0  0  0  0  0  0  0  0  0
    0.5363   -0.4104   -2.9519 H   0  0  0  0  0  0  0  0  0  0  0  0
    1.6710    0.4941   -1.9520 H   0  0  0  0  0  0  0  0  0  0  0  0
    1.3515   -1.7060   -1.0773 S   0  0  0  0  0  0  0  0  0  0  0  0
    2.9427   -2.0497   -1.9228 C   0  0  0  0  0  0  0  0  0  0  0  0
    2.7849   -2.1681   -2.9986 H   0  0  0  0  0  0  0  0  0  0  0  0
    3.3839   -2.9700   -1.5286 H   0  0  0  0  0  0  0  0  0  0  0  0
    3.6439   -1.2268   -1.7553 H   0  0  0  0  0  0  0  0  0  0  0  0
    0.3098    0.3720    1.2686 C   0  0  0  0  0  0  0  0  0  0  0  0
    1.4011    0.8764    1.0243 O   0  0  0  0  0  0  0  0  0  0  0  0
   -0.0546    0.2167    2.5926 N   0  0  0  0  0  0  0  0  0  0  0  0
   -0.8695   -0.3785    2.7220 H   0  0  0  0  0  0  0  0  0  0  0  0
    0.9223    0.2645    3.6730 C   0  0  0  0  0  0  0  0  0  0  0  0
    1.4024    1.2477    3.7145 H   0  0  0  0  0  0  0  0  0  0  0  0
    0.4314    0.0812    4.6334 H   0  0  0  0  0  0  0  0  0  0  0  0
    1.6938   -0.4984    3.5248 H   0  0  0  0  0  0  0  0  0  0  0  0
  1  2  1  0  0  0  0
  2  3  1  0  0  0  0
  2  4  1  0  0  0  0
  2  5  1  0  0  0  0
  5  6  2  0  0  0  0
  5  7  1  0  0  0  0
  7  8  1  0  0  0  0
  7  9  1  0  0  0  0
  9 10  1  0  0  0  0
  9 11  1  0  0  0  0
  9 22  1  0  0  0  0
 11 12  1  0  0  0  0
 11 13  1  0  0  0  0
 11 14  1  0  0  0  0
 14 15  1  0  0  0  0
 14 16  1  0  0  0  0
 14 17  1  0  0  0  0
 17 18  1  0  0  0  0
 18 19  1  0  0  0  0
 18 20  1  0  0  0  0
 18 21  1  0  0  0  0
 22 23  2  0  0  0  0
 22 24  1  0  0  0  0
 24 25  1  0  0  0  0
 24 26  1  0  0  0  0
 26 27  1  0  0  0  0
 26 28  1  0  0  0  0
 26 29  1  0  0  0  0
M  END
$$$$

  -OEChem-04042216023D

 29 28  0     1  0  0  0  0  0999 V2000
   -2.7967   -3.7217   -0.3296 H   0  0  0  0  0  0  0  0  0  0  0  0
   -2.9940   -2.6481   -0.3980 C   0  0  0  0  0  0  0  0  0  0  0  0
   -3.9296   -2.4262    0.1208 H   0  0  0  0  0  0  0  0  0  0  0  0
   -3.0928   -2.3778   -1.4521 H   0  0  0  0  0  0  0  0  0  0  0  0
   -1.8519   -1.8715    0.2285 C   0  0  0  0  0  0  0  0  0  0  0  0
   -1.0163   -2.4523    0.8998 O   0  0  0  0  0  0  0  0  0  0  0  0
   -1.9044   -0.4956    0.2977 N   0  0  0  0  0  0  0  0  0  0  0  0
   -2.7691   -0.1289   -0.0869 H   0  0  0  0  0  0  0  0  0  0  0  0
   -0.7357    0.3891    0.0882 C   0  0  1  0  0  0  0  0  0  0  0  0
   -1.1119    1.3582    0.4301 H   0  0  0  0  0  0  0  0  0  0  0  0
   -0.3846    0.6611   -1.4030 C   0  0  0  0  0  0  0  0  0  0  0  0
   -1.3284    0.6655   -1.9562 H   0  0  0  0  0  0  0  0  0  0  0  0
    0.0206    1.6767   -1.4638 H   0  0  0  0  0  0  0  0  0  0  0  0
    0.5914   -0.2473   -2.1837 C   0  0  0  0  0  0  0  0  0  0  0  0
    0.3606   -0.1848   -3.2515 H   0  0  0  0  0  0  0  0  0  0  0  0
    1.5967    0.1660   -2.0502 H   0  0  0  0  0  0  0  0  0  0  0  0
    0.6655   -2.0136   -1.6967 S   0  0  0  0  0  0  0  0  0  0  0  0
    2.4482   -2.2584   -1.3331 C   0  0  0  0  0  0  0  0  0  0  0  0
    3.0513   -2.0363   -2.2178 H   0  0  0  0  0  0  0  0  0  0  0  0
    2.6297   -3.2948   -1.0343 H   0  0  0  0  0  0  0  0  0  0  0  0
    2.7636   -1.6015   -0.5172 H   0  0  0  0  0  0  0  0  0  0  0  0
    0.4652    0.1928    1.0466 C   0  0  0  0  0  0  0  0  0  0  0  0
    1.5999    0.4922    0.6900 O   0  0  0  0  0  0  0  0  0  0  0  0
    0.2190    0.0488    2.3987 N   0  0  0  0  0  0  0  0  0  0  0  0
   -0.6704   -0.3991    2.6070 H   0  0  0  0  0  0  0  0  0  0  0  0
    1.2958   -0.1058    3.3684 C   0  0  0  0  0  0  0  0  0  0  0  0
    1.9500    0.7724    3.3603 H   0  0  0  0  0  0  0  0  0  0  0  0
    0.8833   -0.2173    4.3754 H   0  0  0  0  0  0  0  0  0  0  0  0
    1.8937   -0.9935    3.1364 H   0  0  0  0  0  0  0  0  0  0  0  0
  1  2  1  0  0  0  0
  2  3  1  0  0  0  0
  2  4  1  0  0  0  0
  2  5  1  0  0  0  0
  5  6  2  0  0  0  0
  5  7  1  0  0  0  0
  7  8  1  0  0  0  0
  7  9  1  0  0  0  0
  9 10  1  0  0  0  0
  9 11  1  0  0  0  0
  9 22  1  0  0  0  0
 11 12  1  0  0  0  0
 11 13  1  0  0  0  0
 11 14  1  0  0  0  0
 14 15  1  0  0  0  0
 14 16  1  0  0  0  0
 14 17  1  0  0  0  0
 17 18  1  0  0  0  0
 18 19  1  0  0  0  0
 18 20  1  0  0  0  0
 18 21  1  0  0  0  0
 22 23  2  0  0  0  0
 22 24  1  0  0  0  0
 24 25  1  0  0  0  0
 24 26  1  0  0  0  0
 26 27  1  0  0  0  0
 26 28  1  0  0  0  0
 26 29  1  0  0  0  0
M  END
$$$$

  -OEChem-04042216023D

 29 28  0     1  0  0  0  0  0999 V2000
   -2.9304   -3.9419    0.9245 H   0  0  0  0  0  0  0  0  0  0  0  0
   -2.8021   -3.0338    0.3285 C   0  0  0  0  0  0  0  0  0  0  0  0
   -3.6531   -2.3724    0.5068 H   0  0  0  0  0  0  0  0  0  0  0  0
   -2.7771   -3.3080   -0.7291 H   0  0  0  0  0  0  0  0  0  0  0  0
   -1.5118   -2.3350    0.7125 C   0  0  0  0  0  0  0  0  0  0  0  0
   -0.8031   -2.8070    1.5832 O   0  0  0  0  0  0  0  0  0  0  0  0
   -1.1509   -1.1715    0.0634 N   0  0  0  0  0  0  0  0  0  0  0  0
   -1.6924   -0.9648   -0.7726 H   0  0  0  0  0  0  0  0  0  0  0  0
    0.2057   -0.5930    0.1155 C   0  0  1  0  0  0  0  0  0  0  0  0
    0.9220   -1.3305   -0.2621 H   0  0  0  0  0  0  0  0  0  0  0  0
    0.2474    0.6673   -0.7765 C   0  0  0  0  0  0  0  0  0  0  0  0
   -0.7292    1.1615   -0.7517 H   0  0  0  0  0  0  0  0  0  0  0  0
    0.9762    1.3793   -0.3737 H   0  0  0  0  0  0  0  0  0  0  0  0
    0.6397    0.3828   -2.2354 C   0  0  0  0  0  0  0  0  0  0  0  0
    0.4290    1.2667   -2.8456 H   0  0  0  0  0  0  0  0  0  0  0  0
    1.7191    0.2040   -2.2809 H   0  0  0  0  0  0  0  0  0  0  0  0
   -0.2354   -1.0740   -2.9495 S   0  0  0  0  0  0  0  0  0  0  0  0
    1.1499   -2.2377   -3.2666 C   0  0  0  0  0  0  0  0  0  0  0  0
    1.6767   -2.4671   -2.3355 H   0  0  0  0  0  0  0  0  0  0  0  0
    0.7666   -3.1712   -3.6890 H   0  0  0  0  0  0  0  0  0  0  0  0
    1.8598   -1.7991   -3.9741 H   0  0  0  0  0  0  0  0  0  0  0  0
    0.6859   -0.2251    1.5380 C   0  0  0  0  0  0  0  0  0  0  0  0
    1.8800   -0.2824    1.8037 O   0  0  0  0  0  0  0  0  0  0  0  0
   -0.1650    0.4386    2.4031 N   0  0  0  0  0  0  0  0  0  0  0  0
   -1.1539    0.3591    2.1880 H   0  0  0  0  0  0  0  0  0  0  0  0
    0.2261    0.7997    3.7597 C   0  0  0  0  0  0  0  0  0  0  0  0
    1.0773    1.4885    3.7435 H   0  0  0  0  0  0  0  0  0  0  0  0
   -0.6043    1.2913    4.2754 H   0  0  0  0  0  0  0  0  0  0  0  0
    0.5069   -0.0946    4.3263 H   0  0  0  0  0  0  0  0  0  0  0  0
  1  2  1  0  0  0  0
  2  3  1  0  0  0  0
  2  4  1  0  0  0  0
  2  5  1  0  0  0  0
  5  6  2  0  0  0  0
  5  7  1  0  0  0  0
  7  8  1  0  0  0  0
  7  9  1  0  0  0  0
  9 10  1  0  0  0  0
  9 11  1  0  0  0  0
  9 22  1  0  0  0  0
 11 12  1  0  0  0  0
 11 13  1  0  0  0  0
 11 14  1  0  0  0  0
 14 15  1  0  0  0  0
 14 16  1  0  0  0  0
 14 17  1  0  0  0  0
 17 18  1  0  0  0  0
 18 19  1  0  0  0  0
 18 20  1  0  0  0  0
 18 21  1  0  0  0  0
 22 23  2  0  0  0  0
 22 24  1  0  0  0  0
 24 25  1  0  0  0  0
 24 26  1  0  0  0  0
 26 27  1  0  0  0  0
 26 28  1  0  0  0  0
 26 29  1  0  0  0  0
M  END
$$$$

  -OEChem-04042216023D

 29 28  0     1  0  0  0  0  0999 V2000
   -2.8850   -3.9569    0.8938 H   0  0  0  0  0  0  0  0  0  0  0  0
   -2.7824   -3.0311    0.3206 C   0  0  0  0  0  0  0  0  0  0  0  0
   -3.6202   -2.3727    0.5622 H   0  0  0  0  0  0  0  0  0  0  0  0
   -2.8118   -3.2720   -0.7450 H   0  0  0  0  0  0  0  0  0  0  0  0
   -1.4710   -2.3491    0.6609 C   0  0  0  0  0  0  0  0  0  0  0  0
   -0.7165   -2.8549    1.4719 O   0  0  0  0  0  0  0  0  0  0  0  0
   -1.1375   -1.1660    0.0333 N   0  0  0  0  0  0  0  0  0  0  0  0
   -1.7204   -0.9194   -0.7640 H   0  0  0  0  0  0  0  0  0  0  0  0
    0.2111   -0.5691    0.0660 C   0  0  1  0  0  0  0  0  0  0  0  0
    0.9288   -1.2854   -0.3474 H   0  0  0  0  0  0  0  0  0  0  0  0
    0.2040    0.7101   -0.7975 C   0  0  0  0  0  0  0  0  0  0  0  0
   -0.7724    1.2015   -0.7351 H   0  0  0  0  0  0  0  0  0  0  0  0
    0.9452    1.4156   -0.4052 H   0  0  0  0  0  0  0  0  0  0  0  0
    0.5623    0.4412   -2.2653 C   0  0  0  0  0  0  0  0  0  0  0  0
    0.5485    1.3876   -2.8154 H   0  0  0  0  0  0  0  0  0  0  0  0
    1.5786    0.0387   -2.3301 H   0  0  0  0  0  0  0  0  0  0  0  0
   -0.6245   -0.7261   -3.0550 S   0  0  0  0  0  0  0  0  0  0  0  0
    0.3980   -2.2364   -3.2784 C   0  0  0  0  0  0  0  0  0  0  0  0
    0.7479   -2.6096   -2.3114 H   0  0  0  0  0  0  0  0  0  0  0  0
   -0.1926   -3.0207   -3.7611 H   0  0  0  0  0  0  0  0  0  0  0  0
    1.2669   -2.0173   -3.9063 H   0  0  0  0  0  0  0  0  0  0  0  0
    0.7208   -0.2277    1.4846 C   0  0  0  0  0  0  0  0  0  0  0  0
    1.9210   -0.2795    1.7215 O   0  0  0  0  0  0  0  0  0  0  0  0
   -0.1173    0.4030    2.3860 N   0  0  0  0  0  0  0  0  0  0  0  0
   -1.1103    0.3298    2.1889 H   0  0  0  0  0  0  0  0  0  0  0  0
    0.3044    0.7576    3.7351 C   0  0  0  0  0  0  0  0  0  0  0  0
    1.1483    1.4548    3.7022 H   0  0  0  0  0  0  0  0  0  0  0  0
   -0.5173    1.2377    4.2750 H   0  0  0  0  0  0  0  0  0  0  0  0
    0.6082   -0.1377    4.2879 H   0  0  0  0  0  0  0  0  0  0  0  0
  1  2  1  0  0  0  0
  2  3  1  0  0  0  0
  2  4  1  0  0  0  0
  2  5  1  0  0  0  0
  5  6  2  0  0  0  0
  5  7  1  0  0  0  0
  7  8  1  0  0  0  0
  7  9  1  0  0  0  0
  9 10  1  0  0  0  0
  9 11  1  0  0  0  0
  9 22  1  0  0  0  0
 11 12  1  0  0  0  0
 11 13  1  0  0  0  0
 11 14  1  0  0  0  0
 14 15  1  0  0  0  0
 14 16  1  0  0  0  0
 14 17  1  0  0  0  0
 17 18  1  0  0  0  0
 18 19  1  0  0  0  0
 18 20  1  0  0  0  0
 18 21  1  0  0  0  0
 22 23  2  0  0  0  0
 22 24  1  0  0  0  0
 24 25  1  0  0  0  0
 24 26  1  0  0  0  0
 26 27  1  0  0  0  0
 26 28  1  0  0  0  0
 26 29  1  0  0  0  0
M  END
$$$$

  -OEChem-04042216023D

 29 28  0     1  0  0  0  0  0999 V2000
   -2.8620   -3.9670    0.8467 H   0  0  0  0  0  0  0  0  0  0  0  0
   -2.7942   -3.0007    0.3387 C   0  0  0  0  0  0  0  0  0  0  0  0
   -3.6018   -2.3573    0.6960 H   0  0  0  0  0  0  0  0  0  0  0  0
   -2.9118   -3.1601   -0.7359 H   0  0  0  0  0  0  0  0  0  0  0  0
   -1.4519   -2.3546    0.6245 C   0  0  0  0  0  0  0  0  0  0  0  0
   -0.6647   -2.8971    1.3783 O   0  0  0  0  0  0  0  0  0  0  0  0
   -1.1274   -1.1596    0.0159 N   0  0  0  0  0  0  0  0  0  0  0  0
   -1.7516   -0.8595   -0.7302 H   0  0  0  0  0  0  0  0  0  0  0  0
    0.2185   -0.5573    0.0359 C   0  0  1  0  0  0  0  0  0  0  0  0
    0.9318   -1.2617   -0.4059 H   0  0  0  0  0  0  0  0  0  0  0  0
    0.1688    0.7343   -0.8053 C   0  0  0  0  0  0  0  0  0  0  0  0
   -0.8037    1.2282   -0.7090 H   0  0  0  0  0  0  0  0  0  0  0  0
    0.9232    1.4327   -0.4254 H   0  0  0  0  0  0  0  0  0  0  0  0
    0.4957    0.4700   -2.2786 C   0  0  0  0  0  0  0  0  0  0  0  0
    0.6906    1.4256   -2.7760 H   0  0  0  0  0  0  0  0  0  0  0  0
    1.4007   -0.1392   -2.3729 H   0  0  0  0  0  0  0  0  0  0  0  0
   -0.9314   -0.3414   -3.1108 S   0  0  0  0  0  0  0  0  0  0  0  0
   -0.2746   -2.0327   -3.4008 C   0  0  0  0  0  0  0  0  0  0  0  0
    0.0027   -2.5038   -2.4530 H   0  0  0  0  0  0  0  0  0  0  0  0
   -1.0320   -2.6516   -3.8909 H   0  0  0  0  0  0  0  0  0  0  0  0
    0.6100   -1.9898   -4.0434 H   0  0  0  0  0  0  0  0  0  0  0  0
    0.7523   -0.2396    1.4511 C   0  0  0  0  0  0  0  0  0  0  0  0
    1.9561   -0.2933    1.6670 O   0  0  0  0  0  0  0  0  0  0  0  0
   -0.0722    0.3706    2.3788 N   0  0  0  0  0  0  0  0  0  0  0  0
   -1.0681    0.3046    2.1950 H   0  0  0  0  0  0  0  0  0  0  0  0
    0.3710    0.7058    3.7260 C   0  0  0  0  0  0  0  0  0  0  0  0
    1.2198    1.3968    3.6906 H   0  0  0  0  0  0  0  0  0  0  0  0
   -0.4394    1.1858    4.2826 H   0  0  0  0  0  0  0  0  0  0  0  0
    0.6749   -0.1983    4.2640 H   0  0  0  0  0  0  0  0  0  0  0  0
  1  2  1  0  0  0  0
  2  3  1  0  0  0  0
  2  4  1  0  0  0  0
  2  5  1  0  0  0  0
  5  6  2  0  0  0  0
  5  7  1  0  0  0  0
  7  8  1  0  0  0  0
  7  9  1  0  0  0  0
  9 10  1  0  0  0  0
  9 11  1  0  0  0  0
  9 22  1  0  0  0  0
 11 12  1  0  0  0  0
 11 13  1  0  0  0  0
 11 14  1  0  0  0  0
 14 15  1  0  0  0  0
 14 16  1  0  0  0  0
 14 17  1  0  0  0  0
 17 18  1  0  0  0  0
 18 19  1  0  0  0  0
 18 20  1  0  0  0  0
 18 21  1  0  0  0  0
 22 23  2  0  0  0  0
 22 24  1  0  0  0  0
 24 25  1  0  0  0  0
 24 26  1  0  0  0  0
 26 27  1  0  0  0  0
 26 28  1  0  0  0  0
 26 29  1  0  0  0  0
M  END
$$$$

  -OEChem-04042216023D

 29 28  0     1  0  0  0  0  0999 V2000
   -2.9015   -3.9268    0.9356 H   0  0  0  0  0  0  0  0  0  0  0  0
   -2.8119   -2.9846    0.3875 C   0  0  0  0  0  0  0  0  0  0  0  0
   -3.6014   -2.3070    0.7212 H   0  0  0  0  0  0  0  0  0  0  0  0
   -2.9393   -3.1851   -0.6792 H   0  0  0  0  0  0  0  0  0  0  0  0
   -1.4523   -2.3611    0.6399 C   0  0  0  0  0  0  0  0  0  0  0  0
   -0.6476   -2.9265    1.3575 O   0  0  0  0  0  0  0  0  0  0  0  0
   -1.1307   -1.1612    0.0390 N   0  0  0  0  0  0  0  0  0  0  0  0
   -1.7881   -0.8181   -0.6582 H   0  0  0  0  0  0  0  0  0  0  0  0
    0.2171   -0.5634    0.0398 C   0  0  1  0  0  0  0  0  0  0  0  0
    0.9213   -1.2625   -0.4244 H   0  0  0  0  0  0  0  0  0  0  0  0
    0.1325    0.7375   -0.7814 C   0  0  0  0  0  0  0  0  0  0  0  0
   -0.8309    1.2394   -0.6423 H   0  0  0  0  0  0  0  0  0  0  0  0
    0.9041    1.4257   -0.4183 H   0  0  0  0  0  0  0  0  0  0  0  0
    0.4188    0.4860   -2.2648 C   0  0  0  0  0  0  0  0  0  0  0  0
    0.8332    1.3978   -2.7071 H   0  0  0  0  0  0  0  0  0  0  0  0
    1.1584   -0.3088   -2.4058 H   0  0  0  0  0  0  0  0  0  0  0  0
   -1.1601    0.0957   -3.1224 S   0  0  0  0  0  0  0  0  0  0  0  0
   -0.8442   -1.6229   -3.6881 C   0  0  0  0  0  0  0  0  0  0  0  0
   -0.6341   -2.2728   -2.8331 H   0  0  0  0  0  0  0  0  0  0  0  0
   -1.7189   -2.0118   -4.2180 H   0  0  0  0  0  0  0  0  0  0  0  0
    0.0138   -1.6469   -4.3667 H   0  0  0  0  0  0  0  0  0  0  0  0
    0.7797   -0.2614    1.4474 C   0  0  0  0  0  0  0  0  0  0  0  0
    1.9871   -0.3220    1.6396 O   0  0  0  0  0  0  0  0  0  0  0  0
   -0.0245    0.3422    2.3970 N   0  0  0  0  0  0  0  0  0  0  0  0
   -1.0240    0.2868    2.2308 H   0  0  0  0  0  0  0  0  0  0  0  0
    0.4466    0.6676    3.7370 C   0  0  0  0  0  0  0  0  0  0  0  0
    1.2857    1.3697    3.6895 H   0  0  0  0  0  0  0  0  0  0  0  0
   -0.3565    1.1306    4.3179 H   0  0  0  0  0  0  0  0  0  0  0  0
    0.7744   -0.2388    4.2568 H   0  0  0  0  0  0  0  0  0  0  0  0
  1  2  1  0  0  0  0
  2  3  1  0  0  0  0
  2  4  1  0  0  0  0
  2  5  1  0  0  0  0
  5  6  2  0  0  0  0
  5  7  1  0  0  0  0
  7  8  1  0  0  0  0
  7  9  1  0  0  0  0
  9 10  1  0  0  0  0
  9 11  1  0  0  0  0
  9 22  1  0  0  0  0
 11 12  1  0  0  0  0
 11 13  1  0  0  0  0
 11 14  1  0  0  0  0
 14 15  1  0  0  0  0
 14 16  1  0  0  0  0
 14 17  1  0  0  0  0
 17 18  1  0  0  0  0
 18 19  1  0  0  0  0
 18 20  1  0  0  0  0
 18 21  1  0  0  0  0
 22 23  2  0  0  0  0
 22 24  1  0  0  0  0
 24 25  1  0  0  0  0
 24 26  1  0  0  0  0
 26 27  1  0  0  0  0
 26 28  1  0  0  0  0
 26 29  1  0  0  0  0
M  END
$$$$

  -OEChem-04042216023D

 29 28  0     1  0  0  0  0  0999 V2000
   -2.9719   -3.9661    1.6225 H   0  0  0  0  0  0  0  0  0  0  0  0
   -2.9097   -3.0842    0.9784 C   0  0  0  0  0  0  0  0  0  0  0  0
   -3.6653   -2.3619    1.2962 H   0  0  0  0  0  0  0  0  0  0  0  0
   -3.1137   -3.3859   -0.0518 H   0  0  0  0  0  0  0  0  0  0  0  0
   -1.5280   -2.4655    1.0730 C   0  0  0  0  0  0  0  0  0  0  0  0
   -0.6906   -2.9577    1.8072 O   0  0  0  0  0  0  0  0  0  0  0  0
   -1.2296   -1.3464    0.3223 N   0  0  0  0  0  0  0  0  0  0  0  0
   -1.9235   -1.0730   -0.3698 H   0  0  0  0  0  0  0  0  0  0  0  0
    0.1227   -0.7760    0.1823 C   0  0  1  0  0  0  0  0  0  0  0  0
    0.7949   -1.5320   -0.2377 H   0  0  0  0  0  0  0  0  0  0  0  0
    0.0027    0.4324   -0.7657 C   0  0  0  0  0  0  0  0  0  0  0  0
   -0.9437    0.9632   -0.6163 H   0  0  0  0  0  0  0  0  0  0  0  0
    0.8013    1.1421   -0.5217 H   0  0  0  0  0  0  0  0  0  0  0  0
    0.1952    0.0317   -2.2341 C   0  0  0  0  0  0  0  0  0  0  0  0
    0.8396    0.7671   -2.7269 H   0  0  0  0  0  0  0  0  0  0  0  0
    0.6793   -0.9455   -2.3292 H   0  0  0  0  0  0  0  0  0  0  0  0
   -1.4392    0.0225   -3.0739 S   0  0  0  0  0  0  0  0  0  0  0  0
   -0.9544   -0.4195   -4.7884 C   0  0  0  0  0  0  0  0  0  0  0  0
   -0.4694   -1.4001   -4.8056 H   0  0  0  0  0  0  0  0  0  0  0  0
   -1.8384   -0.4549   -5.4320 H   0  0  0  0  0  0  0  0  0  0  0  0
   -0.2598    0.3245   -5.1894 H   0  0  0  0  0  0  0  0  0  0  0  0
    0.7628   -0.3284    1.5163 C   0  0  0  0  0  0  0  0  0  0  0  0
    1.9782   -0.3849    1.6519 O   0  0  0  0  0  0  0  0  0  0  0  0
    0.0157    0.3911    2.4313 N   0  0  0  0  0  0  0  0  0  0  0  0
   -0.9917    0.3327    2.3237 H   0  0  0  0  0  0  0  0  0  0  0  0
    0.5600    0.8628    3.6981 C   0  0  0  0  0  0  0  0  0  0  0  0
    1.4012    1.5425    3.5255 H   0  0  0  0  0  0  0  0  0  0  0  0
   -0.2073    1.4019    4.2619 H   0  0  0  0  0  0  0  0  0  0  0  0
    0.9076    0.0183    4.3025 H   0  0  0  0  0  0  0  0  0  0  0  0
  1  2  1  0  0  0  0
  2  3  1  0  0  0  0
  2  4  1  0  0  0  0
  2  5  1  0  0  0  0
  5  6  2  0  0  0  0
  5  7  1  0  0  0  0
  7  8  1  0  0  0  0
  7  9  1  0  0  0  0
  9 10  1  0  0  0  0
  9 11  1  0  0  0  0
  9 22  1  0  0  0  0
 11 12  1  0  0  0  0
 11 13  1  0  0  0  0
 11 14  1  0  0  0  0
 14 15  1  0  0  0  0
 14 16  1  0  0  0  0
 14 17  1  0  0  0  0
 17 18  1  0  0  0  0
 18 19  1  0  0  0  0
 18 20  1  0  0  0  0
 18 21  1  0  0  0  0
 22 23  2  0  0  0  0
 22 24  1  0  0  0  0
 24 25  1  0  0  0  0
 24 26  1  0  0  0  0
 26 27  1  0  0  0  0
 26 28  1  0  0  0  0
 26 29  1  0  0  0  0
M  END
$$$$

  -OEChem-04042216023D

 29 28  0     1  0  0  0  0  0999 V2000
   -2.8305   -4.0852    1.5985 H   0  0  0  0  0  0  0  0  0  0  0  0
   -2.8444   -3.1649    1.0073 C   0  0  0  0  0  0  0  0  0  0  0  0
   -3.5838   -2.4834    1.4348 H   0  0  0  0  0  0  0  0  0  0  0  0
   -3.1334   -3.4108   -0.0175 H   0  0  0  0  0  0  0  0  0  0  0  0
   -1.4722   -2.5178    1.0189 C   0  0  0  0  0  0  0  0  0  0  0  0
   -0.5657   -3.0294    1.6504 O   0  0  0  0  0  0  0  0  0  0  0  0
   -1.2585   -1.3508    0.3129 N   0  0  0  0  0  0  0  0  0  0  0  0
   -2.0185   -1.0399   -0.2870 H   0  0  0  0  0  0  0  0  0  0  0  0
    0.0632   -0.7249    0.1203 C   0  0  1  0  0  0  0  0  0  0  0  0
    0.7315   -1.4362   -0.3772 H   0  0  0  0  0  0  0  0  0  0  0  0
   -0.1411    0.5241   -0.7585 C   0  0  0  0  0  0  0  0  0  0  0  0
   -1.1010    0.9998   -0.5318 H   0  0  0  0  0  0  0  0  0  0  0  0
    0.6358    1.2592   -0.5196 H   0  0  0  0  0  0  0  0  0  0  0  0
   -0.0199    0.2034   -2.2558 C   0  0  0  0  0  0  0  0  0  0  0  0
    0.7962    0.7909   -2.6899 H   0  0  0  0  0  0  0  0  0  0  0  0
    0.2104   -0.8538   -2.4215 H   0  0  0  0  0  0  0  0  0  0  0  0
   -1.5940    0.6213   -3.1063 S   0  0  0  0  0  0  0  0  0  0  0  0
   -1.1692    0.2349   -4.8502 C   0  0  0  0  0  0  0  0  0  0  0  0
   -0.9015   -0.8210   -4.9517 H   0  0  0  0  0  0  0  0  0  0  0  0
   -2.0244    0.4431   -5.5000 H   0  0  0  0  0  0  0  0  0  0  0  0
   -0.3233    0.8461   -5.1791 H   0  0  0  0  0  0  0  0  0  0  0  0
    0.7726   -0.3245    1.4343 C   0  0  0  0  0  0  0  0  0  0  0  0
    1.9953   -0.3467    1.4906 O   0  0  0  0  0  0  0  0  0  0  0  0
    0.0652    0.3190    2.4338 N   0  0  0  0  0  0  0  0  0  0  0  0
   -0.9453    0.2409    2.3853 H   0  0  0  0  0  0  0  0  0  0  0  0
    0.6772    0.7407    3.6875 C   0  0  0  0  0  0  0  0  0  0  0  0
    1.4716    1.4709    3.4999 H   0  0  0  0  0  0  0  0  0  0  0  0
   -0.0714    1.2054    4.3362 H   0  0  0  0  0  0  0  0  0  0  0  0
    1.1060   -0.1197    4.2124 H   0  0  0  0  0  0  0  0  0  0  0  0
  1  2  1  0  0  0  0
  2  3  1  0  0  0  0
  2  4  1  0  0  0  0
  2  5  1  0  0  0  0
  5  6  2  0  0  0  0
  5  7  1  0  0  0  0
  7  8  1  0  0  0  0
  7  9  1  0  0  0  0
  9 10  1  0  0  0  0
  9 11  1  0  0  0  0
  9 22  1  0  0  0  0
 11 12  1  0  0  0  0
 11 13  1  0  0  0  0
 11 14  1  0  0  0  0
 14 15  1  0  0  0  0
 14 16  1  0  0  0  0
 14 17  1  0  0  0  0
 17 18  1  0  0  0  0
 18 19  1  0  0  0  0
 18 20  1  0  0  0  0
 18 21  1  0  0  0  0
 22 23  2  0  0  0  0
 22 24  1  0  0  0  0
 24 25  1  0  0  0  0
 24 26  1  0  0  0  0
 26 27  1  0  0  0  0
 26 28  1  0  0  0  0
 26 29  1  0  0  0  0
M  END
$$$$

  -OEChem-04042216023D

 29 28  0     1  0  0  0  0  0999 V2000
   -2.6864   -4.0714    0.6348 H   0  0  0  0  0  0  0  0  0  0  0  0
   -2.6470   -3.0913    0.1507 C   0  0  0  0  0  0  0  0  0  0  0  0
   -3.4449   -2.4660    0.5585 H   0  0  0  0  0  0  0  0  0  0  0  0
   -2.8068   -3.2244   -0.9221 H   0  0  0  0  0  0  0  0  0  0  0  0
   -1.2985   -2.4417    0.3998 C   0  0  0  0  0  0  0  0  0  0  0  0
   -0.4701   -3.0088    1.0875 O   0  0  0  0  0  0  0  0  0  0  0  0
   -1.0158   -1.2100   -0.1575 N   0  0  0  0  0  0  0  0  0  0  0  0
   -1.7100   -0.8257   -0.7903 H   0  0  0  0  0  0  0  0  0  0  0  0
    0.2998   -0.5455   -0.0824 C   0  0  1  0  0  0  0  0  0  0  0  0
    1.0579   -1.2016   -0.5248 H   0  0  0  0  0  0  0  0  0  0  0  0
    0.2222    0.7727   -0.8779 C   0  0  0  0  0  0  0  0  0  0  0  0
   -0.7806    1.2024   -0.7880 H   0  0  0  0  0  0  0  0  0  0  0  0
    0.9167    1.5055   -0.4515 H   0  0  0  0  0  0  0  0  0  0  0  0
    0.6038    0.5745   -2.3528 C   0  0  0  0  0  0  0  0  0  0  0  0
    1.6150    0.9602   -2.5209 H   0  0  0  0  0  0  0  0  0  0  0  0
    0.6101   -0.4879   -2.6168 H   0  0  0  0  0  0  0  0  0  0  0  0
   -0.5814    1.4437   -3.4576 S   0  0  0  0  0  0  0  0  0  0  0  0
   -2.0622    0.3590   -3.4128 C   0  0  0  0  0  0  0  0  0  0  0  0
   -2.4981    0.3477   -2.4105 H   0  0  0  0  0  0  0  0  0  0  0  0
   -2.8153    0.7287   -4.1154 H   0  0  0  0  0  0  0  0  0  0  0  0
   -1.7922   -0.6627   -3.6964 H   0  0  0  0  0  0  0  0  0  0  0  0
    0.7846   -0.2551    1.3572 C   0  0  0  0  0  0  0  0  0  0  0  0
    1.9832   -0.2701    1.6040 O   0  0  0  0  0  0  0  0  0  0  0  0
   -0.0859    0.2816    2.2888 N   0  0  0  0  0  0  0  0  0  0  0  0
   -1.0748    0.2061    2.0757 H   0  0  0  0  0  0  0  0  0  0  0  0
    0.3180    0.6105    3.6505 C   0  0  0  0  0  0  0  0  0  0  0  0
    1.1299    1.3455    3.6437 H   0  0  0  0  0  0  0  0  0  0  0  0
   -0.5252    1.0356    4.2031 H   0  0  0  0  0  0  0  0  0  0  0  0
    0.6611   -0.2875    4.1752 H   0  0  0  0  0  0  0  0  0  0  0  0
  1  2  1  0  0  0  0
  2  3  1  0  0  0  0
  2  4  1  0  0  0  0
  2  5  1  0  0  0  0
  5  6  2  0  0  0  0
  5  7  1  0  0  0  0
  7  8  1  0  0  0  0
  7  9  1  0  0  0  0
  9 10  1  0  0  0  0
  9 11  1  0  0  0  0
  9 22  1  0  0  0  0
 11 12  1  0  0  0  0
 11 13  1  0  0  0  0
 11 14  1  0  0  0  0
 14 15  1  0  0  0  0
 14 16  1  0  0  0  0
 14 17  1  0  0  0  0
 17 18  1  0  0  0  0
 18 19  1  0  0  0  0
 18 20  1  0  0  0  0
 18 21  1  0  0  0  0
 22 23  2  0  0  0  0
 22 24  1  0  0  0  0
 24 25  1  0  0  0  0
 24 26  1  0  0  0  0
 26 27  1  0  0  0  0
 26 28  1  0  0  0  0
 26 29  1  0  0  0  0
M  END
$$$$

  -OEChem-04042216023D

 29 28  0     1  0  0  0  0  0999 V2000
   -2.6846   -4.0602    0.6515 H   0  0  0  0  0  0  0  0  0  0  0  0
   -2.6457   -3.0817    0.1640 C   0  0  0  0  0  0  0  0  0  0  0  0
   -3.4372   -2.4520    0.5773 H   0  0  0  0  0  0  0  0  0  0  0  0
   -2.8166   -3.2167   -0.9066 H   0  0  0  0  0  0  0  0  0  0  0  0
   -1.2923   -2.4375    0.3973 C   0  0  0  0  0  0  0  0  0  0  0  0
   -0.4564   -3.0090    1.0722 O   0  0  0  0  0  0  0  0  0  0  0  0
   -1.0156   -1.2030   -0.1566 N   0  0  0  0  0  0  0  0  0  0  0  0
   -1.7177   -0.8148   -0.7785 H   0  0  0  0  0  0  0  0  0  0  0  0
    0.2995   -0.5363   -0.0863 C   0  0  1  0  0  0  0  0  0  0  0  0
    1.0565   -1.1877   -0.5384 H   0  0  0  0  0  0  0  0  0  0  0  0
    0.2176    0.7845   -0.8742 C   0  0  0  0  0  0  0  0  0  0  0  0
   -0.7879    1.2064   -0.7836 H   0  0  0  0  0  0  0  0  0  0  0  0
    0.9107    1.5213   -0.4524 H   0  0  0  0  0  0  0  0  0  0  0  0
    0.5938    0.5761   -2.3462 C   0  0  0  0  0  0  0  0  0  0  0  0
    1.6756    0.6958   -2.4678 H   0  0  0  0  0  0  0  0  0  0  0  0
    0.3339   -0.4367   -2.6707 H   0  0  0  0  0  0  0  0  0  0  0  0
   -0.2968    1.7778   -3.4148 S   0  0  0  0  0  0  0  0  0  0  0  0
   -1.9920    1.0758   -3.5040 C   0  0  0  0  0  0  0  0  0  0  0  0
   -2.4547    1.0625   -2.5136 H   0  0  0  0  0  0  0  0  0  0  0  0
   -2.6126    1.6841   -4.1691 H   0  0  0  0  0  0  0  0  0  0  0  0
   -1.9595    0.0545   -3.8947 H   0  0  0  0  0  0  0  0  0  0  0  0
    0.7870   -0.2536    1.3534 C   0  0  0  0  0  0  0  0  0  0  0  0
    1.9856   -0.2686    1.5992 O   0  0  0  0  0  0  0  0  0  0  0  0
   -0.0851    0.2756    2.2879 N   0  0  0  0  0  0  0  0  0  0  0  0
   -1.0735    0.1919    2.0760 H   0  0  0  0  0  0  0  0  0  0  0  0
    0.3166    0.5854    3.6542 C   0  0  0  0  0  0  0  0  0  0  0  0
    1.1288    1.3200    3.6583 H   0  0  0  0  0  0  0  0  0  0  0  0
   -0.5271    1.0032    4.2115 H   0  0  0  0  0  0  0  0  0  0  0  0
    0.6578   -0.3205    4.1662 H   0  0  0  0  0  0  0  0  0  0  0  0
  1  2  1  0  0  0  0
  2  3  1  0  0  0  0
  2  4  1  0  0  0  0
  2  5  1  0  0  0  0
  5  6  2  0  0  0  0
  5  7  1  0  0  0  0
  7  8  1  0  0  0  0
  7  9  1  0  0  0  0
  9 10  1  0  0  0  0
  9 11  1  0  0  0  0
  9 22  1  0  0  0  0
 11 12  1  0  0  0  0
 11 13  1  0  0  0  0
 11 14  1  0  0  0  0
 14 15  1  0  0  0  0
 14 16  1  0  0  0  0
 14 17  1  0  0  0  0
 17 18  1  0  0  0  0
 18 19  1  0  0  0  0
 18 20  1  0  0  0  0
 18 21  1  0  0  0  0
 22 23  2  0  0  0  0
 22 24  1  0  0  0  0
 24 25  1  0  0  0  0
 24 26  1  0  0  0  0
 26 27  1  0  0  0  0
 26 28  1  0  0  0  0
 26 29  1  0  0  0  0
M  END
$$$$

  -OEChem-04042216023D

 29 28  0     1  0  0  0  0  0999 V2000
   -2.6772   -4.0767    0.6341 H   0  0  0  0  0  0  0  0  0  0  0  0
   -2.6429   -3.0962    0.1504 C   0  0  0  0  0  0  0  0  0  0  0  0
   -3.4431   -2.4747    0.5592 H   0  0  0  0  0  0  0  0  0  0  0  0
   -2.8034   -3.2290   -0.9221 H   0  0  0  0  0  0  0  0  0  0  0  0
   -1.2971   -2.4412    0.3976 C   0  0  0  0  0  0  0  0  0  0  0  0
   -0.4631   -3.0073    1.0793 O   0  0  0  0  0  0  0  0  0  0  0  0
   -1.0248   -1.2046   -0.1539 N   0  0  0  0  0  0  0  0  0  0  0  0
   -1.7240   -0.8242   -0.7839 H   0  0  0  0  0  0  0  0  0  0  0  0
    0.2896   -0.5360   -0.0842 C   0  0  1  0  0  0  0  0  0  0  0  0
    1.0447   -1.1872   -0.5400 H   0  0  0  0  0  0  0  0  0  0  0  0
    0.2075    0.7852   -0.8715 C   0  0  0  0  0  0  0  0  0  0  0  0
   -0.7972    1.2088   -0.7849 H   0  0  0  0  0  0  0  0  0  0  0  0
    0.9036    1.5196   -0.4504 H   0  0  0  0  0  0  0  0  0  0  0  0
    0.5852    0.5699   -2.3400 C   0  0  0  0  0  0  0  0  0  0  0  0
    1.6688    0.4316   -2.4213 H   0  0  0  0  0  0  0  0  0  0  0  0
    0.1032   -0.3320   -2.7305 H   0  0  0  0  0  0  0  0  0  0  0  0
    0.0674    2.0126   -3.3542 S   0  0  0  0  0  0  0  0  0  0  0  0
   -1.7462    1.7785   -3.5297 C   0  0  0  0  0  0  0  0  0  0  0  0
   -2.2381    1.8400   -2.5552 H   0  0  0  0  0  0  0  0  0  0  0  0
   -2.1609    2.5570   -4.1773 H   0  0  0  0  0  0  0  0  0  0  0  0
   -1.9612    0.8030   -3.9755 H   0  0  0  0  0  0  0  0  0  0  0  0
    0.7829   -0.2548    1.3538 C   0  0  0  0  0  0  0  0  0  0  0  0
    1.9826   -0.2704    1.5940 O   0  0  0  0  0  0  0  0  0  0  0  0
   -0.0846    0.2717    2.2941 N   0  0  0  0  0  0  0  0  0  0  0  0
   -1.0741    0.1850    2.0890 H   0  0  0  0  0  0  0  0  0  0  0  0
    0.3254    0.5832    3.6576 C   0  0  0  0  0  0  0  0  0  0  0  0
    1.1334    1.3226    3.6562 H   0  0  0  0  0  0  0  0  0  0  0  0
   -0.5165    0.9958    4.2216 H   0  0  0  0  0  0  0  0  0  0  0  0
    0.6761   -0.3207    4.1668 H   0  0  0  0  0  0  0  0  0  0  0  0
  1  2  1  0  0  0  0
  2  3  1  0  0  0  0
  2  4  1  0  0  0  0
  2  5  1  0  0  0  0
  5  6  2  0  0  0  0
  5  7  1  0  0  0  0
  7  8  1  0  0  0  0
  7  9  1  0  0  0  0
  9 10  1  0  0  0  0
  9 11  1  0  0  0  0
  9 22  1  0  0  0  0
 11 12  1  0  0  0  0
 11 13  1  0  0  0  0
 11 14  1  0  0  0  0
 14 15  1  0  0  0  0
 14 16  1  0  0  0  0
 14 17  1  0  0  0  0
 17 18  1  0  0  0  0
 18 19  1  0  0  0  0
 18 20  1  0  0  0  0
 18 21  1  0  0  0  0
 22 23  2  0  0  0  0
 22 24  1  0  0  0  0
 24 25  1  0  0  0  0
 24 26  1  0  0  0  0
 26 27  1  0  0  0  0
 26 28  1  0  0  0  0
 26 29  1  0  0  0  0
M  END
$$$$

  -OEChem-04042216023D

 29 28  0     1  0  0  0  0  0999 V2000
   -2.6618   -4.0967    0.6484 H   0  0  0  0  0  0  0  0  0  0  0  0
   -2.6336   -3.1170    0.1626 C   0  0  0  0  0  0  0  0  0  0  0  0
   -3.4290   -2.4950    0.5797 H   0  0  0  0  0  0  0  0  0  0  0  0
   -2.8065   -3.2518   -0.9078 H   0  0  0  0  0  0  0  0  0  0  0  0
   -1.2860   -2.4599    0.3929 C   0  0  0  0  0  0  0  0  0  0  0  0
   -0.4487   -3.0167    1.0782 O   0  0  0  0  0  0  0  0  0  0  0  0
   -1.0194   -1.2271   -0.1697 N   0  0  0  0  0  0  0  0  0  0  0  0
   -1.7281   -0.8457   -0.7884 H   0  0  0  0  0  0  0  0  0  0  0  0
    0.2887   -0.5464   -0.0979 C   0  0  1  0  0  0  0  0  0  0  0  0
    1.0502   -1.1955   -0.5453 H   0  0  0  0  0  0  0  0  0  0  0  0
    0.2085    0.7626   -0.9002 C   0  0  0  0  0  0  0  0  0  0  0  0
   -0.6946    1.3134   -0.6225 H   0  0  0  0  0  0  0  0  0  0  0  0
    1.0687    1.3945   -0.6514 H   0  0  0  0  0  0  0  0  0  0  0  0
    0.2360    0.4935   -2.4083 C   0  0  0  0  0  0  0  0  0  0  0  0
    1.1679   -0.0190   -2.6700 H   0  0  0  0  0  0  0  0  0  0  0  0
   -0.5958   -0.1549   -2.6992 H   0  0  0  0  0  0  0  0  0  0  0  0
    0.1393    2.0715   -3.3455 S   0  0  0  0  0  0  0  0  0  0  0  0
   -1.5920    2.6266   -3.0832 C   0  0  0  0  0  0  0  0  0  0  0  0
   -1.7686    2.8508   -2.0277 H   0  0  0  0  0  0  0  0  0  0  0  0
   -1.7845    3.5324   -3.6661 H   0  0  0  0  0  0  0  0  0  0  0  0
   -2.2923    1.8499   -3.4037 H   0  0  0  0  0  0  0  0  0  0  0  0
    0.7708   -0.2445    1.3395 C   0  0  0  0  0  0  0  0  0  0  0  0
    1.9685   -0.2520    1.5902 O   0  0  0  0  0  0  0  0  0  0  0  0
   -0.1075    0.2851    2.2680 N   0  0  0  0  0  0  0  0  0  0  0  0
   -1.0943    0.1810    2.0579 H   0  0  0  0  0  0  0  0  0  0  0  0
    0.2881    0.5941    3.6365 C   0  0  0  0  0  0  0  0  0  0  0  0
    1.0945    1.3351    3.6454 H   0  0  0  0  0  0  0  0  0  0  0  0
   -0.5606    1.0032    4.1927 H   0  0  0  0  0  0  0  0  0  0  0  0
    0.6357   -0.3104    4.1469 H   0  0  0  0  0  0  0  0  0  0  0  0
  1  2  1  0  0  0  0
  2  3  1  0  0  0  0
  2  4  1  0  0  0  0
  2  5  1  0  0  0  0
  5  6  2  0  0  0  0
  5  7  1  0  0  0  0
  7  8  1  0  0  0  0
  7  9  1  0  0  0  0
  9 10  1  0  0  0  0
  9 11  1  0  0  0  0
  9 22  1  0  0  0  0
 11 12  1  0  0  0  0
 11 13  1  0  0  0  0
 11 14  1  0  0  0  0
 14 15  1  0  0  0  0
 14 16  1  0  0  0  0
 14 17  1  0  0  0  0
 17 18  1  0  0  0  0
 18 19  1  0  0  0  0
 18 20  1  0  0  0  0
 18 21  1  0  0  0  0
 22 23  2  0  0  0  0
 22 24  1  0  0  0  0
 24 25  1  0  0  0  0
 24 26  1  0  0  0  0
 26 27  1  0  0  0  0
 26 28  1  0  0  0  0
 26 29  1  0  0  0  0
M  END
$$$$

  -OEChem-04042216023D

 29 28  0     1  0  0  0  0  0999 V2000
   -2.6643   -4.1039    0.7131 H   0  0  0  0  0  0  0  0  0  0  0  0
   -2.6203   -3.1596    0.1628 C   0  0  0  0  0  0  0  0  0  0  0  0
   -3.4334   -2.5153    0.5054 H   0  0  0  0  0  0  0  0  0  0  0  0
   -2.7514   -3.3678   -0.9019 H   0  0  0  0  0  0  0  0  0  0  0  0
   -1.2842   -2.4808    0.3981 C   0  0  0  0  0  0  0  0  0  0  0  0
   -0.4480   -3.0141    1.1031 O   0  0  0  0  0  0  0  0  0  0  0  0
   -1.0261   -1.2562   -0.1861 N   0  0  0  0  0  0  0  0  0  0  0  0
   -1.7328   -0.8972   -0.8202 H   0  0  0  0  0  0  0  0  0  0  0  0
    0.2758   -0.5630   -0.1237 C   0  0  1  0  0  0  0  0  0  0  0  0
    1.0453   -1.2108   -0.5585 H   0  0  0  0  0  0  0  0  0  0  0  0
    0.1761    0.7335   -0.9444 C   0  0  0  0  0  0  0  0  0  0  0  0
   -0.7259    1.2894   -0.6710 H   0  0  0  0  0  0  0  0  0  0  0  0
    1.0392    1.3654   -0.7052 H   0  0  0  0  0  0  0  0  0  0  0  0
    0.2016    0.4502   -2.4508 C   0  0  0  0  0  0  0  0  0  0  0  0
    0.9990   -0.2649   -2.6790 H   0  0  0  0  0  0  0  0  0  0  0  0
   -0.7465    0.0086   -2.7719 H   0  0  0  0  0  0  0  0  0  0  0  0
    0.5266    1.9916   -3.3979 S   0  0  0  0  0  0  0  0  0  0  0  0
   -0.9126    3.0585   -2.9921 C   0  0  0  0  0  0  0  0  0  0  0  0
   -0.9017    3.3304   -1.9327 H   0  0  0  0  0  0  0  0  0  0  0  0
   -0.8745    3.9769   -3.5854 H   0  0  0  0  0  0  0  0  0  0  0  0
   -1.8475    2.5365   -3.2154 H   0  0  0  0  0  0  0  0  0  0  0  0
    0.7515   -0.2310    1.3092 C   0  0  0  0  0  0  0  0  0  0  0  0
    1.9487   -0.2129    1.5611 O   0  0  0  0  0  0  0  0  0  0  0  0
   -0.1356    0.3075    2.2241 N   0  0  0  0  0  0  0  0  0  0  0  0
   -1.1204    0.1805    2.0176 H   0  0  0  0  0  0  0  0  0  0  0  0
    0.2553    0.6657    3.5818 C   0  0  0  0  0  0  0  0  0  0  0  0
    1.0454    1.4240    3.5662 H   0  0  0  0  0  0  0  0  0  0  0  0
   -0.6012    1.0732    4.1272 H   0  0  0  0  0  0  0  0  0  0  0  0
    0.6231   -0.2155    4.1181 H   0  0  0  0  0  0  0  0  0  0  0  0
  1  2  1  0  0  0  0
  2  3  1  0  0  0  0
  2  4  1  0  0  0  0
  2  5  1  0  0  0  0
  5  6  2  0  0  0  0
  5  7  1  0  0  0  0
  7  8  1  0  0  0  0
  7  9  1  0  0  0  0
  9 10  1  0  0  0  0
  9 11  1  0  0  0  0
  9 22  1  0  0  0  0
 11 12  1  0  0  0  0
 11 13  1  0  0  0  0
 11 14  1  0  0  0  0
 14 15  1  0  0  0  0
 14 16  1  0  0  0  0
 14 17  1  0  0  0  0
 17 18  1  0  0  0  0
 18 19  1  0  0  0  0
 18 20  1  0  0  0  0
 18 21  1  0  0  0  0
 22 23  2  0  0  0  0
 22 24  1  0  0  0  0
 24 25  1  0  0  0  0
 24 26  1  0  0  0  0
 26 27  1  0  0  0  0
 26 28  1  0  0  0  0
 26 29  1  0  0  0  0
M  END
$$$$

  -OEChem-04042216023D

 29 28  0     1  0  0  0  0  0999 V2000
   -2.6494   -4.1174    0.7194 H   0  0  0  0  0  0  0  0  0  0  0  0
   -2.6177   -3.1718    0.1705 C   0  0  0  0  0  0  0  0  0  0  0  0
   -3.4409   -2.5400    0.5123 H   0  0  0  0  0  0  0  0  0  0  0  0
   -2.7433   -3.3810   -0.8945 H   0  0  0  0  0  0  0  0  0  0  0  0
   -1.2913   -2.4752    0.4096 C   0  0  0  0  0  0  0  0  0  0  0  0
   -0.4568   -2.9921    1.1286 O   0  0  0  0  0  0  0  0  0  0  0  0
   -1.0387   -1.2554   -0.1871 N   0  0  0  0  0  0  0  0  0  0  0  0
   -1.7375   -0.9183   -0.8418 H   0  0  0  0  0  0  0  0  0  0  0  0
    0.2638   -0.5617   -0.1370 C   0  0  1  0  0  0  0  0  0  0  0  0
    1.0327   -1.2118   -0.5700 H   0  0  0  0  0  0  0  0  0  0  0  0
    0.1550    0.7305   -0.9654 C   0  0  0  0  0  0  0  0  0  0  0  0
   -0.7389    1.2981   -0.6879 H   0  0  0  0  0  0  0  0  0  0  0  0
    1.0252    1.3546   -0.7303 H   0  0  0  0  0  0  0  0  0  0  0  0
    0.1680    0.4501   -2.4748 C   0  0  0  0  0  0  0  0  0  0  0  0
    0.7704   -0.4395   -2.6868 H   0  0  0  0  0  0  0  0  0  0  0  0
   -0.8480    0.2568   -2.8314 H   0  0  0  0  0  0  0  0  0  0  0  0
    0.9066    1.8576   -3.3983 S   0  0  0  0  0  0  0  0  0  0  0  0
   -0.1930    3.2663   -2.9711 C   0  0  0  0  0  0  0  0  0  0  0  0
   -0.1346    3.4870   -1.9014 H   0  0  0  0  0  0  0  0  0  0  0  0
    0.1113    4.1587   -3.5264 H   0  0  0  0  0  0  0  0  0  0  0  0
   -1.2296    3.0310   -3.2286 H   0  0  0  0  0  0  0  0  0  0  0  0
    0.7465   -0.2180    1.2916 C   0  0  0  0  0  0  0  0  0  0  0  0
    1.9447   -0.2006    1.5390 O   0  0  0  0  0  0  0  0  0  0  0  0
   -0.1356    0.3282    2.2070 N   0  0  0  0  0  0  0  0  0  0  0  0
   -1.1215    0.2019    2.0053 H   0  0  0  0  0  0  0  0  0  0  0  0
    0.2616    0.6921    3.5615 C   0  0  0  0  0  0  0  0  0  0  0  0
    1.0545    1.4475    3.5390 H   0  0  0  0  0  0  0  0  0  0  0  0
   -0.5912    1.1056    4.1081 H   0  0  0  0  0  0  0  0  0  0  0  0
    0.6278   -0.1870    4.1023 H   0  0  0  0  0  0  0  0  0  0  0  0
  1  2  1  0  0  0  0
  2  3  1  0  0  0  0
  2  4  1  0  0  0  0
  2  5  1  0  0  0  0
  5  6  2  0  0  0  0
  5  7  1  0  0  0  0
  7  8  1  0  0  0  0
  7  9  1  0  0  0  0
  9 10  1  0  0  0  0
  9 11  1  0  0  0  0
  9 22  1  0  0  0  0
 11 12  1  0  0  0  0
 11 13  1  0  0  0  0
 11 14  1  0  0  0  0
 14 15  1  0  0  0  0
 14 16  1  0  0  0  0
 14 17  1  0  0  0  0
 17 18  1  0  0  0  0
 18 19  1  0  0  0  0
 18 20  1  0  0  0  0
 18 21  1  0  0  0  0
 22 23  2  0  0  0  0
 22 24  1  0  0  0  0
 24 25  1  0  0  0  0
 24 26  1  0  0  0  0
 26 27  1  0  0  0  0
 26 28  1  0  0  0  0
 26 29  1  0  0  0  0
M  END
$$$$

  -OEChem-04042216023D

 29 28  0     1  0  0  0  0  0999 V2000
   -2.6569   -4.1071    0.6885 H   0  0  0  0  0  0  0  0  0  0  0  0
   -2.6266   -3.1484    0.1626 C   0  0  0  0  0  0  0  0  0  0  0  0
   -3.4436   -2.5216    0.5277 H   0  0  0  0  0  0  0  0  0  0  0  0
   -2.7633   -3.3304   -0.9062 H   0  0  0  0  0  0  0  0  0  0  0  0
   -1.2954   -2.4627    0.4061 C   0  0  0  0  0  0  0  0  0  0  0  0
   -0.4626   -2.9901    1.1196 O   0  0  0  0  0  0  0  0  0  0  0  0
   -1.0378   -1.2396   -0.1816 N   0  0  0  0  0  0  0  0  0  0  0  0
   -1.7350   -0.8962   -0.8345 H   0  0  0  0  0  0  0  0  0  0  0  0
    0.2679   -0.5523   -0.1304 C   0  0  1  0  0  0  0  0  0  0  0  0
    1.0337   -1.2012   -0.5706 H   0  0  0  0  0  0  0  0  0  0  0  0
    0.1602    0.7458   -0.9501 C   0  0  0  0  0  0  0  0  0  0  0  0
   -0.7323    1.3130   -0.6671 H   0  0  0  0  0  0  0  0  0  0  0  0
    1.0296    1.3672   -0.7067 H   0  0  0  0  0  0  0  0  0  0  0  0
    0.1663    0.4760   -2.4640 C   0  0  0  0  0  0  0  0  0  0  0  0
    0.5196   -0.5401   -2.6675 H   0  0  0  0  0  0  0  0  0  0  0  0
   -0.8498    0.5574   -2.8614 H   0  0  0  0  0  0  0  0  0  0  0  0
    1.2797    1.6421   -3.3469 S   0  0  0  0  0  0  0  0  0  0  0  0
    0.5040    3.2752   -3.0207 C   0  0  0  0  0  0  0  0  0  0  0  0
    0.5112    3.4959   -1.9496 H   0  0  0  0  0  0  0  0  0  0  0  0
    1.0580    4.0621   -3.5412 H   0  0  0  0  0  0  0  0  0  0  0  0
   -0.5303    3.2819   -3.3763 H   0  0  0  0  0  0  0  0  0  0  0  0
    0.7566   -0.2216    1.2993 C   0  0  0  0  0  0  0  0  0  0  0  0
    1.9555   -0.2105    1.5434 O   0  0  0  0  0  0  0  0  0  0  0  0
   -0.1204    0.3216    2.2215 N   0  0  0  0  0  0  0  0  0  0  0  0
   -1.1074    0.1976    2.0231 H   0  0  0  0  0  0  0  0  0  0  0  0
    0.2828    0.6715    3.5779 C   0  0  0  0  0  0  0  0  0  0  0  0
    1.0860    1.4157    3.5600 H   0  0  0  0  0  0  0  0  0  0  0  0
   -0.5638    1.0936    4.1274 H   0  0  0  0  0  0  0  0  0  0  0  0
    0.6375   -0.2163    4.1120 H   0  0  0  0  0  0  0  0  0  0  0  0
  1  2  1  0  0  0  0
  2  3  1  0  0  0  0
  2  4  1  0  0  0  0
  2  5  1  0  0  0  0
  5  6  2  0  0  0  0
  5  7  1  0  0  0  0
  7  8  1  0  0  0  0
  7  9  1  0  0  0  0
  9 10  1  0  0  0  0
  9 11  1  0  0  0  0
  9 22  1  0  0  0  0
 11 12  1  0  0  0  0
 11 13  1  0  0  0  0
 11 14  1  0  0  0  0
 14 15  1  0  0  0  0
 14 16  1  0  0  0  0
 14 17  1  0  0  0  0
 17 18  1  0  0  0  0
 18 19  1  0  0  0  0
 18 20  1  0  0  0  0
 18 21  1  0  0  0  0
 22 23  2  0  0  0  0
 22 24  1  0  0  0  0
 24 25  1  0  0  0  0
 24 26  1  0  0  0  0
 26 27  1  0  0  0  0
 26 28  1  0  0  0  0
 26 29  1  0  0  0  0
M  END
$$$$

  -OEChem-04042216023D

 29 28  0     1  0  0  0  0  0999 V2000
   -2.6521   -4.1032    0.6543 H   0  0  0  0  0  0  0  0  0  0  0  0
   -2.6309   -3.1277    0.1597 C   0  0  0  0  0  0  0  0  0  0  0  0
   -3.4431   -2.5145    0.5571 H   0  0  0  0  0  0  0  0  0  0  0  0
   -2.7828   -3.2753   -0.9124 H   0  0  0  0  0  0  0  0  0  0  0  0
   -1.2979   -2.4474    0.4074 C   0  0  0  0  0  0  0  0  0  0  0  0
   -0.4705   -2.9793    1.1239 O   0  0  0  0  0  0  0  0  0  0  0  0
   -1.0362   -1.2216   -0.1728 N   0  0  0  0  0  0  0  0  0  0  0  0
   -1.7296   -0.8749   -0.8280 H   0  0  0  0  0  0  0  0  0  0  0  0
    0.2737   -0.5417   -0.1199 C   0  0  1  0  0  0  0  0  0  0  0  0
    1.0354   -1.1898   -0.5688 H   0  0  0  0  0  0  0  0  0  0  0  0
    0.1760    0.7642   -0.9273 C   0  0  0  0  0  0  0  0  0  0  0  0
   -0.7225    1.3205   -0.6414 H   0  0  0  0  0  0  0  0  0  0  0  0
    1.0377    1.3912   -0.6726 H   0  0  0  0  0  0  0  0  0  0  0  0
    0.1783    0.5055   -2.4441 C   0  0  0  0  0  0  0  0  0  0  0  0
    0.2387   -0.5682   -2.6509 H   0  0  0  0  0  0  0  0  0  0  0  0
   -0.7557    0.8716   -2.8814 H   0  0  0  0  0  0  0  0  0  0  0  0
    1.5979    1.3357   -3.2649 S   0  0  0  0  0  0  0  0  0  0  0  0
    1.1893    3.1173   -3.0780 C   0  0  0  0  0  0  0  0  0  0  0  0
    1.1318    3.3899   -2.0204 H   0  0  0  0  0  0  0  0  0  0  0  0
    1.9619    3.7293   -3.5530 H   0  0  0  0  0  0  0  0  0  0  0  0
    0.2284    3.3370   -3.5522 H   0  0  0  0  0  0  0  0  0  0  0  0
    0.7641   -0.2258    1.3124 C   0  0  0  0  0  0  0  0  0  0  0  0
    1.9626   -0.2257    1.5589 O   0  0  0  0  0  0  0  0  0  0  0  0
   -0.1107    0.3143    2.2386 N   0  0  0  0  0  0  0  0  0  0  0  0
   -1.0977    0.1972    2.0361 H   0  0  0  0  0  0  0  0  0  0  0  0
    0.2893    0.6252    3.6053 C   0  0  0  0  0  0  0  0  0  0  0  0
    1.1024    1.3590    3.6099 H   0  0  0  0  0  0  0  0  0  0  0  0
   -0.5550    1.0439    4.1611 H   0  0  0  0  0  0  0  0  0  0  0  0
    0.6294   -0.2808    4.1183 H   0  0  0  0  0  0  0  0  0  0  0  0
  1  2  1  0  0  0  0
  2  3  1  0  0  0  0
  2  4  1  0  0  0  0
  2  5  1  0  0  0  0
  5  6  2  0  0  0  0
  5  7  1  0  0  0  0
  7  8  1  0  0  0  0
  7  9  1  0  0  0  0
  9 10  1  0  0  0  0
  9 11  1  0  0  0  0
  9 22  1  0  0  0  0
 11 12  1  0  0  0  0
 11 13  1  0  0  0  0
 11 14  1  0  0  0  0
 14 15  1  0  0  0  0
 14 16  1  0  0  0  0
 14 17  1  0  0  0  0
 17 18  1  0  0  0  0
 18 19  1  0  0  0  0
 18 20  1  0  0  0  0
 18 21  1  0  0  0  0
 22 23  2  0  0  0  0
 22 24  1  0  0  0  0
 24 25  1  0  0  0  0
 24 26  1  0  0  0  0
 26 27  1  0  0  0  0
 26 28  1  0  0  0  0
 26 29  1  0  0  0  0
M  END
$$$$

  -OEChem-04042216023D

 29 28  0     1  0  0  0  0  0999 V2000
   -2.6570   -4.0998    0.6436 H   0  0  0  0  0  0  0  0  0  0  0  0
   -2.6341   -3.1229    0.1519 C   0  0  0  0  0  0  0  0  0  0  0  0
   -3.4471   -2.5105    0.5491 H   0  0  0  0  0  0  0  0  0  0  0  0
   -2.7839   -3.2672   -0.9208 H   0  0  0  0  0  0  0  0  0  0  0  0
   -1.3005   -2.4449    0.4034 C   0  0  0  0  0  0  0  0  0  0  0  0
   -0.4713   -2.9839    1.1124 O   0  0  0  0  0  0  0  0  0  0  0  0
   -1.0393   -1.2142   -0.1666 N   0  0  0  0  0  0  0  0  0  0  0  0
   -1.7361   -0.8587   -0.8135 H   0  0  0  0  0  0  0  0  0  0  0  0
    0.2716   -0.5356   -0.1109 C   0  0  1  0  0  0  0  0  0  0  0  0
    1.0308   -1.1814   -0.5683 H   0  0  0  0  0  0  0  0  0  0  0  0
    0.1826    0.7773   -0.9073 C   0  0  0  0  0  0  0  0  0  0  0  0
   -0.7274    1.3152   -0.6228 H   0  0  0  0  0  0  0  0  0  0  0  0
    1.0308    1.4174   -0.6431 H   0  0  0  0  0  0  0  0  0  0  0  0
    0.1862    0.5286   -2.4249 C   0  0  0  0  0  0  0  0  0  0  0  0
   -0.0458   -0.5182   -2.6460 H   0  0  0  0  0  0  0  0  0  0  0  0
   -0.5877    1.1427   -2.8962 H   0  0  0  0  0  0  0  0  0  0  0  0
    1.8100    0.9575   -3.1721 S   0  0  0  0  0  0  0  0  0  0  0  0
    1.8388    2.7929   -3.0839 C   0  0  0  0  0  0  0  0  0  0  0  0
    1.8003    3.1295   -2.0441 H   0  0  0  0  0  0  0  0  0  0  0  0
    2.7588    3.1735   -3.5376 H   0  0  0  0  0  0  0  0  0  0  0  0
    0.9842    3.2122   -3.6228 H   0  0  0  0  0  0  0  0  0  0  0  0
    0.7642   -0.2335    1.3233 C   0  0  0  0  0  0  0  0  0  0  0  0
    1.9628   -0.2309    1.5692 O   0  0  0  0  0  0  0  0  0  0  0  0
   -0.1111    0.2985    2.2536 N   0  0  0  0  0  0  0  0  0  0  0  0
   -1.0978    0.1788    2.0511 H   0  0  0  0  0  0  0  0  0  0  0  0
    0.2893    0.6030    3.6218 C   0  0  0  0  0  0  0  0  0  0  0  0
    1.1007    1.3385    3.6302 H   0  0  0  0  0  0  0  0  0  0  0  0
   -0.5555    1.0172    4.1802 H   0  0  0  0  0  0  0  0  0  0  0  0
    0.6319   -0.3045    4.1301 H   0  0  0  0  0  0  0  0  0  0  0  0
  1  2  1  0  0  0  0
  2  3  1  0  0  0  0
  2  4  1  0  0  0  0
  2  5  1  0  0  0  0
  5  6  2  0  0  0  0
  5  7  1  0  0  0  0
  7  8  1  0  0  0  0
  7  9  1  0  0  0  0
  9 10  1  0  0  0  0
  9 11  1  0  0  0  0
  9 22  1  0  0  0  0
 11 12  1  0  0  0  0
 11 13  1  0  0  0  0
 11 14  1  0  0  0  0
 14 15  1  0  0  0  0
 14 16  1  0  0  0  0
 14 17  1  0  0  0  0
 17 18  1  0  0  0  0
 18 19  1  0  0  0  0
 18 20  1  0  0  0  0
 18 21  1  0  0  0  0
 22 23  2  0  0  0  0
 22 24  1  0  0  0  0
 24 25  1  0  0  0  0
 24 26  1  0  0  0  0
 26 27  1  0  0  0  0
 26 28  1  0  0  0  0
 26 29  1  0  0  0  0
M  END
$$$$

  -OEChem-04042216023D

 29 28  0     1  0  0  0  0  0999 V2000
   -2.6606   -4.1044    0.6265 H   0  0  0  0  0  0  0  0  0  0  0  0
   -2.6337   -3.1306    0.1291 C   0  0  0  0  0  0  0  0  0  0  0  0
   -3.4593   -2.5213    0.5044 H   0  0  0  0  0  0  0  0  0  0  0  0
   -2.7591   -3.2831   -0.9456 H   0  0  0  0  0  0  0  0  0  0  0  0
   -1.3108   -2.4412    0.4055 C   0  0  0  0  0  0  0  0  0  0  0  0
   -0.4925   -2.9712    1.1338 O   0  0  0  0  0  0  0  0  0  0  0  0
   -1.0498   -1.2091   -0.1620 N   0  0  0  0  0  0  0  0  0  0  0  0
   -1.7360   -0.8666   -0.8269 H   0  0  0  0  0  0  0  0  0  0  0  0
    0.2624   -0.5319   -0.1077 C   0  0  1  0  0  0  0  0  0  0  0  0
    1.0179   -1.1786   -0.5698 H   0  0  0  0  0  0  0  0  0  0  0  0
    0.1766    0.7850   -0.8993 C   0  0  0  0  0  0  0  0  0  0  0  0
   -0.7374    1.3157   -0.6146 H   0  0  0  0  0  0  0  0  0  0  0  0
    1.0194    1.4307   -0.6333 H   0  0  0  0  0  0  0  0  0  0  0  0
    0.1779    0.5432   -2.4164 C   0  0  0  0  0  0  0  0  0  0  0  0
   -0.3149   -0.4039   -2.6573 H   0  0  0  0  0  0  0  0  0  0  0  0
   -0.3845    1.3419   -2.9103 H   0  0  0  0  0  0  0  0  0  0  0  0
    1.8870    0.5357   -3.0934 S   0  0  0  0  0  0  0  0  0  0  0  0
    2.3906    2.3017   -3.0124 C   0  0  0  0  0  0  0  0  0  0  0  0
    2.4400    2.6427   -1.9745 H   0  0  0  0  0  0  0  0  0  0  0  0
    3.3788    2.4281   -3.4646 H   0  0  0  0  0  0  0  0  0  0  0  0
    1.6754    2.9259   -3.5558 H   0  0  0  0  0  0  0  0  0  0  0  0
    0.7628   -0.2325    1.3248 C   0  0  0  0  0  0  0  0  0  0  0  0
    1.9633   -0.2228    1.5620 O   0  0  0  0  0  0  0  0  0  0  0  0
   -0.1077    0.2991    2.2600 N   0  0  0  0  0  0  0  0  0  0  0  0
   -1.0950    0.1698    2.0668 H   0  0  0  0  0  0  0  0  0  0  0  0
    0.3015    0.6127    3.6235 C   0  0  0  0  0  0  0  0  0  0  0  0
    1.1057    1.3560    3.6221 H   0  0  0  0  0  0  0  0  0  0  0  0
   -0.5426    1.0209    4.1873 H   0  0  0  0  0  0  0  0  0  0  0  0
    0.6569   -0.2894    4.1327 H   0  0  0  0  0  0  0  0  0  0  0  0
  1  2  1  0  0  0  0
  2  3  1  0  0  0  0
  2  4  1  0  0  0  0
  2  5  1  0  0  0  0
  5  6  2  0  0  0  0
  5  7  1  0  0  0  0
  7  8  1  0  0  0  0
  7  9  1  0  0  0  0
  9 10  1  0  0  0  0
  9 11  1  0  0  0  0
  9 22  1  0  0  0  0
 11 12  1  0  0  0  0
 11 13  1  0  0  0  0
 11 14  1  0  0  0  0
 14 15  1  0  0  0  0
 14 16  1  0  0  0  0
 14 17  1  0  0  0  0
 17 18  1  0  0  0  0
 18 19  1  0  0  0  0
 18 20  1  0  0  0  0
 18 21  1  0  0  0  0
 22 23  2  0  0  0  0
 22 24  1  0  0  0  0
 24 25  1  0  0  0  0
 24 26  1  0  0  0  0
 26 27  1  0  0  0  0
 26 28  1  0  0  0  0
 26 29  1  0  0  0  0
M  END
$$$$

  -OEChem-04042216023D

 29 28  0     1  0  0  0  0  0999 V2000
   -2.5901   -4.1016    0.7078 H   0  0  0  0  0  0  0  0  0  0  0  0
   -2.5692   -3.1732    0.1297 C   0  0  0  0  0  0  0  0  0  0  0  0
   -3.4200   -2.5557    0.4274 H   0  0  0  0  0  0  0  0  0  0  0  0
   -2.6575   -3.4185   -0.9314 H   0  0  0  0  0  0  0  0  0  0  0  0
   -1.2707   -2.4307    0.3829 C   0  0  0  0  0  0  0  0  0  0  0  0
   -0.4210   -2.9243    1.1009 O   0  0  0  0  0  0  0  0  0  0  0  0
   -1.0688   -1.1915   -0.1927 N   0  0  0  0  0  0  0  0  0  0  0  0
   -1.7715   -0.8908   -0.8603 H   0  0  0  0  0  0  0  0  0  0  0  0
    0.2243   -0.4775   -0.1829 C   0  0  1  0  0  0  0  0  0  0  0  0
    0.9785   -1.1068   -0.6693 H   0  0  0  0  0  0  0  0  0  0  0  0
    0.0810    0.8379   -0.9691 C   0  0  0  0  0  0  0  0  0  0  0  0
   -0.8385    1.3429   -0.6560 H   0  0  0  0  0  0  0  0  0  0  0  0
    0.9075    1.5115   -0.7264 H   0  0  0  0  0  0  0  0  0  0  0  0
    0.0393    0.6020   -2.4859 C   0  0  0  0  0  0  0  0  0  0  0  0
   -0.6664   -0.1980   -2.7284 H   0  0  0  0  0  0  0  0  0  0  0  0
   -0.3196    1.5151   -2.9711 H   0  0  0  0  0  0  0  0  0  0  0  0
    1.6900    0.1930   -3.1934 S   0  0  0  0  0  0  0  0  0  0  0  0
    2.8208    1.5274   -2.6282 C   0  0  0  0  0  0  0  0  0  0  0  0
    3.0201    1.4330   -1.5563 H   0  0  0  0  0  0  0  0  0  0  0  0
    3.7738    1.4581   -3.1609 H   0  0  0  0  0  0  0  0  0  0  0  0
    2.3806    2.5093   -2.8242 H   0  0  0  0  0  0  0  0  0  0  0  0
    0.7704   -0.1620    1.2290 C   0  0  0  0  0  0  0  0  0  0  0  0
    1.9794   -0.0990    1.4111 O   0  0  0  0  0  0  0  0  0  0  0  0
   -0.0774    0.3458    2.1974 N   0  0  0  0  0  0  0  0  0  0  0  0
   -1.0666    0.1759    2.0489 H   0  0  0  0  0  0  0  0  0  0  0  0
    0.3784    0.6791    3.5413 C   0  0  0  0  0  0  0  0  0  0  0  0
    1.1531    1.4522    3.5037 H   0  0  0  0  0  0  0  0  0  0  0  0
   -0.4550    1.0571    4.1410 H   0  0  0  0  0  0  0  0  0  0  0  0
    0.7894   -0.2075    4.0358 H   0  0  0  0  0  0  0  0  0  0  0  0
  1  2  1  0  0  0  0
  2  3  1  0  0  0  0
  2  4  1  0  0  0  0
  2  5  1  0  0  0  0
  5  6  2  0  0  0  0
  5  7  1  0  0  0  0
  7  8  1  0  0  0  0
  7  9  1  0  0  0  0
  9 10  1  0  0  0  0
  9 11  1  0  0  0  0
  9 22  1  0  0  0  0
 11 12  1  0  0  0  0
 11 13  1  0  0  0  0
 11 14  1  0  0  0  0
 14 15  1  0  0  0  0
 14 16  1  0  0  0  0
 14 17  1  0  0  0  0
 17 18  1  0  0  0  0
 18 19  1  0  0  0  0
 18 20  1  0  0  0  0
 18 21  1  0  0  0  0
 22 23  2  0  0  0  0
 22 24  1  0  0  0  0
 24 25  1  0  0  0  0
 24 26  1  0  0  0  0
 26 27  1  0  0  0  0
 26 28  1  0  0  0  0
 26 29  1  0  0  0  0
M  END
$$$$

  -OEChem-04042216023D

 29 28  0     1  0  0  0  0  0999 V2000
   -2.5355   -4.1170    0.6523 H   0  0  0  0  0  0  0  0  0  0  0  0
   -2.5286   -3.1793    0.0891 C   0  0  0  0  0  0  0  0  0  0  0  0
   -3.3928   -2.5827    0.3903 H   0  0  0  0  0  0  0  0  0  0  0  0
   -2.6047   -3.4097   -0.9763 H   0  0  0  0  0  0  0  0  0  0  0  0
   -1.2472   -2.4154    0.3639 C   0  0  0  0  0  0  0  0  0  0  0  0
   -0.4028   -2.8949    1.0980 O   0  0  0  0  0  0  0  0  0  0  0  0
   -1.0558   -1.1726   -0.2078 N   0  0  0  0  0  0  0  0  0  0  0  0
   -1.7466   -0.8924   -0.8967 H   0  0  0  0  0  0  0  0  0  0  0  0
    0.2357   -0.4567   -0.2024 C   0  0  1  0  0  0  0  0  0  0  0  0
    0.9857   -1.0874   -0.6913 H   0  0  0  0  0  0  0  0  0  0  0  0
    0.0789    0.8674   -0.9757 C   0  0  0  0  0  0  0  0  0  0  0  0
   -0.8270    1.3810   -0.6380 H   0  0  0  0  0  0  0  0  0  0  0  0
    0.9210    1.5266   -0.7421 H   0  0  0  0  0  0  0  0  0  0  0  0
    0.0194    0.6764   -2.4989 C   0  0  0  0  0  0  0  0  0  0  0  0
   -0.8551    0.0750   -2.7636 H   0  0  0  0  0  0  0  0  0  0  0  0
   -0.1032    1.6579   -2.9682 H   0  0  0  0  0  0  0  0  0  0  0  0
    1.5238   -0.1208   -3.2047 S   0  0  0  0  0  0  0  0  0  0  0  0
    2.9435    0.7481   -2.4230 C   0  0  0  0  0  0  0  0  0  0  0  0
    2.9886    0.5264   -1.3521 H   0  0  0  0  0  0  0  0  0  0  0  0
    3.8807    0.4183   -2.8812 H   0  0  0  0  0  0  0  0  0  0  0  0
    2.8500    1.8295   -2.5578 H   0  0  0  0  0  0  0  0  0  0  0  0
    0.7941   -0.1458    1.2053 C   0  0  0  0  0  0  0  0  0  0  0  0
    2.0052   -0.0766    1.3719 O   0  0  0  0  0  0  0  0  0  0  0  0
   -0.0449    0.3566    2.1838 N   0  0  0  0  0  0  0  0  0  0  0  0
   -1.0344    0.1786    2.0466 H   0  0  0  0  0  0  0  0  0  0  0  0
    0.4242    0.6864    3.5240 C   0  0  0  0  0  0  0  0  0  0  0  0
    1.1932    1.4650    3.4810 H   0  0  0  0  0  0  0  0  0  0  0  0
   -0.4049    1.0557    4.1350 H   0  0  0  0  0  0  0  0  0  0  0  0
    0.8469   -0.1996    4.0097 H   0  0  0  0  0  0  0  0  0  0  0  0
  1  2  1  0  0  0  0
  2  3  1  0  0  0  0
  2  4  1  0  0  0  0
  2  5  1  0  0  0  0
  5  6  2  0  0  0  0
  5  7  1  0  0  0  0
  7  8  1  0  0  0  0
  7  9  1  0  0  0  0
  9 10  1  0  0  0  0
  9 11  1  0  0  0  0
  9 22  1  0  0  0  0
 11 12  1  0  0  0  0
 11 13  1  0  0  0  0
 11 14  1  0  0  0  0
 14 15  1  0  0  0  0
 14 16  1  0  0  0  0
 14 17  1  0  0  0  0
 17 18  1  0  0  0  0
 18 19  1  0  0  0  0
 18 20  1  0  0  0  0
 18 21  1  0  0  0  0
 22 23  2  0  0  0  0
 22 24  1  0  0  0  0
 24 25  1  0  0  0  0
 24 26  1  0  0  0  0
 26 27  1  0  0  0  0
 26 28  1  0  0  0  0
 26 29  1  0  0  0  0
M  END
$$$$

  -OEChem-04042216023D

 29 28  0     1  0  0  0  0  0999 V2000
   -2.5928   -4.1260    0.5837 H   0  0  0  0  0  0  0  0  0  0  0  0
   -2.5717   -3.1641    0.0634 C   0  0  0  0  0  0  0  0  0  0  0  0
   -3.4389   -2.5766    0.3741 H   0  0  0  0  0  0  0  0  0  0  0  0
   -2.6288   -3.3470   -1.0124 H   0  0  0  0  0  0  0  0  0  0  0  0
   -1.2927   -2.4190    0.3966 C   0  0  0  0  0  0  0  0  0  0  0  0
   -0.4983   -2.9019    1.1828 O   0  0  0  0  0  0  0  0  0  0  0  0
   -1.0490   -1.1887   -0.1820 N   0  0  0  0  0  0  0  0  0  0  0  0
   -1.6889   -0.9211   -0.9230 H   0  0  0  0  0  0  0  0  0  0  0  0
    0.2621   -0.5117   -0.1446 C   0  0  1  0  0  0  0  0  0  0  0  0
    1.0082   -1.1705   -0.5980 H   0  0  0  0  0  0  0  0  0  0  0  0
    0.1502    0.8133   -0.9292 C   0  0  0  0  0  0  0  0  0  0  0  0
   -0.7341    1.3666   -0.5964 H   0  0  0  0  0  0  0  0  0  0  0  0
    1.0223    1.4298   -0.6850 H   0  0  0  0  0  0  0  0  0  0  0  0
    0.1152    0.6616   -2.4604 C   0  0  0  0  0  0  0  0  0  0  0  0
   -0.8762    0.3087   -2.7601 H   0  0  0  0  0  0  0  0  0  0  0  0
    0.2639    1.6453   -2.9175 H   0  0  0  0  0  0  0  0  0  0  0  0
    1.3647   -0.5079   -3.1411 S   0  0  0  0  0  0  0  0  0  0  0  0
    2.9549    0.1516   -2.4934 C   0  0  0  0  0  0  0  0  0  0  0  0
    2.9842    0.0886   -1.4012 H   0  0  0  0  0  0  0  0  0  0  0  0
    3.7911   -0.4290   -2.8941 H   0  0  0  0  0  0  0  0  0  0  0  0
    3.0815    1.1970   -2.7892 H   0  0  0  0  0  0  0  0  0  0  0  0
    0.7901   -0.2007    1.2746 C   0  0  0  0  0  0  0  0  0  0  0  0
    1.9984   -0.1653    1.4712 O   0  0  0  0  0  0  0  0  0  0  0  0
   -0.0588    0.3380    2.2248 N   0  0  0  0  0  0  0  0  0  0  0  0
   -1.0489    0.1823    2.0659 H   0  0  0  0  0  0  0  0  0  0  0  0
    0.3861    0.6727    3.5719 C   0  0  0  0  0  0  0  0  0  0  0  0
    1.1960    1.4091    3.5373 H   0  0  0  0  0  0  0  0  0  0  0  0
   -0.4400    1.0988    4.1489 H   0  0  0  0  0  0  0  0  0  0  0  0
    0.7467   -0.2231    4.0884 H   0  0  0  0  0  0  0  0  0  0  0  0
  1  2  1  0  0  0  0
  2  3  1  0  0  0  0
  2  4  1  0  0  0  0
  2  5  1  0  0  0  0
  5  6  2  0  0  0  0
  5  7  1  0  0  0  0
  7  8  1  0  0  0  0
  7  9  1  0  0  0  0
  9 10  1  0  0  0  0
  9 11  1  0  0  0  0
  9 22  1  0  0  0  0
 11 12  1  0  0  0  0
 11 13  1  0  0  0  0
 11 14  1  0  0  0  0
 14 15  1  0  0  0  0
 14 16  1  0  0  0  0
 14 17  1  0  0  0  0
 17 18  1  0  0  0  0
 18 19  1  0  0  0  0
 18 20  1  0  0  0  0
 18 21  1  0  0  0  0
 22 23  2  0  0  0  0
 22 24  1  0  0  0  0
 24 25  1  0  0  0  0
 24 26  1  0  0  0  0
 26 27  1  0  0  0  0
 26 28  1  0  0  0  0
 26 29  1  0  0  0  0
M  END
$$$$

  -OEChem-04042216023D

 29 28  0     1  0  0  0  0  0999 V2000
   -2.6529   -4.1207    0.5730 H   0  0  0  0  0  0  0  0  0  0  0  0
   -2.6112   -3.1518    0.0673 C   0  0  0  0  0  0  0  0  0  0  0  0
   -3.4843   -2.5640    0.3601 H   0  0  0  0  0  0  0  0  0  0  0  0
   -2.6371   -3.3194   -1.0122 H   0  0  0  0  0  0  0  0  0  0  0  0
   -1.3388   -2.4190    0.4493 C   0  0  0  0  0  0  0  0  0  0  0  0
   -0.5926   -2.8982    1.2835 O   0  0  0  0  0  0  0  0  0  0  0  0
   -1.0473   -1.2051   -0.1417 N   0  0  0  0  0  0  0  0  0  0  0  0
   -1.6383   -0.9554   -0.9284 H   0  0  0  0  0  0  0  0  0  0  0  0
    0.2790   -0.5618   -0.0737 C   0  0  1  0  0  0  0  0  0  0  0  0
    1.0261   -1.2426   -0.4898 H   0  0  0  0  0  0  0  0  0  0  0  0
    0.2136    0.7588   -0.8729 C   0  0  0  0  0  0  0  0  0  0  0  0
   -0.6540    1.3452   -0.5533 H   0  0  0  0  0  0  0  0  0  0  0  0
    1.1044    1.3417   -0.6133 H   0  0  0  0  0  0  0  0  0  0  0  0
    0.2089    0.6291   -2.4095 C   0  0  0  0  0  0  0  0  0  0  0  0
   -0.8307    0.5532   -2.7425 H   0  0  0  0  0  0  0  0  0  0  0  0
    0.6226    1.5430   -2.8483 H   0  0  0  0  0  0  0  0  0  0  0  0
    1.1062   -0.8289   -3.0857 S   0  0  0  0  0  0  0  0  0  0  0  0
    2.8495   -0.4482   -2.6422 C   0  0  0  0  0  0  0  0  0  0  0  0
    2.9637   -0.3643   -1.5571 H   0  0  0  0  0  0  0  0  0  0  0  0
    3.5087   -1.2449   -2.9996 H   0  0  0  0  0  0  0  0  0  0  0  0
    3.1606    0.4948   -3.1009 H   0  0  0  0  0  0  0  0  0  0  0  0
    0.7671   -0.2425    1.3581 C   0  0  0  0  0  0  0  0  0  0  0  0
    1.9685   -0.2372    1.5962 O   0  0  0  0  0  0  0  0  0  0  0  0
   -0.0995    0.3326    2.2700 N   0  0  0  0  0  0  0  0  0  0  0  0
   -1.0869    0.1996    2.0774 H   0  0  0  0  0  0  0  0  0  0  0  0
    0.3057    0.6735    3.6278 C   0  0  0  0  0  0  0  0  0  0  0  0
    1.1306    1.3937    3.6127 H   0  0  0  0  0  0  0  0  0  0  0  0
   -0.5312    1.1215    4.1718 H   0  0  0  0  0  0  0  0  0  0  0  0
    0.6309   -0.2234    4.1656 H   0  0  0  0  0  0  0  0  0  0  0  0
  1  2  1  0  0  0  0
  2  3  1  0  0  0  0
  2  4  1  0  0  0  0
  2  5  1  0  0  0  0
  5  6  2  0  0  0  0
  5  7  1  0  0  0  0
  7  8  1  0  0  0  0
  7  9  1  0  0  0  0
  9 10  1  0  0  0  0
  9 11  1  0  0  0  0
  9 22  1  0  0  0  0
 11 12  1  0  0  0  0
 11 13  1  0  0  0  0
 11 14  1  0  0  0  0
 14 15  1  0  0  0  0
 14 16  1  0  0  0  0
 14 17  1  0  0  0  0
 17 18  1  0  0  0  0
 18 19  1  0  0  0  0
 18 20  1  0  0  0  0
 18 21  1  0  0  0  0
 22 23  2  0  0  0  0
 22 24  1  0  0  0  0
 24 25  1  0  0  0  0
 24 26  1  0  0  0  0
 26 27  1  0  0  0  0
 26 28  1  0  0  0  0
 26 29  1  0  0  0  0
M  END
$$$$

  -OEChem-04042216023D

 29 28  0     1  0  0  0  0  0999 V2000
   -2.7162   -4.0986    0.6177 H   0  0  0  0  0  0  0  0  0  0  0  0
   -2.6448   -3.1407    0.0947 C   0  0  0  0  0  0  0  0  0  0  0  0
   -3.5205   -2.5371    0.3442 H   0  0  0  0  0  0  0  0  0  0  0  0
   -2.6338   -3.3296   -0.9815 H   0  0  0  0  0  0  0  0  0  0  0  0
   -1.3786   -2.4142    0.5070 C   0  0  0  0  0  0  0  0  0  0  0  0
   -0.6676   -2.8849    1.3763 O   0  0  0  0  0  0  0  0  0  0  0  0
   -1.0544   -1.2151   -0.0968 N   0  0  0  0  0  0  0  0  0  0  0  0
   -1.6045   -0.9889   -0.9199 H   0  0  0  0  0  0  0  0  0  0  0  0
    0.2805   -0.5928   -0.0061 C   0  0  1  0  0  0  0  0  0  0  0  0
    1.0298   -1.2875   -0.3942 H   0  0  0  0  0  0  0  0  0  0  0  0
    0.2549    0.7164   -0.8254 C   0  0  0  0  0  0  0  0  0  0  0  0
   -0.6105    1.3189   -0.5305 H   0  0  0  0  0  0  0  0  0  0  0  0
    1.1476    1.2896   -0.5499 H   0  0  0  0  0  0  0  0  0  0  0  0
    0.2831    0.5789   -2.3635 C   0  0  0  0  0  0  0  0  0  0  0  0
   -0.7244    0.7875   -2.7366 H   0  0  0  0  0  0  0  0  0  0  0  0
    0.9443    1.3443   -2.7827 H   0  0  0  0  0  0  0  0  0  0  0  0
    0.7731   -1.0701   -3.0205 S   0  0  0  0  0  0  0  0  0  0  0  0
    2.5980   -1.0323   -2.7996 C   0  0  0  0  0  0  0  0  0  0  0  0
    2.8578   -0.8733   -1.7488 H   0  0  0  0  0  0  0  0  0  0  0  0
    3.0348   -1.9807   -3.1264 H   0  0  0  0  0  0  0  0  0  0  0  0
    3.0347   -0.2235   -3.3928 H   0  0  0  0  0  0  0  0  0  0  0  0
    0.7358   -0.2592    1.4335 C   0  0  0  0  0  0  0  0  0  0  0  0
    1.9298   -0.2754    1.7055 O   0  0  0  0  0  0  0  0  0  0  0  0
   -0.1447    0.3442    2.3132 N   0  0  0  0  0  0  0  0  0  0  0  0
   -1.1287    0.2243    2.0956 H   0  0  0  0  0  0  0  0  0  0  0  0
    0.2291    0.6947    3.6775 C   0  0  0  0  0  0  0  0  0  0  0  0
    1.0662    1.4010    3.6774 H   0  0  0  0  0  0  0  0  0  0  0  0
   -0.6151    1.1631    4.1924 H   0  0  0  0  0  0  0  0  0  0  0  0
    0.5240   -0.2007    4.2348 H   0  0  0  0  0  0  0  0  0  0  0  0
  1  2  1  0  0  0  0
  2  3  1  0  0  0  0
  2  4  1  0  0  0  0
  2  5  1  0  0  0  0
  5  6  2  0  0  0  0
  5  7  1  0  0  0  0
  7  8  1  0  0  0  0
  7  9  1  0  0  0  0
  9 10  1  0  0  0  0
  9 11  1  0  0  0  0
  9 22  1  0  0  0  0
 11 12  1  0  0  0  0
 11 13  1  0  0  0  0
 11 14  1  0  0  0  0
 14 15  1  0  0  0  0
 14 16  1  0  0  0  0
 14 17  1  0  0  0  0
 17 18  1  0  0  0  0
 18 19  1  0  0  0  0
 18 20  1  0  0  0  0
 18 21  1  0  0  0  0
 22 23  2  0  0  0  0
 22 24  1  0  0  0  0
 24 25  1  0  0  0  0
 24 26  1  0  0  0  0
 26 27  1  0  0  0  0
 26 28  1  0  0  0  0
 26 29  1  0  0  0  0
M  END
$$$$

  -OEChem-04042216023D

 29 28  0     1  0  0  0  0  0999 V2000
   -2.7787   -4.0623    0.7002 H   0  0  0  0  0  0  0  0  0  0  0  0
   -2.6678   -3.1331    0.1341 C   0  0  0  0  0  0  0  0  0  0  0  0
   -3.5472   -2.5081    0.3067 H   0  0  0  0  0  0  0  0  0  0  0  0
   -2.6034   -3.3760   -0.9295 H   0  0  0  0  0  0  0  0  0  0  0  0
   -1.4153   -2.3998    0.5749 C   0  0  0  0  0  0  0  0  0  0  0  0
   -0.7303   -2.8568    1.4723 O   0  0  0  0  0  0  0  0  0  0  0  0
   -1.0705   -1.2141   -0.0427 N   0  0  0  0  0  0  0  0  0  0  0  0
   -1.5891   -1.0141   -0.8935 H   0  0  0  0  0  0  0  0  0  0  0  0
    0.2693   -0.6040    0.0579 C   0  0  1  0  0  0  0  0  0  0  0  0
    1.0175   -1.3099   -0.3129 H   0  0  0  0  0  0  0  0  0  0  0  0
    0.2779    0.6873   -0.7874 C   0  0  0  0  0  0  0  0  0  0  0  0
   -0.5978    1.2903   -0.5258 H   0  0  0  0  0  0  0  0  0  0  0  0
    1.1596    1.2717   -0.5006 H   0  0  0  0  0  0  0  0  0  0  0  0
    0.3343    0.5186   -2.3230 C   0  0  0  0  0  0  0  0  0  0  0  0
   -0.5517    0.9998   -2.7492 H   0  0  0  0  0  0  0  0  0  0  0  0
    1.2055    1.0569   -2.7103 H   0  0  0  0  0  0  0  0  0  0  0  0
    0.3837   -1.2145   -2.9484 S   0  0  0  0  0  0  0  0  0  0  0  0
    2.1877   -1.5681   -2.9593 C   0  0  0  0  0  0  0  0  0  0  0  0
    2.6148   -1.4353   -1.9608 H   0  0  0  0  0  0  0  0  0  0  0  0
    2.3651   -2.5992   -3.2793 H   0  0  0  0  0  0  0  0  0  0  0  0
    2.7009   -0.8944   -3.6517 H   0  0  0  0  0  0  0  0  0  0  0  0
    0.7065   -0.2525    1.4986 C   0  0  0  0  0  0  0  0  0  0  0  0
    1.8964   -0.2750    1.7877 O   0  0  0  0  0  0  0  0  0  0  0  0
   -0.1811    0.3735    2.3550 N   0  0  0  0  0  0  0  0  0  0  0  0
   -1.1630    0.2551    2.1260 H   0  0  0  0  0  0  0  0  0  0  0  0
    0.1764    0.7436    3.7186 C   0  0  0  0  0  0  0  0  0  0  0  0
    1.0222    1.4393    3.7188 H   0  0  0  0  0  0  0  0  0  0  0  0
   -0.6690    1.2318    4.2126 H   0  0  0  0  0  0  0  0  0  0  0  0
    0.4517   -0.1455    4.2957 H   0  0  0  0  0  0  0  0  0  0  0  0
  1  2  1  0  0  0  0
  2  3  1  0  0  0  0
  2  4  1  0  0  0  0
  2  5  1  0  0  0  0
  5  6  2  0  0  0  0
  5  7  1  0  0  0  0
  7  8  1  0  0  0  0
  7  9  1  0  0  0  0
  9 10  1  0  0  0  0
  9 11  1  0  0  0  0
  9 22  1  0  0  0  0
 11 12  1  0  0  0  0
 11 13  1  0  0  0  0
 11 14  1  0  0  0  0
 14 15  1  0  0  0  0
 14 16  1  0  0  0  0
 14 17  1  0  0  0  0
 17 18  1  0  0  0  0
 18 19  1  0  0  0  0
 18 20  1  0  0  0  0
 18 21  1  0  0  0  0
 22 23  2  0  0  0  0
 22 24  1  0  0  0  0
 24 25  1  0  0  0  0
 24 26  1  0  0  0  0
 26 27  1  0  0  0  0
 26 28  1  0  0  0  0
 26 29  1  0  0  0  0
M  END
$$$$

  -OEChem-04042216023D

 29 28  0     1  0  0  0  0  0999 V2000
   -2.4015   -3.8576   -0.3133 H   0  0  0  0  0  0  0  0  0  0  0  0
   -2.7056   -2.8086   -0.3700 C   0  0  0  0  0  0  0  0  0  0  0  0
   -3.6876   -2.6985    0.0957 H   0  0  0  0  0  0  0  0  0  0  0  0
   -2.7707   -2.5207   -1.4220 H   0  0  0  0  0  0  0  0  0  0  0  0
   -1.6889   -1.9366    0.3413 C   0  0  0  0  0  0  0  0  0  0  0  0
   -0.8682   -2.4428    1.0871 O   0  0  0  0  0  0  0  0  0  0  0  0
   -1.8716   -0.5725    0.4072 N   0  0  0  0  0  0  0  0  0  0  0  0
   -2.7407   -0.2914   -0.0349 H   0  0  0  0  0  0  0  0  0  0  0  0
   -0.7948    0.4381    0.2806 C   0  0  1  0  0  0  0  0  0  0  0  0
   -1.2924    1.3596    0.5973 H   0  0  0  0  0  0  0  0  0  0  0  0
   -0.3218    0.7801   -1.1623 C   0  0  0  0  0  0  0  0  0  0  0  0
   -1.2331    0.9403   -1.7463 H   0  0  0  0  0  0  0  0  0  0  0  0
    0.1876    1.7488   -1.1131 H   0  0  0  0  0  0  0  0  0  0  0  0
    0.5770   -0.1479   -2.0135 C   0  0  0  0  0  0  0  0  0  0  0  0
    0.2236   -0.1269   -3.0490 H   0  0  0  0  0  0  0  0  0  0  0  0
    1.5786    0.2952   -2.0070 H   0  0  0  0  0  0  0  0  0  0  0  0
    0.7900   -1.8942   -1.5074 S   0  0  0  0  0  0  0  0  0  0  0  0
    2.2107   -2.4118   -2.5467 C   0  0  0  0  0  0  0  0  0  0  0  0
    3.0944   -1.8146   -2.3021 H   0  0  0  0  0  0  0  0  0  0  0  0
    2.4410   -3.4660   -2.3668 H   0  0  0  0  0  0  0  0  0  0  0  0
    1.9759   -2.2789   -3.6067 H   0  0  0  0  0  0  0  0  0  0  0  0
    0.3398    0.3397    1.3305 C   0  0  0  0  0  0  0  0  0  0  0  0
    1.4742    0.7162    1.0550 O   0  0  0  0  0  0  0  0  0  0  0  0
    0.0075    0.1456    2.6578 N   0  0  0  0  0  0  0  0  0  0  0  0
   -0.8540   -0.3796    2.7874 H   0  0  0  0  0  0  0  0  0  0  0  0
    1.0239    0.0350    3.6963 C   0  0  0  0  0  0  0  0  0  0  0  0
    1.6179    0.9531    3.7533 H   0  0  0  0  0  0  0  0  0  0  0  0
    0.5520   -0.1298    4.6695 H   0  0  0  0  0  0  0  0  0  0  0  0
    1.6936   -0.8059    3.4869 H   0  0  0  0  0  0  0  0  0  0  0  0
  1  2  1  0  0  0  0
  2  3  1  0  0  0  0
  2  4  1  0  0  0  0
  2  5  1  0  0  0  0
  5  6  2  0  0  0  0
  5  7  1  0  0  0  0
  7  8  1  0  0  0  0
  7  9  1  0  0  0  0
  9 10  1  0  0  0  0
  9 11  1  0  0  0  0
  9 22  1  0  0  0  0
 11 12  1  0  0  0  0
 11 13  1  0  0  0  0
 11 14  1  0  0  0  0
 14 15  1  0  0  0  0
 14 16  1  0  0  0  0
 14 17  1  0  0  0  0
 17 18  1  0  0  0  0
 18 19  1  0  0  0  0
 18 20  1  0  0  0  0
 18 21  1  0  0  0  0
 22 23  2  0  0  0  0
 22 24  1  0  0  0  0
 24 25  1  0  0  0  0
 24 26  1  0  0  0  0
 26 27  1  0  0  0  0
 26 28  1  0  0  0  0
 26 29  1  0  0  0  0
M  END
$$$$

  -OEChem-04042216023D

 29 28  0     1  0  0  0  0  0999 V2000
   -2.9163   -3.6361   -0.1894 H   0  0  0  0  0  0  0  0  0  0  0  0
   -3.0900   -2.5580   -0.2516 C   0  0  0  0  0  0  0  0  0  0  0  0
   -3.9925   -2.3120    0.3127 H   0  0  0  0  0  0  0  0  0  0  0  0
   -3.2352   -2.2881   -1.3004 H   0  0  0  0  0  0  0  0  0  0  0  0
   -1.8995   -1.8072    0.3138 C   0  0  0  0  0  0  0  0  0  0  0  0
   -1.0291   -2.4118    0.9170 O   0  0  0  0  0  0  0  0  0  0  0  0
   -1.9260   -0.4311    0.3957 N   0  0  0  0  0  0  0  0  0  0  0  0
   -2.7905   -0.0466    0.0284 H   0  0  0  0  0  0  0  0  0  0  0  0
   -0.7529    0.4571    0.2195 C   0  0  1  0  0  0  0  0  0  0  0  0
   -1.1348    1.4172    0.5793 H   0  0  0  0  0  0  0  0  0  0  0  0
   -0.3044    0.8037   -1.2315 C   0  0  0  0  0  0  0  0  0  0  0  0
   -1.2185    1.0769   -1.7667 H   0  0  0  0  0  0  0  0  0  0  0  0
    0.3083    1.7101   -1.1774 H   0  0  0  0  0  0  0  0  0  0  0  0
    0.4472   -0.1840   -2.1517 C   0  0  0  0  0  0  0  0  0  0  0  0
    0.2694    0.0950   -3.1947 H   0  0  0  0  0  0  0  0  0  0  0  0
    1.5140   -0.0302   -1.9579 H   0  0  0  0  0  0  0  0  0  0  0  0
    0.1406   -1.9797   -1.9650 S   0  0  0  0  0  0  0  0  0  0  0  0
    1.8191   -2.6775   -2.2168 C   0  0  0  0  0  0  0  0  0  0  0  0
    2.5020   -2.2981   -1.4501 H   0  0  0  0  0  0  0  0  0  0  0  0
    1.7868   -3.7685   -2.1452 H   0  0  0  0  0  0  0  0  0  0  0  0
    2.2038   -2.4002   -3.2024 H   0  0  0  0  0  0  0  0  0  0  0  0
    0.4121    0.2184    1.2125 C   0  0  0  0  0  0  0  0  0  0  0  0
    1.5719    0.4350    0.8771 O   0  0  0  0  0  0  0  0  0  0  0  0
    0.1265    0.0457    2.5537 N   0  0  0  0  0  0  0  0  0  0  0  0
   -0.7922   -0.3527    2.7300 H   0  0  0  0  0  0  0  0  0  0  0  0
    1.1710   -0.2031    3.5392 C   0  0  0  0  0  0  0  0  0  0  0  0
    1.8677    0.6406    3.5822 H   0  0  0  0  0  0  0  0  0  0  0  0
    0.7295   -0.3353    4.5315 H   0  0  0  0  0  0  0  0  0  0  0  0
    1.7302   -1.1093    3.2832 H   0  0  0  0  0  0  0  0  0  0  0  0
  1  2  1  0  0  0  0
  2  3  1  0  0  0  0
  2  4  1  0  0  0  0
  2  5  1  0  0  0  0
  5  6  2  0  0  0  0
  5  7  1  0  0  0  0
  7  8  1  0  0  0  0
  7  9  1  0  0  0  0
  9 10  1  0  0  0  0
  9 11  1  0  0  0  0
  9 22  1  0  0  0  0
 11 12  1  0  0  0  0
 11 13  1  0  0  0  0
 11 14  1  0  0  0  0
 14 15  1  0  0  0  0
 14 16  1  0  0  0  0
 14 17  1  0  0  0  0
 17 18  1  0  0  0  0
 18 19  1  0  0  0  0
 18 20  1  0  0  0  0
 18 21  1  0  0  0  0
 22 23  2  0  0  0  0
 22 24  1  0  0  0  0
 24 25  1  0  0  0  0
 24 26  1  0  0  0  0
 26 27  1  0  0  0  0
 26 28  1  0  0  0  0
 26 29  1  0  0  0  0
M  END
$$$$

  -OEChem-04042216023D

 29 28  0     1  0  0  0  0  0999 V2000
   -2.7951   -4.0289    0.9092 H   0  0  0  0  0  0  0  0  0  0  0  0
   -2.7189   -3.0898    0.3536 C   0  0  0  0  0  0  0  0  0  0  0  0
   -3.5690   -2.4552    0.6150 H   0  0  0  0  0  0  0  0  0  0  0  0
   -2.7525   -3.3106   -0.7162 H   0  0  0  0  0  0  0  0  0  0  0  0
   -1.4212   -2.3837    0.6961 C   0  0  0  0  0  0  0  0  0  0  0  0
   -0.6673   -2.8646    1.5226 O   0  0  0  0  0  0  0  0  0  0  0  0
   -1.0992   -1.2068    0.0519 N   0  0  0  0  0  0  0  0  0  0  0  0
   -1.6794   -0.9816   -0.7541 H   0  0  0  0  0  0  0  0  0  0  0  0
    0.2370   -0.5847    0.0874 C   0  0  1  0  0  0  0  0  0  0  0  0
    0.9683   -1.2991   -0.3040 H   0  0  0  0  0  0  0  0  0  0  0  0
    0.2546    0.6782   -0.8001 C   0  0  0  0  0  0  0  0  0  0  0  0
   -0.6291    1.2788   -0.5623 H   0  0  0  0  0  0  0  0  0  0  0  0
    1.1320    1.2824   -0.5433 H   0  0  0  0  0  0  0  0  0  0  0  0
    0.2911    0.4351   -2.3228 C   0  0  0  0  0  0  0  0  0  0  0  0
    0.0720    1.3806   -2.8296 H   0  0  0  0  0  0  0  0  0  0  0  0
    1.3084    0.1455   -2.6056 H   0  0  0  0  0  0  0  0  0  0  0  0
   -0.8735   -0.8517   -2.9480 S   0  0  0  0  0  0  0  0  0  0  0  0
    0.2113   -2.3218   -3.1480 C   0  0  0  0  0  0  0  0  0  0  0  0
    0.6377   -2.6206   -2.1864 H   0  0  0  0  0  0  0  0  0  0  0  0
   -0.3656   -3.1612   -3.5477 H   0  0  0  0  0  0  0  0  0  0  0  0
    1.0281   -2.0993   -3.8411 H   0  0  0  0  0  0  0  0  0  0  0  0
    0.7230   -0.2092    1.5057 C   0  0  0  0  0  0  0  0  0  0  0  0
    1.9209   -0.2335    1.7585 O   0  0  0  0  0  0  0  0  0  0  0  0
   -0.1383    0.4213    2.3852 N   0  0  0  0  0  0  0  0  0  0  0  0
   -1.1272    0.3219    2.1791 H   0  0  0  0  0  0  0  0  0  0  0  0
    0.2599    0.8095    3.7322 C   0  0  0  0  0  0  0  0  0  0  0  0
    1.0953    1.5167    3.6969 H   0  0  0  0  0  0  0  0  0  0  0  0
   -0.5754    1.2904    4.2499 H   0  0  0  0  0  0  0  0  0  0  0  0
    0.5667   -0.0700    4.3080 H   0  0  0  0  0  0  0  0  0  0  0  0
  1  2  1  0  0  0  0
  2  3  1  0  0  0  0
  2  4  1  0  0  0  0
  2  5  1  0  0  0  0
  5  6  2  0  0  0  0
  5  7  1  0  0  0  0
  7  8  1  0  0  0  0
  7  9  1  0  0  0  0
  9 10  1  0  0  0  0
  9 11  1  0  0  0  0
  9 22  1  0  0  0  0
 11 12  1  0  0  0  0
 11 13  1  0  0  0  0
 11 14  1  0  0  0  0
 14 15  1  0  0  0  0
 14 16  1  0  0  0  0
 14 17  1  0  0  0  0
 17 18  1  0  0  0  0
 18 19  1  0  0  0  0
 18 20  1  0  0  0  0
 18 21  1  0  0  0  0
 22 23  2  0  0  0  0
 22 24  1  0  0  0  0
 24 25  1  0  0  0  0
 24 26  1  0  0  0  0
 26 27  1  0  0  0  0
 26 28  1  0  0  0  0
 26 29  1  0  0  0  0
M  END
$$$$

  -OEChem-04042216023D

 29 28  0     1  0  0  0  0  0999 V2000
   -2.7948   -4.0218    0.9374 H   0  0  0  0  0  0  0  0  0  0  0  0
   -2.7419   -3.0616    0.4166 C   0  0  0  0  0  0  0  0  0  0  0  0
   -3.5655   -2.4299    0.7577 H   0  0  0  0  0  0  0  0  0  0  0  0
   -2.8469   -3.2375   -0.6568 H   0  0  0  0  0  0  0  0  0  0  0  0
   -1.4155   -2.3845    0.7040 C   0  0  0  0  0  0  0  0  0  0  0  0
   -0.6287   -2.8935    1.4813 O   0  0  0  0  0  0  0  0  0  0  0  0
   -1.1037   -1.2013    0.0666 N   0  0  0  0  0  0  0  0  0  0  0  0
   -1.7262   -0.9316   -0.6933 H   0  0  0  0  0  0  0  0  0  0  0  0
    0.2311   -0.5761    0.0802 C   0  0  1  0  0  0  0  0  0  0  0  0
    0.9538   -1.2868   -0.3350 H   0  0  0  0  0  0  0  0  0  0  0  0
    0.2223    0.6925   -0.7987 C   0  0  0  0  0  0  0  0  0  0  0  0
   -0.6485    1.3042   -0.5416 H   0  0  0  0  0  0  0  0  0  0  0  0
    1.1145    1.2856   -0.5678 H   0  0  0  0  0  0  0  0  0  0  0  0
    0.2271    0.4251   -2.3143 C   0  0  0  0  0  0  0  0  0  0  0  0
    0.2359    1.3875   -2.8365 H   0  0  0  0  0  0  0  0  0  0  0  0
    1.1487   -0.0999   -2.5858 H   0  0  0  0  0  0  0  0  0  0  0  0
   -1.2253   -0.5433   -2.9058 S   0  0  0  0  0  0  0  0  0  0  0  0
   -0.4717   -2.1870   -3.2331 C   0  0  0  0  0  0  0  0  0  0  0  0
   -0.0243   -2.5925   -2.3207 H   0  0  0  0  0  0  0  0  0  0  0  0
   -1.2338   -2.8864   -3.5894 H   0  0  0  0  0  0  0  0  0  0  0  0
    0.3068   -2.1011   -3.9971 H   0  0  0  0  0  0  0  0  0  0  0  0
    0.7446   -0.2129    1.4914 C   0  0  0  0  0  0  0  0  0  0  0  0
    1.9466   -0.2400    1.7225 O   0  0  0  0  0  0  0  0  0  0  0  0
   -0.1015    0.4067    2.3928 N   0  0  0  0  0  0  0  0  0  0  0  0
   -1.0937    0.3137    2.2002 H   0  0  0  0  0  0  0  0  0  0  0  0
    0.3183    0.7792    3.7375 C   0  0  0  0  0  0  0  0  0  0  0  0
    1.1595    1.4792    3.6973 H   0  0  0  0  0  0  0  0  0  0  0  0
   -0.5058    1.2627    4.2704 H   0  0  0  0  0  0  0  0  0  0  0  0
    0.6250   -0.1081    4.3012 H   0  0  0  0  0  0  0  0  0  0  0  0
  1  2  1  0  0  0  0
  2  3  1  0  0  0  0
  2  4  1  0  0  0  0
  2  5  1  0  0  0  0
  5  6  2  0  0  0  0
  5  7  1  0  0  0  0
  7  8  1  0  0  0  0
  7  9  1  0  0  0  0
  9 10  1  0  0  0  0
  9 11  1  0  0  0  0
  9 22  1  0  0  0  0
 11 12  1  0  0  0  0
 11 13  1  0  0  0  0
 11 14  1  0  0  0  0
 14 15  1  0  0  0  0
 14 16  1  0  0  0  0
 14 17  1  0  0  0  0
 17 18  1  0  0  0  0
 18 19  1  0  0  0  0
 18 20  1  0  0  0  0
 18 21  1  0  0  0  0
 22 23  2  0  0  0  0
 22 24  1  0  0  0  0
 24 25  1  0  0  0  0
 24 26  1  0  0  0  0
 26 27  1  0  0  0  0
 26 28  1  0  0  0  0
 26 29  1  0  0  0  0
M  END
$$$$

  -OEChem-04042216023D

 29 28  0     1  0  0  0  0  0999 V2000
   -2.9111   -3.9382    1.6750 H   0  0  0  0  0  0  0  0  0  0  0  0
   -2.7831   -3.1353    0.9433 C   0  0  0  0  0  0  0  0  0  0  0  0
   -3.5961   -2.4156    1.0648 H   0  0  0  0  0  0  0  0  0  0  0  0
   -2.8308   -3.5631   -0.0611 H   0  0  0  0  0  0  0  0  0  0  0  0
   -1.4463   -2.4488    1.1497 C   0  0  0  0  0  0  0  0  0  0  0  0
   -0.6808   -2.8538    2.0060 O   0  0  0  0  0  0  0  0  0  0  0  0
   -1.1096   -1.3656    0.3640 N   0  0  0  0  0  0  0  0  0  0  0  0
   -1.7246   -1.1877   -0.4285 H   0  0  0  0  0  0  0  0  0  0  0  0
    0.2383   -0.7737    0.2983 C   0  0  1  0  0  0  0  0  0  0  0  0
    0.9455   -1.5449   -0.0262 H   0  0  0  0  0  0  0  0  0  0  0  0
    0.2312    0.3733   -0.7321 C   0  0  0  0  0  0  0  0  0  0  0  0
   -0.6172    1.0415   -0.5508 H   0  0  0  0  0  0  0  0  0  0  0  0
    1.1443    0.9638   -0.5977 H   0  0  0  0  0  0  0  0  0  0  0  0
    0.2118   -0.1218   -2.1852 C   0  0  0  0  0  0  0  0  0  0  0  0
    0.4758    0.7095   -2.8470 H   0  0  0  0  0  0  0  0  0  0  0  0
    0.9639   -0.9058   -2.3227 H   0  0  0  0  0  0  0  0  0  0  0  0
   -1.4494   -0.7527   -2.6672 S   0  0  0  0  0  0  0  0  0  0  0  0
   -1.1417   -1.2711   -4.4012 C   0  0  0  0  0  0  0  0  0  0  0  0
   -0.3534   -2.0292   -4.4367 H   0  0  0  0  0  0  0  0  0  0  0  0
   -2.0528   -1.6934   -4.8355 H   0  0  0  0  0  0  0  0  0  0  0  0
   -0.8323   -0.4122   -5.0042 H   0  0  0  0  0  0  0  0  0  0  0  0
    0.7667   -0.2399    1.6489 C   0  0  0  0  0  0  0  0  0  0  0  0
    1.9696   -0.2617    1.8764 O   0  0  0  0  0  0  0  0  0  0  0  0
   -0.0583    0.5121    2.4653 N   0  0  0  0  0  0  0  0  0  0  0  0
   -1.0538    0.4171    2.2917 H   0  0  0  0  0  0  0  0  0  0  0  0
    0.3811    1.0419    3.7500 C   0  0  0  0  0  0  0  0  0  0  0  0
    1.2094    1.7449    3.6123 H   0  0  0  0  0  0  0  0  0  0  0  0
   -0.4405    1.5703    4.2428 H   0  0  0  0  0  0  0  0  0  0  0  0
    0.7141    0.2294    4.4046 H   0  0  0  0  0  0  0  0  0  0  0  0
  1  2  1  0  0  0  0
  2  3  1  0  0  0  0
  2  4  1  0  0  0  0
  2  5  1  0  0  0  0
  5  6  2  0  0  0  0
  5  7  1  0  0  0  0
  7  8  1  0  0  0  0
  7  9  1  0  0  0  0
  9 10  1  0  0  0  0
  9 11  1  0  0  0  0
  9 22  1  0  0  0  0
 11 12  1  0  0  0  0
 11 13  1  0  0  0  0
 11 14  1  0  0  0  0
 14 15  1  0  0  0  0
 14 16  1  0  0  0  0
 14 17  1  0  0  0  0
 17 18  1  0  0  0  0
 18 19  1  0  0  0  0
 18 20  1  0  0  0  0
 18 21  1  0  0  0  0
 22 23  2  0  0  0  0
 22 24  1  0  0  0  0
 24 25  1  0  0  0  0
 24 26  1  0  0  0  0
 26 27  1  0  0  0  0
 26 28  1  0  0  0  0
 26 29  1  0  0  0  0
M  END
$$$$

  -OEChem-04042216023D

 29 28  0     1  0  0  0  0  0999 V2000
   -2.6731   -4.1217    1.6279 H   0  0  0  0  0  0  0  0  0  0  0  0
   -2.6784   -3.2123    1.0204 C   0  0  0  0  0  0  0  0  0  0  0  0
   -3.4683   -2.5506    1.3834 H   0  0  0  0  0  0  0  0  0  0  0  0
   -2.8879   -3.4845   -0.0169 H   0  0  0  0  0  0  0  0  0  0  0  0
   -1.3342   -2.5151    1.1137 C   0  0  0  0  0  0  0  0  0  0  0  0
   -0.4717   -2.9547    1.8523 O   0  0  0  0  0  0  0  0  0  0  0  0
   -1.0977   -1.3836    0.3603 N   0  0  0  0  0  0  0  0  0  0  0  0
   -1.8038   -1.1522   -0.3367 H   0  0  0  0  0  0  0  0  0  0  0  0
    0.2203   -0.7399    0.2142 C   0  0  1  0  0  0  0  0  0  0  0  0
    0.9257   -1.4609   -0.2130 H   0  0  0  0  0  0  0  0  0  0  0  0
    0.0513    0.4528   -0.7430 C   0  0  0  0  0  0  0  0  0  0  0  0
   -0.7961    1.0786   -0.4441 H   0  0  0  0  0  0  0  0  0  0  0  0
    0.9514    1.0741   -0.6758 H   0  0  0  0  0  0  0  0  0  0  0  0
   -0.0921    0.0018   -2.2014 C   0  0  0  0  0  0  0  0  0  0  0  0
    0.2948    0.7881   -2.8579 H   0  0  0  0  0  0  0  0  0  0  0  0
    0.4918   -0.9048   -2.3912 H   0  0  0  0  0  0  0  0  0  0  0  0
   -1.8663   -0.2728   -2.6008 S   0  0  0  0  0  0  0  0  0  0  0  0
   -1.7563   -0.7527   -4.3694 C   0  0  0  0  0  0  0  0  0  0  0  0
   -2.7553   -0.9532   -4.7679 H   0  0  0  0  0  0  0  0  0  0  0  0
   -1.3023    0.0532   -4.9539 H   0  0  0  0  0  0  0  0  0  0  0  0
   -1.1471   -1.6547   -4.4811 H   0  0  0  0  0  0  0  0  0  0  0  0
    0.8476   -0.2509    1.5391 C   0  0  0  0  0  0  0  0  0  0  0  0
    2.0658   -0.2382    1.6610 O   0  0  0  0  0  0  0  0  0  0  0  0
    0.0721    0.4320    2.4585 N   0  0  0  0  0  0  0  0  0  0  0  0
   -0.9315    0.3130    2.3646 H   0  0  0  0  0  0  0  0  0  0  0  0
    0.6038    0.9380    3.7176 C   0  0  0  0  0  0  0  0  0  0  0  0
    1.4142    1.6511    3.5331 H   0  0  0  0  0  0  0  0  0  0  0  0
   -0.1817    1.4494    4.2819 H   0  0  0  0  0  0  0  0  0  0  0  0
    0.9910    0.1146    4.3271 H   0  0  0  0  0  0  0  0  0  0  0  0
  1  2  1  0  0  0  0
  2  3  1  0  0  0  0
  2  4  1  0  0  0  0
  2  5  1  0  0  0  0
  5  6  2  0  0  0  0
  5  7  1  0  0  0  0
  7  8  1  0  0  0  0
  7  9  1  0  0  0  0
  9 10  1  0  0  0  0
  9 11  1  0  0  0  0
  9 22  1  0  0  0  0
 11 12  1  0  0  0  0
 11 13  1  0  0  0  0
 11 14  1  0  0  0  0
 14 15  1  0  0  0  0
 14 16  1  0  0  0  0
 14 17  1  0  0  0  0
 17 18  1  0  0  0  0
 18 19  1  0  0  0  0
 18 20  1  0  0  0  0
 18 21  1  0  0  0  0
 22 23  2  0  0  0  0
 22 24  1  0  0  0  0
 24 25  1  0  0  0  0
 24 26  1  0  0  0  0
 26 27  1  0  0  0  0
 26 28  1  0  0  0  0
 26 29  1  0  0  0  0
M  END
$$$$

  -OEChem-04042216023D

 29 28  0     1  0  0  0  0  0999 V2000
   -2.7465   -4.0771    1.6215 H   0  0  0  0  0  0  0  0  0  0  0  0
   -2.7391   -3.1775    0.9992 C   0  0  0  0  0  0  0  0  0  0  0  0
   -3.5019   -2.4880    1.3686 H   0  0  0  0  0  0  0  0  0  0  0  0
   -2.9787   -3.4591   -0.0290 H   0  0  0  0  0  0  0  0  0  0  0  0
   -1.3740   -2.5179    1.0520 C   0  0  0  0  0  0  0  0  0  0  0  0
   -0.4880   -3.0067    1.7291 O   0  0  0  0  0  0  0  0  0  0  0  0
   -1.1459   -1.3611    0.3350 N   0  0  0  0  0  0  0  0  0  0  0  0
   -1.8845   -1.0684   -0.3017 H   0  0  0  0  0  0  0  0  0  0  0  0
    0.1720   -0.7175    0.1850 C   0  0  1  0  0  0  0  0  0  0  0  0
    0.8681   -1.4210   -0.2853 H   0  0  0  0  0  0  0  0  0  0  0  0
   -0.0299    0.5073   -0.7209 C   0  0  0  0  0  0  0  0  0  0  0  0
   -0.8689    1.1185   -0.3714 H   0  0  0  0  0  0  0  0  0  0  0  0
    0.8684    1.1316   -0.6581 H   0  0  0  0  0  0  0  0  0  0  0  0
   -0.2134    0.0999   -2.1887 C   0  0  0  0  0  0  0  0  0  0  0  0
    0.3790    0.7674   -2.8230 H   0  0  0  0  0  0  0  0  0  0  0  0
    0.1364   -0.9220   -2.3677 H   0  0  0  0  0  0  0  0  0  0  0  0
   -1.9834    0.2637   -2.6540 S   0  0  0  0  0  0  0  0  0  0  0  0
   -1.9248   -0.1986   -4.4299 C   0  0  0  0  0  0  0  0  0  0  0  0
   -1.5459   -1.2186   -4.5448 H   0  0  0  0  0  0  0  0  0  0  0  0
   -2.9274   -0.1466   -4.8651 H   0  0  0  0  0  0  0  0  0  0  0  0
   -1.2696    0.4851   -4.9782 H   0  0  0  0  0  0  0  0  0  0  0  0
    0.8289   -0.2781    1.5129 C   0  0  0  0  0  0  0  0  0  0  0  0
    2.0490   -0.2831    1.6127 O   0  0  0  0  0  0  0  0  0  0  0  0
    0.0779    0.3751    2.4734 N   0  0  0  0  0  0  0  0  0  0  0  0
   -0.9290    0.2777    2.3921 H   0  0  0  0  0  0  0  0  0  0  0  0
    0.6397    0.8294    3.7392 C   0  0  0  0  0  0  0  0  0  0  0  0
    1.4666    1.5262    3.5652 H   0  0  0  0  0  0  0  0  0  0  0  0
   -0.1243    1.3443    4.3293 H   0  0  0  0  0  0  0  0  0  0  0  0
    1.0130   -0.0220    4.3183 H   0  0  0  0  0  0  0  0  0  0  0  0
  1  2  1  0  0  0  0
  2  3  1  0  0  0  0
  2  4  1  0  0  0  0
  2  5  1  0  0  0  0
  5  6  2  0  0  0  0
  5  7  1  0  0  0  0
  7  8  1  0  0  0  0
  7  9  1  0  0  0  0
  9 10  1  0  0  0  0
  9 11  1  0  0  0  0
  9 22  1  0  0  0  0
 11 12  1  0  0  0  0
 11 13  1  0  0  0  0
 11 14  1  0  0  0  0
 14 15  1  0  0  0  0
 14 16  1  0  0  0  0
 14 17  1  0  0  0  0
 17 18  1  0  0  0  0
 18 19  1  0  0  0  0
 18 20  1  0  0  0  0
 18 21  1  0  0  0  0
 22 23  2  0  0  0  0
 22 24  1  0  0  0  0
 24 25  1  0  0  0  0
 24 26  1  0  0  0  0
 26 27  1  0  0  0  0
 26 28  1  0  0  0  0
 26 29  1  0  0  0  0
M  END
$$$$

  -OEChem-04042216023D

 29 28  0     1  0  0  0  0  0999 V2000
   -2.6572   -4.0911    0.6552 H   0  0  0  0  0  0  0  0  0  0  0  0
   -2.6180   -3.1133    0.1664 C   0  0  0  0  0  0  0  0  0  0  0  0
   -3.4201   -2.4883    0.5661 H   0  0  0  0  0  0  0  0  0  0  0  0
   -2.7710   -3.2521   -0.9065 H   0  0  0  0  0  0  0  0  0  0  0  0
   -1.2739   -2.4575    0.4204 C   0  0  0  0  0  0  0  0  0  0  0  0
   -0.4502   -3.0126    1.1233 O   0  0  0  0  0  0  0  0  0  0  0  0
   -0.9940   -1.2299   -0.1459 N   0  0  0  0  0  0  0  0  0  0  0  0
   -1.6789   -0.8608   -0.7966 H   0  0  0  0  0  0  0  0  0  0  0  0
    0.3154   -0.5583   -0.0751 C   0  0  1  0  0  0  0  0  0  0  0  0
    1.0755   -1.2126   -0.5169 H   0  0  0  0  0  0  0  0  0  0  0  0
    0.2447    0.7527   -0.8798 C   0  0  0  0  0  0  0  0  0  0  0  0
   -0.6454    1.3220   -0.5925 H   0  0  0  0  0  0  0  0  0  0  0  0
    1.1136    1.3701   -0.6248 H   0  0  0  0  0  0  0  0  0  0  0  0
    0.2686    0.5135   -2.3986 C   0  0  0  0  0  0  0  0  0  0  0  0
    1.1415    1.0213   -2.8222 H   0  0  0  0  0  0  0  0  0  0  0  0
    0.3732   -0.5523   -2.6261 H   0  0  0  0  0  0  0  0  0  0  0  0
   -1.2455    1.1661   -3.2208 S   0  0  0  0  0  0  0  0  0  0  0  0
   -2.5992    0.0162   -2.7585 C   0  0  0  0  0  0  0  0  0  0  0  0
   -2.8737    0.1537   -1.7095 H   0  0  0  0  0  0  0  0  0  0  0  0
   -3.4820    0.2180   -3.3730 H   0  0  0  0  0  0  0  0  0  0  0  0
   -2.2914   -1.0209   -2.9223 H   0  0  0  0  0  0  0  0  0  0  0  0
    0.7947   -0.2534    1.3626 C   0  0  0  0  0  0  0  0  0  0  0  0
    1.9925   -0.2588    1.6134 O   0  0  0  0  0  0  0  0  0  0  0  0
   -0.0836    0.2855    2.2856 N   0  0  0  0  0  0  0  0  0  0  0  0
   -1.0707    0.1928    2.0706 H   0  0  0  0  0  0  0  0  0  0  0  0
    0.3104    0.6142    3.6497 C   0  0  0  0  0  0  0  0  0  0  0  0
    1.1193    1.3524    3.6483 H   0  0  0  0  0  0  0  0  0  0  0  0
   -0.5378    1.0351    4.1977 H   0  0  0  0  0  0  0  0  0  0  0  0
    0.6537   -0.2834    4.1748 H   0  0  0  0  0  0  0  0  0  0  0  0
  1  2  1  0  0  0  0
  2  3  1  0  0  0  0
  2  4  1  0  0  0  0
  2  5  1  0  0  0  0
  5  6  2  0  0  0  0
  5  7  1  0  0  0  0
  7  8  1  0  0  0  0
  7  9  1  0  0  0  0
  9 10  1  0  0  0  0
  9 11  1  0  0  0  0
  9 22  1  0  0  0  0
 11 12  1  0  0  0  0
 11 13  1  0  0  0  0
 11 14  1  0  0  0  0
 14 15  1  0  0  0  0
 14 16  1  0  0  0  0
 14 17  1  0  0  0  0
 17 18  1  0  0  0  0
 18 19  1  0  0  0  0
 18 20  1  0  0  0  0
 18 21  1  0  0  0  0
 22 23  2  0  0  0  0
 22 24  1  0  0  0  0
 24 25  1  0  0  0  0
 24 26  1  0  0  0  0
 26 27  1  0  0  0  0
 26 28  1  0  0  0  0
 26 29  1  0  0  0  0
M  END
$$$$

  -OEChem-04042216023D

 29 28  0     1  0  0  0  0  0999 V2000
   -2.6813   -4.0738    0.6259 H   0  0  0  0  0  0  0  0  0  0  0  0
   -2.6368   -3.0950    0.1395 C   0  0  0  0  0  0  0  0  0  0  0  0
   -3.4385   -2.4681    0.5368 H   0  0  0  0  0  0  0  0  0  0  0  0
   -2.7857   -3.2305   -0.9344 H   0  0  0  0  0  0  0  0  0  0  0  0
   -1.2913   -2.4446    0.3996 C   0  0  0  0  0  0  0  0  0  0  0  0
   -0.4706   -3.0055    1.1015 O   0  0  0  0  0  0  0  0  0  0  0  0
   -1.0064   -1.2155   -0.1610 N   0  0  0  0  0  0  0  0  0  0  0  0
   -1.6937   -0.8381   -0.8053 H   0  0  0  0  0  0  0  0  0  0  0  0
    0.3076   -0.5489   -0.0822 C   0  0  1  0  0  0  0  0  0  0  0  0
    1.0665   -1.2025   -0.5279 H   0  0  0  0  0  0  0  0  0  0  0  0
    0.2340    0.7616   -0.8834 C   0  0  0  0  0  0  0  0  0  0  0  0
   -0.6670    1.3133   -0.5971 H   0  0  0  0  0  0  0  0  0  0  0  0
    1.0903    1.3964   -0.6296 H   0  0  0  0  0  0  0  0  0  0  0  0
    0.2598    0.5079   -2.3987 C   0  0  0  0  0  0  0  0  0  0  0  0
    1.2520    0.7576   -2.7896 H   0  0  0  0  0  0  0  0  0  0  0  0
    0.0777   -0.5482   -2.6228 H   0  0  0  0  0  0  0  0  0  0  0  0
   -1.0106    1.5231   -3.2574 S   0  0  0  0  0  0  0  0  0  0  0  0
   -2.5903    0.6971   -2.8160 C   0  0  0  0  0  0  0  0  0  0  0  0
   -2.7715    0.7666   -1.7400 H   0  0  0  0  0  0  0  0  0  0  0  0
   -3.4207    1.1811   -3.3394 H   0  0  0  0  0  0  0  0  0  0  0  0
   -2.5617   -0.3571   -3.1072 H   0  0  0  0  0  0  0  0  0  0  0  0
    0.7886   -0.2499    1.3559 C   0  0  0  0  0  0  0  0  0  0  0  0
    1.9863   -0.2621    1.6069 O   0  0  0  0  0  0  0  0  0  0  0  0
   -0.0867    0.2904    2.2808 N   0  0  0  0  0  0  0  0  0  0  0  0
   -1.0742    0.2000    2.0674 H   0  0  0  0  0  0  0  0  0  0  0  0
    0.3099    0.6113    3.6462 C   0  0  0  0  0  0  0  0  0  0  0  0
    1.1217    1.3464    3.6477 H   0  0  0  0  0  0  0  0  0  0  0  0
   -0.5361    1.0328    4.1972 H   0  0  0  0  0  0  0  0  0  0  0  0
    0.6502   -0.2902    4.1668 H   0  0  0  0  0  0  0  0  0  0  0  0
  1  2  1  0  0  0  0
  2  3  1  0  0  0  0
  2  4  1  0  0  0  0
  2  5  1  0  0  0  0
  5  6  2  0  0  0  0
  5  7  1  0  0  0  0
  7  8  1  0  0  0  0
  7  9  1  0  0  0  0
  9 10  1  0  0  0  0
  9 11  1  0  0  0  0
  9 22  1  0  0  0  0
 11 12  1  0  0  0  0
 11 13  1  0  0  0  0
 11 14  1  0  0  0  0
 14 15  1  0  0  0  0
 14 16  1  0  0  0  0
 14 17  1  0  0  0  0
 17 18  1  0  0  0  0
 18 19  1  0  0  0  0
 18 20  1  0  0  0  0
 18 21  1  0  0  0  0
 22 23  2  0  0  0  0
 22 24  1  0  0  0  0
 24 25  1  0  0  0  0
 24 26  1  0  0  0  0
 26 27  1  0  0  0  0
 26 28  1  0  0  0  0
 26 29  1  0  0  0  0
M  END
$$$$

  -OEChem-04042216023D

 29 28  0     1  0  0  0  0  0999 V2000
   -2.6831   -4.0704    0.6434 H   0  0  0  0  0  0  0  0  0  0  0  0
   -2.6441   -3.0907    0.1581 C   0  0  0  0  0  0  0  0  0  0  0  0
   -3.4381   -2.4631    0.5692 H   0  0  0  0  0  0  0  0  0  0  0  0
   -2.8100   -3.2240   -0.9135 H   0  0  0  0  0  0  0  0  0  0  0  0
   -1.2934   -2.4436    0.3985 C   0  0  0  0  0  0  0  0  0  0  0  0
   -0.4600   -3.0125    1.0785 O   0  0  0  0  0  0  0  0  0  0  0  0
   -1.0159   -1.2093   -0.1553 N   0  0  0  0  0  0  0  0  0  0  0  0
   -1.7192   -0.8171   -0.7732 H   0  0  0  0  0  0  0  0  0  0  0  0
    0.2989   -0.5420   -0.0818 C   0  0  1  0  0  0  0  0  0  0  0  0
    1.0531   -1.1941   -0.5373 H   0  0  0  0  0  0  0  0  0  0  0  0
    0.2287    0.7735   -0.8745 C   0  0  0  0  0  0  0  0  0  0  0  0
   -0.6752    1.3184   -0.5859 H   0  0  0  0  0  0  0  0  0  0  0  0
    1.0832    1.4108   -0.6207 H   0  0  0  0  0  0  0  0  0  0  0  0
    0.2494    0.5218   -2.3884 C   0  0  0  0  0  0  0  0  0  0  0  0
    1.2868    0.4975   -2.7389 H   0  0  0  0  0  0  0  0  0  0  0  0
   -0.2011   -0.4461   -2.6292 H   0  0  0  0  0  0  0  0  0  0  0  0
   -0.6791    1.8372   -3.2749 S   0  0  0  0  0  0  0  0  0  0  0  0
   -2.4353    1.3945   -2.9686 C   0  0  0  0  0  0  0  0  0  0  0  0
   -2.6648    1.4456   -1.9009 H   0  0  0  0  0  0  0  0  0  0  0  0
   -3.0917    2.0917   -3.4981 H   0  0  0  0  0  0  0  0  0  0  0  0
   -2.6396    0.3820   -3.3284 H   0  0  0  0  0  0  0  0  0  0  0  0
    0.7893   -0.2551    1.3554 C   0  0  0  0  0  0  0  0  0  0  0  0
    1.9884   -0.2686    1.5994 O   0  0  0  0  0  0  0  0  0  0  0  0
   -0.0814    0.2766    2.2896 N   0  0  0  0  0  0  0  0  0  0  0  0
   -1.0700    0.1845    2.0821 H   0  0  0  0  0  0  0  0  0  0  0  0
    0.3225    0.5900    3.6545 C   0  0  0  0  0  0  0  0  0  0  0  0
    1.1334    1.3263    3.6556 H   0  0  0  0  0  0  0  0  0  0  0  0
   -0.5213    1.0075    4.2121 H   0  0  0  0  0  0  0  0  0  0  0  0
    0.6665   -0.3141    4.1681 H   0  0  0  0  0  0  0  0  0  0  0  0
  1  2  1  0  0  0  0
  2  3  1  0  0  0  0
  2  4  1  0  0  0  0
  2  5  1  0  0  0  0
  5  6  2  0  0  0  0
  5  7  1  0  0  0  0
  7  8  1  0  0  0  0
  7  9  1  0  0  0  0
  9 10  1  0  0  0  0
  9 11  1  0  0  0  0
  9 22  1  0  0  0  0
 11 12  1  0  0  0  0
 11 13  1  0  0  0  0
 11 14  1  0  0  0  0
 14 15  1  0  0  0  0
 14 16  1  0  0  0  0
 14 17  1  0  0  0  0
 17 18  1  0  0  0  0
 18 19  1  0  0  0  0
 18 20  1  0  0  0  0
 18 21  1  0  0  0  0
 22 23  2  0  0  0  0
 22 24  1  0  0  0  0
 24 25  1  0  0  0  0
 24 26  1  0  0  0  0
 26 27  1  0  0  0  0
 26 28  1  0  0  0  0
 26 29  1  0  0  0  0
M  END
$$$$

  -OEChem-04042216023D

 29 28  0     1  0  0  0  0  0999 V2000
   -2.6740   -4.0849    0.6407 H   0  0  0  0  0  0  0  0  0  0  0  0
   -2.6418   -3.1037    0.1580 C   0  0  0  0  0  0  0  0  0  0  0  0
   -3.4379   -2.4811    0.5732 H   0  0  0  0  0  0  0  0  0  0  0  0
   -2.8102   -3.2346   -0.9136 H   0  0  0  0  0  0  0  0  0  0  0  0
   -1.2930   -2.4513    0.3959 C   0  0  0  0  0  0  0  0  0  0  0  0
   -0.4564   -3.0178    1.0741 O   0  0  0  0  0  0  0  0  0  0  0  0
   -1.0216   -1.2154   -0.1576 N   0  0  0  0  0  0  0  0  0  0  0  0
   -1.7289   -0.8262   -0.7730 H   0  0  0  0  0  0  0  0  0  0  0  0
    0.2909   -0.5429   -0.0846 C   0  0  1  0  0  0  0  0  0  0  0  0
    1.0460   -1.1933   -0.5407 H   0  0  0  0  0  0  0  0  0  0  0  0
    0.2203    0.7730   -0.8768 C   0  0  0  0  0  0  0  0  0  0  0  0
   -0.6839    1.3190   -0.5924 H   0  0  0  0  0  0  0  0  0  0  0  0
    1.0773    1.4075   -0.6232 H   0  0  0  0  0  0  0  0  0  0  0  0
    0.2438    0.5165   -2.3880 C   0  0  0  0  0  0  0  0  0  0  0  0
    1.2576    0.2354   -2.6924 H   0  0  0  0  0  0  0  0  0  0  0  0
   -0.4232   -0.3100   -2.6517 H   0  0  0  0  0  0  0  0  0  0  0  0
   -0.2805    2.0207   -3.3048 S   0  0  0  0  0  0  0  0  0  0  0  0
   -2.1011    2.0617   -3.0618 C   0  0  0  0  0  0  0  0  0  0  0  0
   -2.3457    2.1932   -2.0043 H   0  0  0  0  0  0  0  0  0  0  0  0
   -2.5321    2.8962   -3.6233 H   0  0  0  0  0  0  0  0  0  0  0  0
   -2.5526    1.1311   -3.4180 H   0  0  0  0  0  0  0  0  0  0  0  0
    0.7820   -0.2548    1.3523 C   0  0  0  0  0  0  0  0  0  0  0  0
    1.9814   -0.2658    1.5943 O   0  0  0  0  0  0  0  0  0  0  0  0
   -0.0884    0.2730    2.2891 N   0  0  0  0  0  0  0  0  0  0  0  0
   -1.0772    0.1806    2.0834 H   0  0  0  0  0  0  0  0  0  0  0  0
    0.3184    0.5836    3.6537 C   0  0  0  0  0  0  0  0  0  0  0  0
    1.1259    1.3234    3.6542 H   0  0  0  0  0  0  0  0  0  0  0  0
   -0.5249    0.9953    4.2160 H   0  0  0  0  0  0  0  0  0  0  0  0
    0.6683   -0.3206    4.1629 H   0  0  0  0  0  0  0  0  0  0  0  0
  1  2  1  0  0  0  0
  2  3  1  0  0  0  0
  2  4  1  0  0  0  0
  2  5  1  0  0  0  0
  5  6  2  0  0  0  0
  5  7  1  0  0  0  0
  7  8  1  0  0  0  0
  7  9  1  0  0  0  0
  9 10  1  0  0  0  0
  9 11  1  0  0  0  0
  9 22  1  0  0  0  0
 11 12  1  0  0  0  0
 11 13  1  0  0  0  0
 11 14  1  0  0  0  0
 14 15  1  0  0  0  0
 14 16  1  0  0  0  0
 14 17  1  0  0  0  0
 17 18  1  0  0  0  0
 18 19  1  0  0  0  0
 18 20  1  0  0  0  0
 18 21  1  0  0  0  0
 22 23  2  0  0  0  0
 22 24  1  0  0  0  0
 24 25  1  0  0  0  0
 24 26  1  0  0  0  0
 26 27  1  0  0  0  0
 26 28  1  0  0  0  0
 26 29  1  0  0  0  0
M  END
$$$$

  -OEChem-04042216023D

 29 28  0     1  0  0  0  0  0999 V2000
   -2.6409   -4.1307    0.6739 H   0  0  0  0  0  0  0  0  0  0  0  0
   -2.6285   -3.1505    0.1885 C   0  0  0  0  0  0  0  0  0  0  0  0
   -3.4233   -2.5361    0.6182 H   0  0  0  0  0  0  0  0  0  0  0  0
   -2.8166   -3.2860   -0.8793 H   0  0  0  0  0  0  0  0  0  0  0  0
   -1.2830   -2.4817    0.3983 C   0  0  0  0  0  0  0  0  0  0  0  0
   -0.4279   -3.0343    1.0646 O   0  0  0  0  0  0  0  0  0  0  0  0
   -1.0369   -1.2430   -0.1609 N   0  0  0  0  0  0  0  0  0  0  0  0
   -1.7673   -0.8518   -0.7471 H   0  0  0  0  0  0  0  0  0  0  0  0
    0.2629   -0.5451   -0.0951 C   0  0  1  0  0  0  0  0  0  0  0  0
    1.0204   -1.1961   -0.5467 H   0  0  0  0  0  0  0  0  0  0  0  0
    0.2001    0.7582   -0.9100 C   0  0  0  0  0  0  0  0  0  0  0  0
   -0.5544    1.4188   -0.4735 H   0  0  0  0  0  0  0  0  0  0  0  0
    1.1663    1.2708   -0.8427 H   0  0  0  0  0  0  0  0  0  0  0  0
   -0.1203    0.5074   -2.3894 C   0  0  0  0  0  0  0  0  0  0  0  0
    0.6562   -0.1299   -2.8259 H   0  0  0  0  0  0  0  0  0  0  0  0
   -1.0782   -0.0078   -2.5016 H   0  0  0  0  0  0  0  0  0  0  0  0
   -0.1818    2.0950   -3.3130 S   0  0  0  0  0  0  0  0  0  0  0  0
   -1.7178    2.8977   -2.7034 C   0  0  0  0  0  0  0  0  0  0  0  0
   -1.6330    3.1341   -1.6391 H   0  0  0  0  0  0  0  0  0  0  0  0
   -1.8929    3.8285   -3.2513 H   0  0  0  0  0  0  0  0  0  0  0  0
   -2.5769    2.2375   -2.8535 H   0  0  0  0  0  0  0  0  0  0  0  0
    0.7569   -0.2400    1.3374 C   0  0  0  0  0  0  0  0  0  0  0  0
    1.9573   -0.2267    1.5745 O   0  0  0  0  0  0  0  0  0  0  0  0
   -0.1191    0.2761    2.2759 N   0  0  0  0  0  0  0  0  0  0  0  0
   -1.1063    0.1544    2.0778 H   0  0  0  0  0  0  0  0  0  0  0  0
    0.2865    0.5904    3.6404 C   0  0  0  0  0  0  0  0  0  0  0  0
    1.0837    1.3413    3.6412 H   0  0  0  0  0  0  0  0  0  0  0  0
   -0.5615    0.9892    4.2049 H   0  0  0  0  0  0  0  0  0  0  0  0
    0.6503   -0.3095    4.1476 H   0  0  0  0  0  0  0  0  0  0  0  0
  1  2  1  0  0  0  0
  2  3  1  0  0  0  0
  2  4  1  0  0  0  0
  2  5  1  0  0  0  0
  5  6  2  0  0  0  0
  5  7  1  0  0  0  0
  7  8  1  0  0  0  0
  7  9  1  0  0  0  0
  9 10  1  0  0  0  0
  9 11  1  0  0  0  0
  9 22  1  0  0  0  0
 11 12  1  0  0  0  0
 11 13  1  0  0  0  0
 11 14  1  0  0  0  0
 14 15  1  0  0  0  0
 14 16  1  0  0  0  0
 14 17  1  0  0  0  0
 17 18  1  0  0  0  0
 18 19  1  0  0  0  0
 18 20  1  0  0  0  0
 18 21  1  0  0  0  0
 22 23  2  0  0  0  0
 22 24  1  0  0  0  0
 24 25  1  0  0  0  0
 24 26  1  0  0  0  0
 26 27  1  0  0  0  0
 26 28  1  0  0  0  0
 26 29  1  0  0  0  0
M  END
$$$$

  -OEChem-04042216023D

 29 28  0     1  0  0  0  0  0999 V2000
   -2.6310   -4.1494    0.7133 H   0  0  0  0  0  0  0  0  0  0  0  0
   -2.6107   -3.1966    0.1762 C   0  0  0  0  0  0  0  0  0  0  0  0
   -3.4298   -2.5711    0.5393 H   0  0  0  0  0  0  0  0  0  0  0  0
   -2.7531   -3.3918   -0.8895 H   0  0  0  0  0  0  0  0  0  0  0  0
   -1.2830   -2.4987    0.4026 C   0  0  0  0  0  0  0  0  0  0  0  0
   -0.4297   -3.0235    1.0934 O   0  0  0  0  0  0  0  0  0  0  0  0
   -1.0503   -1.2667   -0.1759 N   0  0  0  0  0  0  0  0  0  0  0  0
   -1.7746   -0.9084   -0.7899 H   0  0  0  0  0  0  0  0  0  0  0  0
    0.2406   -0.5518   -0.1201 C   0  0  1  0  0  0  0  0  0  0  0  0
    1.0079   -1.1956   -0.5650 H   0  0  0  0  0  0  0  0  0  0  0  0
    0.1463    0.7409   -0.9474 C   0  0  0  0  0  0  0  0  0  0  0  0
   -0.6096    1.4038   -0.5157 H   0  0  0  0  0  0  0  0  0  0  0  0
    1.1113    1.2582   -0.8943 H   0  0  0  0  0  0  0  0  0  0  0  0
   -0.1812    0.4636   -2.4201 C   0  0  0  0  0  0  0  0  0  0  0  0
    0.4443   -0.3570   -2.7877 H   0  0  0  0  0  0  0  0  0  0  0  0
   -1.2276    0.1652   -2.5298 H   0  0  0  0  0  0  0  0  0  0  0  0
    0.1466    1.9491   -3.4519 S   0  0  0  0  0  0  0  0  0  0  0  0
   -0.9841    3.2182   -2.7543 C   0  0  0  0  0  0  0  0  0  0  0  0
   -0.6900    3.4735   -1.7322 H   0  0  0  0  0  0  0  0  0  0  0  0
   -0.9450    4.1267   -3.3626 H   0  0  0  0  0  0  0  0  0  0  0  0
   -2.0129    2.8470   -2.7454 H   0  0  0  0  0  0  0  0  0  0  0  0
    0.7322   -0.2156    1.3059 C   0  0  0  0  0  0  0  0  0  0  0  0
    1.9329   -0.1721    1.5374 O   0  0  0  0  0  0  0  0  0  0  0  0
   -0.1494    0.3060    2.2360 N   0  0  0  0  0  0  0  0  0  0  0  0
   -1.1351    0.1602    2.0467 H   0  0  0  0  0  0  0  0  0  0  0  0
    0.2586    0.6691    3.5874 C   0  0  0  0  0  0  0  0  0  0  0  0
    1.0342    1.4417    3.5596 H   0  0  0  0  0  0  0  0  0  0  0  0
   -0.5952    1.0596    4.1490 H   0  0  0  0  0  0  0  0  0  0  0  0
    0.6523   -0.2058    4.1154 H   0  0  0  0  0  0  0  0  0  0  0  0
  1  2  1  0  0  0  0
  2  3  1  0  0  0  0
  2  4  1  0  0  0  0
  2  5  1  0  0  0  0
  5  6  2  0  0  0  0
  5  7  1  0  0  0  0
  7  8  1  0  0  0  0
  7  9  1  0  0  0  0
  9 10  1  0  0  0  0
  9 11  1  0  0  0  0
  9 22  1  0  0  0  0
 11 12  1  0  0  0  0
 11 13  1  0  0  0  0
 11 14  1  0  0  0  0
 14 15  1  0  0  0  0
 14 16  1  0  0  0  0
 14 17  1  0  0  0  0
 17 18  1  0  0  0  0
 18 19  1  0  0  0  0
 18 20  1  0  0  0  0
 18 21  1  0  0  0  0
 22 23  2  0  0  0  0
 22 24  1  0  0  0  0
 24 25  1  0  0  0  0
 24 26  1  0  0  0  0
 26 27  1  0  0  0  0
 26 28  1  0  0  0  0
 26 29  1  0  0  0  0
M  END
$$$$

  -OEChem-04042216023D

 29 28  0     1  0  0  0  0  0999 V2000
   -2.6238   -4.1513    0.7118 H   0  0  0  0  0  0  0  0  0  0  0  0
   -2.6105   -3.1969    0.1774 C   0  0  0  0  0  0  0  0  0  0  0  0
   -3.4355   -2.5796    0.5408 H   0  0  0  0  0  0  0  0  0  0  0  0
   -2.7497   -3.3905   -0.8889 H   0  0  0  0  0  0  0  0  0  0  0  0
   -1.2890   -2.4883    0.4079 C   0  0  0  0  0  0  0  0  0  0  0  0
   -0.4379   -3.0026    1.1092 O   0  0  0  0  0  0  0  0  0  0  0  0
   -1.0607   -1.2580   -0.1762 N   0  0  0  0  0  0  0  0  0  0  0  0
   -1.7781   -0.9146   -0.8066 H   0  0  0  0  0  0  0  0  0  0  0  0
    0.2312   -0.5443   -0.1302 C   0  0  1  0  0  0  0  0  0  0  0  0
    0.9965   -1.1878   -0.5796 H   0  0  0  0  0  0  0  0  0  0  0  0
    0.1255    0.7469   -0.9585 C   0  0  0  0  0  0  0  0  0  0  0  0
   -0.6195    1.4209   -0.5241 H   0  0  0  0  0  0  0  0  0  0  0  0
    1.0960    1.2542   -0.9122 H   0  0  0  0  0  0  0  0  0  0  0  0
   -0.2160    0.4697   -2.4296 C   0  0  0  0  0  0  0  0  0  0  0  0
    0.2044   -0.4949   -2.7333 H   0  0  0  0  0  0  0  0  0  0  0  0
   -1.3006    0.4204   -2.5642 H   0  0  0  0  0  0  0  0  0  0  0  0
    0.4964    1.7628   -3.5246 S   0  0  0  0  0  0  0  0  0  0  0  0
   -0.2749    3.3123   -2.9079 C   0  0  0  0  0  0  0  0  0  0  0  0
    0.0425    3.5167   -1.8812 H   0  0  0  0  0  0  0  0  0  0  0  0
    0.0263    4.1546   -3.5380 H   0  0  0  0  0  0  0  0  0  0  0  0
   -1.3653    3.2299   -2.9321 H   0  0  0  0  0  0  0  0  0  0  0  0
    0.7320   -0.2044    1.2922 C   0  0  0  0  0  0  0  0  0  0  0  0
    1.9341   -0.1595    1.5163 O   0  0  0  0  0  0  0  0  0  0  0  0
   -0.1436    0.3206    2.2260 N   0  0  0  0  0  0  0  0  0  0  0  0
   -1.1301    0.1694    2.0447 H   0  0  0  0  0  0  0  0  0  0  0  0
    0.2719    0.6858    3.5747 C   0  0  0  0  0  0  0  0  0  0  0  0
    1.0516    1.4544    3.5421 H   0  0  0  0  0  0  0  0  0  0  0  0
   -0.5778    1.0829    4.1381 H   0  0  0  0  0  0  0  0  0  0  0  0
    0.6628   -0.1895    4.1045 H   0  0  0  0  0  0  0  0  0  0  0  0
  1  2  1  0  0  0  0
  2  3  1  0  0  0  0
  2  4  1  0  0  0  0
  2  5  1  0  0  0  0
  5  6  2  0  0  0  0
  5  7  1  0  0  0  0
  7  8  1  0  0  0  0
  7  9  1  0  0  0  0
  9 10  1  0  0  0  0
  9 11  1  0  0  0  0
  9 22  1  0  0  0  0
 11 12  1  0  0  0  0
 11 13  1  0  0  0  0
 11 14  1  0  0  0  0
 14 15  1  0  0  0  0
 14 16  1  0  0  0  0
 14 17  1  0  0  0  0
 17 18  1  0  0  0  0
 18 19  1  0  0  0  0
 18 20  1  0  0  0  0
 18 21  1  0  0  0  0
 22 23  2  0  0  0  0
 22 24  1  0  0  0  0
 24 25  1  0  0  0  0
 24 26  1  0  0  0  0
 26 27  1  0  0  0  0
 26 28  1  0  0  0  0
 26 29  1  0  0  0  0
M  END
$$$$

  -OEChem-04042216023D

 29 28  0     1  0  0  0  0  0999 V2000
   -2.6388   -4.1310    0.6865 H   0  0  0  0  0  0  0  0  0  0  0  0
   -2.6248   -3.1658    0.1721 C   0  0  0  0  0  0  0  0  0  0  0  0
   -3.4424   -2.5509    0.5558 H   0  0  0  0  0  0  0  0  0  0  0  0
   -2.7751   -3.3362   -0.8967 H   0  0  0  0  0  0  0  0  0  0  0  0
   -1.2966   -2.4710    0.4063 C   0  0  0  0  0  0  0  0  0  0  0  0
   -0.4515   -2.9960    1.1070 O   0  0  0  0  0  0  0  0  0  0  0  0
   -1.0571   -1.2401   -0.1721 N   0  0  0  0  0  0  0  0  0  0  0  0
   -1.7681   -0.8923   -0.8073 H   0  0  0  0  0  0  0  0  0  0  0  0
    0.2421   -0.5390   -0.1252 C   0  0  1  0  0  0  0  0  0  0  0  0
    1.0013   -1.1855   -0.5809 H   0  0  0  0  0  0  0  0  0  0  0  0
    0.1441    0.7581   -0.9457 C   0  0  0  0  0  0  0  0  0  0  0  0
   -0.5963    1.4336   -0.5050 H   0  0  0  0  0  0  0  0  0  0  0  0
    1.1169    1.2594   -0.8919 H   0  0  0  0  0  0  0  0  0  0  0  0
   -0.2054    0.4952   -2.4199 C   0  0  0  0  0  0  0  0  0  0  0  0
   -0.0403   -0.5596   -2.6635 H   0  0  0  0  0  0  0  0  0  0  0  0
   -1.2611    0.7186   -2.6021 H   0  0  0  0  0  0  0  0  0  0  0  0
    0.8502    1.4967   -3.5422 S   0  0  0  0  0  0  0  0  0  0  0  0
    0.3842    3.2199   -3.1082 C   0  0  0  0  0  0  0  0  0  0  0  0
    0.6440    3.4370   -2.0681 H   0  0  0  0  0  0  0  0  0  0  0  0
    0.9174    3.9240   -3.7539 H   0  0  0  0  0  0  0  0  0  0  0  0
   -0.6913    3.3678   -3.2427 H   0  0  0  0  0  0  0  0  0  0  0  0
    0.7471   -0.2120    1.2986 C   0  0  0  0  0  0  0  0  0  0  0  0
    1.9492   -0.1842    1.5252 O   0  0  0  0  0  0  0  0  0  0  0  0
   -0.1243    0.3162    2.2343 N   0  0  0  0  0  0  0  0  0  0  0  0
   -1.1121    0.1815    2.0471 H   0  0  0  0  0  0  0  0  0  0  0  0
    0.2910    0.6619    3.5881 C   0  0  0  0  0  0  0  0  0  0  0  0
    1.0832    1.4178    3.5654 H   0  0  0  0  0  0  0  0  0  0  0  0
   -0.5546    1.0675    4.1517 H   0  0  0  0  0  0  0  0  0  0  0  0
    0.6652   -0.2245    4.1112 H   0  0  0  0  0  0  0  0  0  0  0  0
  1  2  1  0  0  0  0
  2  3  1  0  0  0  0
  2  4  1  0  0  0  0
  2  5  1  0  0  0  0
  5  6  2  0  0  0  0
  5  7  1  0  0  0  0
  7  8  1  0  0  0  0
  7  9  1  0  0  0  0
  9 10  1  0  0  0  0
  9 11  1  0  0  0  0
  9 22  1  0  0  0  0
 11 12  1  0  0  0  0
 11 13  1  0  0  0  0
 11 14  1  0  0  0  0
 14 15  1  0  0  0  0
 14 16  1  0  0  0  0
 14 17  1  0  0  0  0
 17 18  1  0  0  0  0
 18 19  1  0  0  0  0
 18 20  1  0  0  0  0
 18 21  1  0  0  0  0
 22 23  2  0  0  0  0
 22 24  1  0  0  0  0
 24 25  1  0  0  0  0
 24 26  1  0  0  0  0
 26 27  1  0  0  0  0
 26 28  1  0  0  0  0
 26 29  1  0  0  0  0
M  END
$$$$

  -OEChem-04042216023D

 29 28  0     1  0  0  0  0  0999 V2000
   -2.6513   -4.1251    0.6746 H   0  0  0  0  0  0  0  0  0  0  0  0
   -2.6362   -3.1550    0.1695 C   0  0  0  0  0  0  0  0  0  0  0  0
   -3.4535   -2.5432    0.5586 H   0  0  0  0  0  0  0  0  0  0  0  0
   -2.7860   -3.3149   -0.9009 H   0  0  0  0  0  0  0  0  0  0  0  0
   -1.3075   -2.4635    0.4099 C   0  0  0  0  0  0  0  0  0  0  0  0
   -0.4673   -2.9919    1.1140 O   0  0  0  0  0  0  0  0  0  0  0  0
   -1.0631   -1.2309   -0.1634 N   0  0  0  0  0  0  0  0  0  0  0  0
   -1.7700   -0.8809   -0.8020 H   0  0  0  0  0  0  0  0  0  0  0  0
    0.2415   -0.5383   -0.1169 C   0  0  1  0  0  0  0  0  0  0  0  0
    0.9941   -1.1888   -0.5779 H   0  0  0  0  0  0  0  0  0  0  0  0
    0.1607    0.7646   -0.9319 C   0  0  0  0  0  0  0  0  0  0  0  0
   -0.5862    1.4302   -0.4873 H   0  0  0  0  0  0  0  0  0  0  0  0
    1.1288    1.2723   -0.8624 H   0  0  0  0  0  0  0  0  0  0  0  0
   -0.1891    0.5245   -2.4119 C   0  0  0  0  0  0  0  0  0  0  0  0
   -0.3164   -0.5445   -2.6093 H   0  0  0  0  0  0  0  0  0  0  0  0
   -1.1328    1.0223   -2.6557 H   0  0  0  0  0  0  0  0  0  0  0  0
    1.1354    1.1529   -3.5207 S   0  0  0  0  0  0  0  0  0  0  0  0
    1.0320    2.9726   -3.2874 C   0  0  0  0  0  0  0  0  0  0  0  0
    1.2501    3.2408   -2.2496 H   0  0  0  0  0  0  0  0  0  0  0  0
    1.7577    3.4735   -3.9350 H   0  0  0  0  0  0  0  0  0  0  0  0
    0.0303    3.3311   -3.5416 H   0  0  0  0  0  0  0  0  0  0  0  0
    0.7519   -0.2232    1.3080 C   0  0  0  0  0  0  0  0  0  0  0  0
    1.9548   -0.2019    1.5319 O   0  0  0  0  0  0  0  0  0  0  0  0
   -0.1140    0.3049    2.2491 N   0  0  0  0  0  0  0  0  0  0  0  0
   -1.1026    0.1707    2.0661 H   0  0  0  0  0  0  0  0  0  0  0  0
    0.3071    0.6377    3.6042 C   0  0  0  0  0  0  0  0  0  0  0  0
    1.1039    1.3888    3.5849 H   0  0  0  0  0  0  0  0  0  0  0  0
   -0.5342    1.0446    4.1730 H   0  0  0  0  0  0  0  0  0  0  0  0
    0.6768   -0.2550    4.1201 H   0  0  0  0  0  0  0  0  0  0  0  0
  1  2  1  0  0  0  0
  2  3  1  0  0  0  0
  2  4  1  0  0  0  0
  2  5  1  0  0  0  0
  5  6  2  0  0  0  0
  5  7  1  0  0  0  0
  7  8  1  0  0  0  0
  7  9  1  0  0  0  0
  9 10  1  0  0  0  0
  9 11  1  0  0  0  0
  9 22  1  0  0  0  0
 11 12  1  0  0  0  0
 11 13  1  0  0  0  0
 11 14  1  0  0  0  0
 14 15  1  0  0  0  0
 14 16  1  0  0  0  0
 14 17  1  0  0  0  0
 17 18  1  0  0  0  0
 18 19  1  0  0  0  0
 18 20  1  0  0  0  0
 18 21  1  0  0  0  0
 22 23  2  0  0  0  0
 22 24  1  0  0  0  0
 24 25  1  0  0  0  0
 24 26  1  0  0  0  0
 26 27  1  0  0  0  0
 26 28  1  0  0  0  0
 26 29  1  0  0  0  0
M  END
$$$$

  -OEChem-04042216023D

 29 28  0     1  0  0  0  0  0999 V2000
   -2.6535   -4.1280    0.6625 H   0  0  0  0  0  0  0  0  0  0  0  0
   -2.6432   -3.1519    0.1687 C   0  0  0  0  0  0  0  0  0  0  0  0
   -3.4616   -2.5478    0.5673 H   0  0  0  0  0  0  0  0  0  0  0  0
   -2.7950   -3.3002   -0.9032 H   0  0  0  0  0  0  0  0  0  0  0  0
   -1.3166   -2.4580    0.4148 C   0  0  0  0  0  0  0  0  0  0  0  0
   -0.4802   -2.9848    1.1248 O   0  0  0  0  0  0  0  0  0  0  0  0
   -1.0716   -1.2236   -0.1546 N   0  0  0  0  0  0  0  0  0  0  0  0
   -1.7759   -0.8741   -0.7964 H   0  0  0  0  0  0  0  0  0  0  0  0
    0.2354   -0.5350   -0.1095 C   0  0  1  0  0  0  0  0  0  0  0  0
    0.9830   -1.1891   -0.5735 H   0  0  0  0  0  0  0  0  0  0  0  0
    0.1731    0.7721   -0.9196 C   0  0  0  0  0  0  0  0  0  0  0  0
   -0.5835    1.4255   -0.4739 H   0  0  0  0  0  0  0  0  0  0  0  0
    1.1345    1.2894   -0.8358 H   0  0  0  0  0  0  0  0  0  0  0  0
   -0.1727    0.5513   -2.4035 C   0  0  0  0  0  0  0  0  0  0  0  0
   -0.5923   -0.4454   -2.5682 H   0  0  0  0  0  0  0  0  0  0  0  0
   -0.9254    1.2820   -2.7156 H   0  0  0  0  0  0  0  0  0  0  0  0
    1.3146    0.7493   -3.4649 S   0  0  0  0  0  0  0  0  0  0  0  0
    1.6184    2.5615   -3.4186 C   0  0  0  0  0  0  0  0  0  0  0  0
    1.8300    2.8918   -2.3976 H   0  0  0  0  0  0  0  0  0  0  0  0
    2.4772    2.8117   -4.0487 H   0  0  0  0  0  0  0  0  0  0  0  0
    0.7430    3.1023   -3.7899 H   0  0  0  0  0  0  0  0  0  0  0  0
    0.7499   -0.2284    1.3156 C   0  0  0  0  0  0  0  0  0  0  0  0
    1.9537   -0.2033    1.5347 O   0  0  0  0  0  0  0  0  0  0  0  0
   -0.1128    0.2976    2.2608 N   0  0  0  0  0  0  0  0  0  0  0  0
   -1.1016    0.1574    2.0822 H   0  0  0  0  0  0  0  0  0  0  0  0
    0.3131    0.6137    3.6185 C   0  0  0  0  0  0  0  0  0  0  0  0
    1.1156    1.3589    3.6057 H   0  0  0  0  0  0  0  0  0  0  0  0
   -0.5242    1.0208    4.1931 H   0  0  0  0  0  0  0  0  0  0  0  0
    0.6776   -0.2872    4.1235 H   0  0  0  0  0  0  0  0  0  0  0  0
  1  2  1  0  0  0  0
  2  3  1  0  0  0  0
  2  4  1  0  0  0  0
  2  5  1  0  0  0  0
  5  6  2  0  0  0  0
  5  7  1  0  0  0  0
  7  8  1  0  0  0  0
  7  9  1  0  0  0  0
  9 10  1  0  0  0  0
  9 11  1  0  0  0  0
  9 22  1  0  0  0  0
 11 12  1  0  0  0  0
 11 13  1  0  0  0  0
 11 14  1  0  0  0  0
 14 15  1  0  0  0  0
 14 16  1  0  0  0  0
 14 17  1  0  0  0  0
 17 18  1  0  0  0  0
 18 19  1  0  0  0  0
 18 20  1  0  0  0  0
 18 21  1  0  0  0  0
 22 23  2  0  0  0  0
 22 24  1  0  0  0  0
 24 25  1  0  0  0  0
 24 26  1  0  0  0  0
 26 27  1  0  0  0  0
 26 28  1  0  0  0  0
 26 29  1  0  0  0  0
M  END
$$$$

  -OEChem-04042216023D

 29 28  0     1  0  0  0  0  0999 V2000
   -2.6587   -4.1271    0.6515 H   0  0  0  0  0  0  0  0  0  0  0  0
   -2.6430   -3.1536    0.1529 C   0  0  0  0  0  0  0  0  0  0  0  0
   -3.4701   -2.5501    0.5339 H   0  0  0  0  0  0  0  0  0  0  0  0
   -2.7758   -3.3081   -0.9206 H   0  0  0  0  0  0  0  0  0  0  0  0
   -1.3229   -2.4541    0.4172 C   0  0  0  0  0  0  0  0  0  0  0  0
   -0.4918   -2.9794    1.1344 O   0  0  0  0  0  0  0  0  0  0  0  0
   -1.0781   -1.2182   -0.1492 N   0  0  0  0  0  0  0  0  0  0  0  0
   -1.7753   -0.8777   -0.8028 H   0  0  0  0  0  0  0  0  0  0  0  0
    0.2300   -0.5319   -0.1066 C   0  0  1  0  0  0  0  0  0  0  0  0
    0.9739   -1.1867   -0.5753 H   0  0  0  0  0  0  0  0  0  0  0  0
    0.1734    0.7803   -0.9104 C   0  0  0  0  0  0  0  0  0  0  0  0
   -0.5858    1.4283   -0.4607 H   0  0  0  0  0  0  0  0  0  0  0  0
    1.1319    1.3015   -0.8251 H   0  0  0  0  0  0  0  0  0  0  0  0
   -0.1756    0.5720   -2.3936 C   0  0  0  0  0  0  0  0  0  0  0  0
   -0.8460   -0.2806   -2.5296 H   0  0  0  0  0  0  0  0  0  0  0  0
   -0.6957    1.4594   -2.7680 H   0  0  0  0  0  0  0  0  0  0  0  0
    1.3408    0.3228   -3.4019 S   0  0  0  0  0  0  0  0  0  0  0  0
    2.0975    1.9967   -3.4615 C   0  0  0  0  0  0  0  0  0  0  0  0
    2.3974    2.3212   -2.4612 H   0  0  0  0  0  0  0  0  0  0  0  0
    2.9858    1.9814   -4.1002 H   0  0  0  0  0  0  0  0  0  0  0  0
    1.3862    2.7207   -3.8696 H   0  0  0  0  0  0  0  0  0  0  0  0
    0.7498   -0.2303    1.3179 C   0  0  0  0  0  0  0  0  0  0  0  0
    1.9543   -0.2044    1.5331 O   0  0  0  0  0  0  0  0  0  0  0  0
   -0.1099    0.2941    2.2668 N   0  0  0  0  0  0  0  0  0  0  0  0
   -1.0992    0.1575    2.0892 H   0  0  0  0  0  0  0  0  0  0  0  0
    0.3180    0.6148    3.6229 C   0  0  0  0  0  0  0  0  0  0  0  0
    1.1161    1.3646    3.6071 H   0  0  0  0  0  0  0  0  0  0  0  0
   -0.5205    1.0180    4.1985 H   0  0  0  0  0  0  0  0  0  0  0  0
    0.6883   -0.2830    4.1291 H   0  0  0  0  0  0  0  0  0  0  0  0
  1  2  1  0  0  0  0
  2  3  1  0  0  0  0
  2  4  1  0  0  0  0
  2  5  1  0  0  0  0
  5  6  2  0  0  0  0
  5  7  1  0  0  0  0
  7  8  1  0  0  0  0
  7  9  1  0  0  0  0
  9 10  1  0  0  0  0
  9 11  1  0  0  0  0
  9 22  1  0  0  0  0
 11 12  1  0  0  0  0
 11 13  1  0  0  0  0
 11 14  1  0  0  0  0
 14 15  1  0  0  0  0
 14 16  1  0  0  0  0
 14 17  1  0  0  0  0
 17 18  1  0  0  0  0
 18 19  1  0  0  0  0
 18 20  1  0  0  0  0
 18 21  1  0  0  0  0
 22 23  2  0  0  0  0
 22 24  1  0  0  0  0
 24 25  1  0  0  0  0
 24 26  1  0  0  0  0
 26 27  1  0  0  0  0
 26 28  1  0  0  0  0
 26 29  1  0  0  0  0
M  END
$$$$

  -OEChem-04042216023D

 29 28  0     1  0  0  0  0  0999 V2000
   -2.6388   -4.1087    0.7060 H   0  0  0  0  0  0  0  0  0  0  0  0
   -2.6104   -3.1746    0.1374 C   0  0  0  0  0  0  0  0  0  0  0  0
   -3.4561   -2.5532    0.4411 H   0  0  0  0  0  0  0  0  0  0  0  0
   -2.6999   -3.4083   -0.9263 H   0  0  0  0  0  0  0  0  0  0  0  0
   -1.3067   -2.4444    0.3998 C   0  0  0  0  0  0  0  0  0  0  0  0
   -0.4663   -2.9473    1.1225 O   0  0  0  0  0  0  0  0  0  0  0  0
   -1.0920   -1.2029   -0.1665 N   0  0  0  0  0  0  0  0  0  0  0  0
   -1.7870   -0.8950   -0.8384 H   0  0  0  0  0  0  0  0  0  0  0  0
    0.2082   -0.5012   -0.1463 C   0  0  1  0  0  0  0  0  0  0  0  0
    0.9500   -1.1455   -0.6323 H   0  0  0  0  0  0  0  0  0  0  0  0
    0.1199    0.8179   -0.9370 C   0  0  0  0  0  0  0  0  0  0  0  0
   -0.6364    1.4547   -0.4670 H   0  0  0  0  0  0  0  0  0  0  0  0
    1.0725    1.3509   -0.8679 H   0  0  0  0  0  0  0  0  0  0  0  0
   -0.2587    0.6188   -2.4130 C   0  0  0  0  0  0  0  0  0  0  0  0
   -1.1179   -0.0498   -2.5111 H   0  0  0  0  0  0  0  0  0  0  0  0
   -0.5499    1.5861   -2.8350 H   0  0  0  0  0  0  0  0  0  0  0  0
    1.1458   -0.0398   -3.4030 S   0  0  0  0  0  0  0  0  0  0  0  0
    2.4472    1.2537   -3.2921 C   0  0  0  0  0  0  0  0  0  0  0  0
    2.8508    1.3094   -2.2770 H   0  0  0  0  0  0  0  0  0  0  0  0
    3.2681    1.0138   -3.9744 H   0  0  0  0  0  0  0  0  0  0  0  0
    2.0383    2.2306   -3.5661 H   0  0  0  0  0  0  0  0  0  0  0  0
    0.7542   -0.1995    1.2681 C   0  0  0  0  0  0  0  0  0  0  0  0
    1.9633   -0.1472    1.4529 O   0  0  0  0  0  0  0  0  0  0  0  0
   -0.0921    0.3102    2.2366 N   0  0  0  0  0  0  0  0  0  0  0  0
   -1.0822    0.1487    2.0845 H   0  0  0  0  0  0  0  0  0  0  0  0
    0.3622    0.6391    3.5819 C   0  0  0  0  0  0  0  0  0  0  0  0
    1.1433    1.4058    3.5464 H   0  0  0  0  0  0  0  0  0  0  0  0
   -0.4703    1.0243    4.1783 H   0  0  0  0  0  0  0  0  0  0  0  0
    0.7640   -0.2506    4.0784 H   0  0  0  0  0  0  0  0  0  0  0  0
  1  2  1  0  0  0  0
  2  3  1  0  0  0  0
  2  4  1  0  0  0  0
  2  5  1  0  0  0  0
  5  6  2  0  0  0  0
  5  7  1  0  0  0  0
  7  8  1  0  0  0  0
  7  9  1  0  0  0  0
  9 10  1  0  0  0  0
  9 11  1  0  0  0  0
  9 22  1  0  0  0  0
 11 12  1  0  0  0  0
 11 13  1  0  0  0  0
 11 14  1  0  0  0  0
 14 15  1  0  0  0  0
 14 16  1  0  0  0  0
 14 17  1  0  0  0  0
 17 18  1  0  0  0  0
 18 19  1  0  0  0  0
 18 20  1  0  0  0  0
 18 21  1  0  0  0  0
 22 23  2  0  0  0  0
 22 24  1  0  0  0  0
 24 25  1  0  0  0  0
 24 26  1  0  0  0  0
 26 27  1  0  0  0  0
 26 28  1  0  0  0  0
 26 29  1  0  0  0  0
M  END
$$$$

  -OEChem-04042216023D

 29 28  0     1  0  0  0  0  0999 V2000
   -2.5711   -4.1271    0.6295 H   0  0  0  0  0  0  0  0  0  0  0  0
   -2.5607   -3.1840    0.0753 C   0  0  0  0  0  0  0  0  0  0  0  0
   -3.4301   -2.5926    0.3721 H   0  0  0  0  0  0  0  0  0  0  0  0
   -2.6235   -3.4042   -0.9931 H   0  0  0  0  0  0  0  0  0  0  0  0
   -1.2849   -2.4190    0.3725 C   0  0  0  0  0  0  0  0  0  0  0  0
   -0.4510   -2.8988    1.1184 O   0  0  0  0  0  0  0  0  0  0  0  0
   -1.0894   -1.1728   -0.1899 N   0  0  0  0  0  0  0  0  0  0  0  0
   -1.7641   -0.9020   -0.8976 H   0  0  0  0  0  0  0  0  0  0  0  0
    0.2066   -0.4652   -0.1794 C   0  0  1  0  0  0  0  0  0  0  0  0
    0.9458   -1.1042   -0.6749 H   0  0  0  0  0  0  0  0  0  0  0  0
    0.0889    0.8603   -0.9566 C   0  0  0  0  0  0  0  0  0  0  0  0
   -0.6543    1.4961   -0.4647 H   0  0  0  0  0  0  0  0  0  0  0  0
    1.0447    1.3912   -0.9078 H   0  0  0  0  0  0  0  0  0  0  0  0
   -0.3134    0.6825   -2.4290 C   0  0  0  0  0  0  0  0  0  0  0  0
   -1.3048    0.2264   -2.4990 H   0  0  0  0  0  0  0  0  0  0  0  0
   -0.3772    1.6711   -2.8949 H   0  0  0  0  0  0  0  0  0  0  0  0
    0.8855   -0.3368   -3.3857 S   0  0  0  0  0  0  0  0  0  0  0  0
    2.5232    0.4266   -3.0461 C   0  0  0  0  0  0  0  0  0  0  0  0
    2.8056    0.2820   -1.9987 H   0  0  0  0  0  0  0  0  0  0  0  0
    3.2886   -0.0370   -3.6756 H   0  0  0  0  0  0  0  0  0  0  0  0
    2.4957    1.4988   -3.2613 H   0  0  0  0  0  0  0  0  0  0  0  0
    0.7742   -0.1661    1.2264 C   0  0  0  0  0  0  0  0  0  0  0  0
    1.9869   -0.1063    1.3851 O   0  0  0  0  0  0  0  0  0  0  0  0
   -0.0558    0.3357    2.2126 N   0  0  0  0  0  0  0  0  0  0  0  0
   -1.0461    0.1557    2.0834 H   0  0  0  0  0  0  0  0  0  0  0  0
    0.4246    0.6511    3.5519 C   0  0  0  0  0  0  0  0  0  0  0  0
    1.2060    1.4173    3.5091 H   0  0  0  0  0  0  0  0  0  0  0  0
   -0.3952    1.0309    4.1689 H   0  0  0  0  0  0  0  0  0  0  0  0
    0.8353   -0.2442    4.0307 H   0  0  0  0  0  0  0  0  0  0  0  0
  1  2  1  0  0  0  0
  2  3  1  0  0  0  0
  2  4  1  0  0  0  0
  2  5  1  0  0  0  0
  5  6  2  0  0  0  0
  5  7  1  0  0  0  0
  7  8  1  0  0  0  0
  7  9  1  0  0  0  0
  9 10  1  0  0  0  0
  9 11  1  0  0  0  0
  9 22  1  0  0  0  0
 11 12  1  0  0  0  0
 11 13  1  0  0  0  0
 11 14  1  0  0  0  0
 14 15  1  0  0  0  0
 14 16  1  0  0  0  0
 14 17  1  0  0  0  0
 17 18  1  0  0  0  0
 18 19  1  0  0  0  0
 18 20  1  0  0  0  0
 18 21  1  0  0  0  0
 22 23  2  0  0  0  0
 22 24  1  0  0  0  0
 24 25  1  0  0  0  0
 24 26  1  0  0  0  0
 26 27  1  0  0  0  0
 26 28  1  0  0  0  0
 26 29  1  0  0  0  0
M  END
$$$$

  -OEChem-04042216023D

 29 28  0     1  0  0  0  0  0999 V2000
   -2.6129   -4.1310    0.5676 H   0  0  0  0  0  0  0  0  0  0  0  0
   -2.5887   -3.1682    0.0491 C   0  0  0  0  0  0  0  0  0  0  0  0
   -3.4650   -2.5869    0.3452 H   0  0  0  0  0  0  0  0  0  0  0  0
   -2.6251   -3.3494   -1.0279 H   0  0  0  0  0  0  0  0  0  0  0  0
   -1.3205   -2.4157    0.4046 C   0  0  0  0  0  0  0  0  0  0  0  0
   -0.5348   -2.8957    1.2012 O   0  0  0  0  0  0  0  0  0  0  0  0
   -1.0775   -1.1827   -0.1680 N   0  0  0  0  0  0  0  0  0  0  0  0
   -1.6966   -0.9352   -0.9332 H   0  0  0  0  0  0  0  0  0  0  0  0
    0.2369   -0.5122   -0.1288 C   0  0  1  0  0  0  0  0  0  0  0  0
    0.9740   -1.1744   -0.5939 H   0  0  0  0  0  0  0  0  0  0  0  0
    0.1561    0.8123   -0.9150 C   0  0  0  0  0  0  0  0  0  0  0  0
   -0.5623    1.4819   -0.4308 H   0  0  0  0  0  0  0  0  0  0  0  0
    1.1359    1.2991   -0.8631 H   0  0  0  0  0  0  0  0  0  0  0  0
   -0.2245    0.6615   -2.3978 C   0  0  0  0  0  0  0  0  0  0  0  0
   -1.2974    0.4628   -2.4761 H   0  0  0  0  0  0  0  0  0  0  0  0
   -0.0303    1.6077   -2.9131 H   0  0  0  0  0  0  0  0  0  0  0  0
    0.6781   -0.6901   -3.2624 S   0  0  0  0  0  0  0  0  0  0  0  0
    2.4395   -0.1979   -3.0728 C   0  0  0  0  0  0  0  0  0  0  0  0
    2.7286   -0.1953   -2.0175 H   0  0  0  0  0  0  0  0  0  0  0  0
    3.0840   -0.9033   -3.6057 H   0  0  0  0  0  0  0  0  0  0  0  0
    2.6009    0.8027   -3.4843 H   0  0  0  0  0  0  0  0  0  0  0  0
    0.7761   -0.2100    1.2874 C   0  0  0  0  0  0  0  0  0  0  0  0
    1.9857   -0.1832    1.4763 O   0  0  0  0  0  0  0  0  0  0  0  0
   -0.0645    0.3287    2.2446 N   0  0  0  0  0  0  0  0  0  0  0  0
   -1.0562    0.1799    2.0885 H   0  0  0  0  0  0  0  0  0  0  0  0
    0.3884    0.6519    3.5917 C   0  0  0  0  0  0  0  0  0  0  0  0
    1.2010    1.3854    3.5585 H   0  0  0  0  0  0  0  0  0  0  0  0
   -0.4339    1.0769    4.1752 H   0  0  0  0  0  0  0  0  0  0  0  0
    0.7479   -0.2487    4.1007 H   0  0  0  0  0  0  0  0  0  0  0  0
  1  2  1  0  0  0  0
  2  3  1  0  0  0  0
  2  4  1  0  0  0  0
  2  5  1  0  0  0  0
  5  6  2  0  0  0  0
  5  7  1  0  0  0  0
  7  8  1  0  0  0  0
  7  9  1  0  0  0  0
  9 10  1  0  0  0  0
  9 11  1  0  0  0  0
  9 22  1  0  0  0  0
 11 12  1  0  0  0  0
 11 13  1  0  0  0  0
 11 14  1  0  0  0  0
 14 15  1  0  0  0  0
 14 16  1  0  0  0  0
 14 17  1  0  0  0  0
 17 18  1  0  0  0  0
 18 19  1  0  0  0  0
 18 20  1  0  0  0  0
 18 21  1  0  0  0  0
 22 23  2  0  0  0  0
 22 24  1  0  0  0  0
 24 25  1  0  0  0  0
 24 26  1  0  0  0  0
 26 27  1  0  0  0  0
 26 28  1  0  0  0  0
 26 29  1  0  0  0  0
M  END
$$$$

  -OEChem-04042216023D

 29 28  0     1  0  0  0  0  0999 V2000
   -2.6608   -4.1232    0.5699 H   0  0  0  0  0  0  0  0  0  0  0  0
   -2.6132   -3.1611    0.0518 C   0  0  0  0  0  0  0  0  0  0  0  0
   -3.4980   -2.5759    0.3137 H   0  0  0  0  0  0  0  0  0  0  0  0
   -2.6094   -3.3434   -1.0256 H   0  0  0  0  0  0  0  0  0  0  0  0
   -1.3567   -2.4131    0.4558 C   0  0  0  0  0  0  0  0  0  0  0  0
   -0.6187   -2.8831    1.3028 O   0  0  0  0  0  0  0  0  0  0  0  0
   -1.0713   -1.1954   -0.1293 N   0  0  0  0  0  0  0  0  0  0  0  0
   -1.6405   -0.9700   -0.9396 H   0  0  0  0  0  0  0  0  0  0  0  0
    0.2558   -0.5535   -0.0612 C   0  0  1  0  0  0  0  0  0  0  0  0
    0.9937   -1.2362   -0.4935 H   0  0  0  0  0  0  0  0  0  0  0  0
    0.2152    0.7609   -0.8682 C   0  0  0  0  0  0  0  0  0  0  0  0
   -0.4909    1.4568   -0.4033 H   0  0  0  0  0  0  0  0  0  0  0  0
    1.2089    1.2173   -0.8005 H   0  0  0  0  0  0  0  0  0  0  0  0
   -0.1303    0.6241   -2.3645 C   0  0  0  0  0  0  0  0  0  0  0  0
   -1.2164    0.6995   -2.4750 H   0  0  0  0  0  0  0  0  0  0  0  0
    0.3092    1.4621   -2.9155 H   0  0  0  0  0  0  0  0  0  0  0  0
    0.3964   -0.9613   -3.1380 S   0  0  0  0  0  0  0  0  0  0  0  0
    2.2273   -0.7930   -3.1396 C   0  0  0  0  0  0  0  0  0  0  0  0
    2.6055   -0.6691   -2.1205 H   0  0  0  0  0  0  0  0  0  0  0  0
    2.6852   -1.6871   -3.5733 H   0  0  0  0  0  0  0  0  0  0  0  0
    2.5272    0.0762   -3.7322 H   0  0  0  0  0  0  0  0  0  0  0  0
    0.7599   -0.2398    1.3656 C   0  0  0  0  0  0  0  0  0  0  0  0
    1.9640   -0.2361    1.5894 O   0  0  0  0  0  0  0  0  0  0  0  0
   -0.0962    0.3330    2.2886 N   0  0  0  0  0  0  0  0  0  0  0  0
   -1.0852    0.1904    2.1104 H   0  0  0  0  0  0  0  0  0  0  0  0
    0.3249    0.6706    3.6424 C   0  0  0  0  0  0  0  0  0  0  0  0
    1.1521    1.3881    3.6203 H   0  0  0  0  0  0  0  0  0  0  0  0
   -0.5050    1.1207    4.1953 H   0  0  0  0  0  0  0  0  0  0  0  0
    0.6527   -0.2281    4.1757 H   0  0  0  0  0  0  0  0  0  0  0  0
  1  2  1  0  0  0  0
  2  3  1  0  0  0  0
  2  4  1  0  0  0  0
  2  5  1  0  0  0  0
  5  6  2  0  0  0  0
  5  7  1  0  0  0  0
  7  8  1  0  0  0  0
  7  9  1  0  0  0  0
  9 10  1  0  0  0  0
  9 11  1  0  0  0  0
  9 22  1  0  0  0  0
 11 12  1  0  0  0  0
 11 13  1  0  0  0  0
 11 14  1  0  0  0  0
 14 15  1  0  0  0  0
 14 16  1  0  0  0  0
 14 17  1  0  0  0  0
 17 18  1  0  0  0  0
 18 19  1  0  0  0  0
 18 20  1  0  0  0  0
 18 21  1  0  0  0  0
 22 23  2  0  0  0  0
 22 24  1  0  0  0  0
 24 25  1  0  0  0  0
 24 26  1  0  0  0  0
 26 27  1  0  0  0  0
 26 28  1  0  0  0  0
 26 29  1  0  0  0  0
M  END
$$$$

  -OEChem-04042216023D

 29 28  0     1  0  0  0  0  0999 V2000
   -2.6870   -4.1235    0.6161 H   0  0  0  0  0  0  0  0  0  0  0  0
   -2.6269   -3.1645    0.0937 C   0  0  0  0  0  0  0  0  0  0  0  0
   -3.5194   -2.5792    0.3271 H   0  0  0  0  0  0  0  0  0  0  0  0
   -2.5928   -3.3530   -0.9821 H   0  0  0  0  0  0  0  0  0  0  0  0
   -1.3841   -2.4110    0.5284 C   0  0  0  0  0  0  0  0  0  0  0  0
   -0.6792   -2.8650    1.4116 O   0  0  0  0  0  0  0  0  0  0  0  0
   -1.0713   -1.2098   -0.0760 N   0  0  0  0  0  0  0  0  0  0  0  0
   -1.6003   -1.0147   -0.9217 H   0  0  0  0  0  0  0  0  0  0  0  0
    0.2617   -0.5822    0.0102 C   0  0  1  0  0  0  0  0  0  0  0  0
    1.0007   -1.2808   -0.3940 H   0  0  0  0  0  0  0  0  0  0  0  0
    0.2618    0.7151   -0.8253 C   0  0  0  0  0  0  0  0  0  0  0  0
   -0.4447    1.4273   -0.3862 H   0  0  0  0  0  0  0  0  0  0  0  0
    1.2596    1.1582   -0.7340 H   0  0  0  0  0  0  0  0  0  0  0  0
   -0.0436    0.5812   -2.3338 C   0  0  0  0  0  0  0  0  0  0  0  0
   -1.0643    0.9386   -2.5024 H   0  0  0  0  0  0  0  0  0  0  0  0
    0.6233    1.2414   -2.8977 H   0  0  0  0  0  0  0  0  0  0  0  0
    0.0581   -1.1231   -3.0272 S   0  0  0  0  0  0  0  0  0  0  0  0
    1.8729   -1.3447   -3.2175 C   0  0  0  0  0  0  0  0  0  0  0  0
    2.3810   -1.2205   -2.2568 H   0  0  0  0  0  0  0  0  0  0  0  0
    2.0895   -2.3470   -3.5987 H   0  0  0  0  0  0  0  0  0  0  0  0
    2.2725   -0.6091   -3.9216 H   0  0  0  0  0  0  0  0  0  0  0  0
    0.7341   -0.2442    1.4423 C   0  0  0  0  0  0  0  0  0  0  0  0
    1.9317   -0.2556    1.6981 O   0  0  0  0  0  0  0  0  0  0  0  0
   -0.1378    0.3581    2.3311 N   0  0  0  0  0  0  0  0  0  0  0  0
   -1.1240    0.2316    2.1258 H   0  0  0  0  0  0  0  0  0  0  0  0
    0.2511    0.7113    3.6904 C   0  0  0  0  0  0  0  0  0  0  0  0
    1.0864    1.4194    3.6788 H   0  0  0  0  0  0  0  0  0  0  0  0
   -0.5877    1.1784    4.2149 H   0  0  0  0  0  0  0  0  0  0  0  0
    0.5546   -0.1828    4.2452 H   0  0  0  0  0  0  0  0  0  0  0  0
  1  2  1  0  0  0  0
  2  3  1  0  0  0  0
  2  4  1  0  0  0  0
  2  5  1  0  0  0  0
  5  6  2  0  0  0  0
  5  7  1  0  0  0  0
  7  8  1  0  0  0  0
  7  9  1  0  0  0  0
  9 10  1  0  0  0  0
  9 11  1  0  0  0  0
  9 22  1  0  0  0  0
 11 12  1  0  0  0  0
 11 13  1  0  0  0  0
 11 14  1  0  0  0  0
 14 15  1  0  0  0  0
 14 16  1  0  0  0  0
 14 17  1  0  0  0  0
 17 18  1  0  0  0  0
 18 19  1  0  0  0  0
 18 20  1  0  0  0  0
 18 21  1  0  0  0  0
 22 23  2  0  0  0  0
 22 24  1  0  0  0  0
 24 25  1  0  0  0  0
 24 26  1  0  0  0  0
 26 27  1  0  0  0  0
 26 28  1  0  0  0  0
 26 29  1  0  0  0  0
M  END
$$$$

  -OEChem-04042216023D

 29 28  0     1  0  0  0  0  0999 V2000
   -2.7297   -4.0960    0.7555 H   0  0  0  0  0  0  0  0  0  0  0  0
   -2.6355   -3.1715    0.1787 C   0  0  0  0  0  0  0  0  0  0  0  0
   -3.5251   -2.5595    0.3459 H   0  0  0  0  0  0  0  0  0  0  0  0
   -2.5689   -3.4248   -0.8823 H   0  0  0  0  0  0  0  0  0  0  0  0
   -1.3946   -2.4121    0.6081 C   0  0  0  0  0  0  0  0  0  0  0  0
   -0.6917   -2.8539    1.4993 O   0  0  0  0  0  0  0  0  0  0  0  0
   -1.0754   -1.2238   -0.0175 N   0  0  0  0  0  0  0  0  0  0  0  0
   -1.5972   -1.0452   -0.8725 H   0  0  0  0  0  0  0  0  0  0  0  0
    0.2563   -0.5935    0.0652 C   0  0  1  0  0  0  0  0  0  0  0  0
    0.9954   -1.3042   -0.3167 H   0  0  0  0  0  0  0  0  0  0  0  0
    0.2885    0.6807   -0.8063 C   0  0  0  0  0  0  0  0  0  0  0  0
   -0.4357    1.3933   -0.3978 H   0  0  0  0  0  0  0  0  0  0  0  0
    1.2786    1.1360   -0.6924 H   0  0  0  0  0  0  0  0  0  0  0  0
    0.0176    0.5381   -2.3243 C   0  0  0  0  0  0  0  0  0  0  0  0
   -0.8496    1.1599   -2.5695 H   0  0  0  0  0  0  0  0  0  0  0  0
    0.8689    0.9518   -2.8749 H   0  0  0  0  0  0  0  0  0  0  0  0
   -0.3204   -1.1597   -2.9606 S   0  0  0  0  0  0  0  0  0  0  0  0
    1.3738   -1.8085   -3.2559 C   0  0  0  0  0  0  0  0  0  0  0  0
    1.9607   -1.7933   -2.3333 H   0  0  0  0  0  0  0  0  0  0  0  0
    1.3220   -2.8396   -3.6183 H   0  0  0  0  0  0  0  0  0  0  0  0
    1.8872   -1.2002   -4.0065 H   0  0  0  0  0  0  0  0  0  0  0  0
    0.7133   -0.2272    1.4953 C   0  0  0  0  0  0  0  0  0  0  0  0
    1.9074   -0.2384    1.7662 O   0  0  0  0  0  0  0  0  0  0  0  0
   -0.1681    0.3911    2.3633 N   0  0  0  0  0  0  0  0  0  0  0  0
   -1.1519    0.2664    2.1461 H   0  0  0  0  0  0  0  0  0  0  0  0
    0.2031    0.7628    3.7226 C   0  0  0  0  0  0  0  0  0  0  0  0
    1.0357    1.4741    3.7122 H   0  0  0  0  0  0  0  0  0  0  0  0
   -0.6441    1.2326    4.2312 H   0  0  0  0  0  0  0  0  0  0  0  0
    0.5035   -0.1230    4.2923 H   0  0  0  0  0  0  0  0  0  0  0  0
  1  2  1  0  0  0  0
  2  3  1  0  0  0  0
  2  4  1  0  0  0  0
  2  5  1  0  0  0  0
  5  6  2  0  0  0  0
  5  7  1  0  0  0  0
  7  8  1  0  0  0  0
  7  9  1  0  0  0  0
  9 10  1  0  0  0  0
  9 11  1  0  0  0  0
  9 22  1  0  0  0  0
 11 12  1  0  0  0  0
 11 13  1  0  0  0  0
 11 14  1  0  0  0  0
 14 15  1  0  0  0  0
 14 16  1  0  0  0  0
 14 17  1  0  0  0  0
 17 18  1  0  0  0  0
 18 19  1  0  0  0  0
 18 20  1  0  0  0  0
 18 21  1  0  0  0  0
 22 23  2  0  0  0  0
 22 24  1  0  0  0  0
 24 25  1  0  0  0  0
 24 26  1  0  0  0  0
 26 27  1  0  0  0  0
 26 28  1  0  0  0  0
 26 29  1  0  0  0  0
M  END
$$$$

  -OEChem-04042216023D

 29 28  0     1  0  0  0  0  0999 V2000
   -2.7146   -4.1096    0.8577 H   0  0  0  0  0  0  0  0  0  0  0  0
   -2.6429   -3.1776    0.2899 C   0  0  0  0  0  0  0  0  0  0  0  0
   -3.5257   -2.5688    0.4984 H   0  0  0  0  0  0  0  0  0  0  0  0
   -2.6167   -3.4172   -0.7760 H   0  0  0  0  0  0  0  0  0  0  0  0
   -1.3871   -2.4224    0.6815 C   0  0  0  0  0  0  0  0  0  0  0  0
   -0.6603   -2.8638    1.5535 O   0  0  0  0  0  0  0  0  0  0  0  0
   -1.0754   -1.2432    0.0357 N   0  0  0  0  0  0  0  0  0  0  0  0
   -1.6242   -1.0576   -0.8017 H   0  0  0  0  0  0  0  0  0  0  0  0
    0.2510   -0.6016    0.0950 C   0  0  1  0  0  0  0  0  0  0  0  0
    0.9909   -1.3173   -0.2758 H   0  0  0  0  0  0  0  0  0  0  0  0
    0.2949    0.6545   -0.8040 C   0  0  0  0  0  0  0  0  0  0  0  0
   -0.4453    1.3599   -0.4123 H   0  0  0  0  0  0  0  0  0  0  0  0
    1.2756    1.1278   -0.6831 H   0  0  0  0  0  0  0  0  0  0  0  0
    0.0340    0.5047   -2.3245 C   0  0  0  0  0  0  0  0  0  0  0  0
   -0.6091    1.3328   -2.6397 H   0  0  0  0  0  0  0  0  0  0  0  0
    0.9878    0.6300   -2.8474 H   0  0  0  0  0  0  0  0  0  0  0  0
   -0.7247   -1.0666   -2.9239 S   0  0  0  0  0  0  0  0  0  0  0  0
    0.7461   -2.1215   -3.2422 C   0  0  0  0  0  0  0  0  0  0  0  0
    1.3295   -2.2584   -2.3278 H   0  0  0  0  0  0  0  0  0  0  0  0
    0.4307   -3.1047   -3.6036 H   0  0  0  0  0  0  0  0  0  0  0  0
    1.3862   -1.6601   -4.0000 H   0  0  0  0  0  0  0  0  0  0  0  0
    0.7112   -0.2096    1.5174 C   0  0  0  0  0  0  0  0  0  0  0  0
    1.9059   -0.2113    1.7858 O   0  0  0  0  0  0  0  0  0  0  0  0
   -0.1718    0.4148    2.3796 N   0  0  0  0  0  0  0  0  0  0  0  0
   -1.1557    0.2872    2.1647 H   0  0  0  0  0  0  0  0  0  0  0  0
    0.2013    0.8121    3.7311 C   0  0  0  0  0  0  0  0  0  0  0  0
    1.0212    1.5378    3.7052 H   0  0  0  0  0  0  0  0  0  0  0  0
   -0.6509    1.2741    4.2385 H   0  0  0  0  0  0  0  0  0  0  0  0
    0.5210   -0.0603    4.3110 H   0  0  0  0  0  0  0  0  0  0  0  0
  1  2  1  0  0  0  0
  2  3  1  0  0  0  0
  2  4  1  0  0  0  0
  2  5  1  0  0  0  0
  5  6  2  0  0  0  0
  5  7  1  0  0  0  0
  7  8  1  0  0  0  0
  7  9  1  0  0  0  0
  9 10  1  0  0  0  0
  9 11  1  0  0  0  0
  9 22  1  0  0  0  0
 11 12  1  0  0  0  0
 11 13  1  0  0  0  0
 11 14  1  0  0  0  0
 14 15  1  0  0  0  0
 14 16  1  0  0  0  0
 14 17  1  0  0  0  0
 17 18  1  0  0  0  0
 18 19  1  0  0  0  0
 18 20  1  0  0  0  0
 18 21  1  0  0  0  0
 22 23  2  0  0  0  0
 22 24  1  0  0  0  0
 24 25  1  0  0  0  0
 24 26  1  0  0  0  0
 26 27  1  0  0  0  0
 26 28  1  0  0  0  0
 26 29  1  0  0  0  0
M  END
$$$$

  -OEChem-04042216023D

 29 28  0     1  0  0  0  0  0999 V2000
   -2.7009   -4.1148    0.9202 H   0  0  0  0  0  0  0  0  0  0  0  0
   -2.6585   -3.1627    0.3836 C   0  0  0  0  0  0  0  0  0  0  0  0
   -3.5137   -2.5514    0.6811 H   0  0  0  0  0  0  0  0  0  0  0  0
   -2.7168   -3.3617   -0.6894 H   0  0  0  0  0  0  0  0  0  0  0  0
   -1.3662   -2.4374    0.7072 C   0  0  0  0  0  0  0  0  0  0  0  0
   -0.5931   -2.9059    1.5233 O   0  0  0  0  0  0  0  0  0  0  0  0
   -1.0699   -1.2565    0.0581 N   0  0  0  0  0  0  0  0  0  0  0  0
   -1.6698   -1.0309   -0.7334 H   0  0  0  0  0  0  0  0  0  0  0  0
    0.2487   -0.5994    0.0934 C   0  0  1  0  0  0  0  0  0  0  0  0
    0.9897   -1.3117   -0.2835 H   0  0  0  0  0  0  0  0  0  0  0  0
    0.2857    0.6508   -0.8152 C   0  0  0  0  0  0  0  0  0  0  0  0
   -0.4618    1.3505   -0.4265 H   0  0  0  0  0  0  0  0  0  0  0  0
    1.2624    1.1341   -0.7008 H   0  0  0  0  0  0  0  0  0  0  0  0
    0.0180    0.4919   -2.3329 C   0  0  0  0  0  0  0  0  0  0  0  0
   -0.3809    1.4408   -2.7061 H   0  0  0  0  0  0  0  0  0  0  0  0
    0.9820    0.3376   -2.8282 H   0  0  0  0  0  0  0  0  0  0  0  0
   -1.1052   -0.8629   -2.8879 S   0  0  0  0  0  0  0  0  0  0  0  0
    0.0493   -2.2726   -3.1314 C   0  0  0  0  0  0  0  0  0  0  0  0
    0.5402   -2.5379   -2.1912 H   0  0  0  0  0  0  0  0  0  0  0  0
   -0.4986   -3.1469   -3.4951 H   0  0  0  0  0  0  0  0  0  0  0  0
    0.8168   -2.0123   -3.8664 H   0  0  0  0  0  0  0  0  0  0  0  0
    0.7233   -0.2011    1.5091 C   0  0  0  0  0  0  0  0  0  0  0  0
    1.9212   -0.1909    1.7625 O   0  0  0  0  0  0  0  0  0  0  0  0
   -0.1546    0.4130    2.3837 N   0  0  0  0  0  0  0  0  0  0  0  0
   -1.1407    0.2901    2.1768 H   0  0  0  0  0  0  0  0  0  0  0  0
    0.2335    0.8300    3.7251 C   0  0  0  0  0  0  0  0  0  0  0  0
    1.0575    1.5499    3.6807 H   0  0  0  0  0  0  0  0  0  0  0  0
   -0.6108    1.3061    4.2325 H   0  0  0  0  0  0  0  0  0  0  0  0
    0.5532   -0.0347    4.3160 H   0  0  0  0  0  0  0  0  0  0  0  0
  1  2  1  0  0  0  0
  2  3  1  0  0  0  0
  2  4  1  0  0  0  0
  2  5  1  0  0  0  0
  5  6  2  0  0  0  0
  5  7  1  0  0  0  0
  7  8  1  0  0  0  0
  7  9  1  0  0  0  0
  9 10  1  0  0  0  0
  9 11  1  0  0  0  0
  9 22  1  0  0  0  0
 11 12  1  0  0  0  0
 11 13  1  0  0  0  0
 11 14  1  0  0  0  0
 14 15  1  0  0  0  0
 14 16  1  0  0  0  0
 14 17  1  0  0  0  0
 17 18  1  0  0  0  0
 18 19  1  0  0  0  0
 18 20  1  0  0  0  0
 18 21  1  0  0  0  0
 22 23  2  0  0  0  0
 22 24  1  0  0  0  0
 24 25  1  0  0  0  0
 24 26  1  0  0  0  0
 26 27  1  0  0  0  0
 26 28  1  0  0  0  0
 26 29  1  0  0  0  0
M  END
$$$$

  -OEChem-04042216023D

 29 28  0     1  0  0  0  0  0999 V2000
   -2.7222   -4.0925    1.0293 H   0  0  0  0  0  0  0  0  0  0  0  0
   -2.6845   -3.1423    0.4891 C   0  0  0  0  0  0  0  0  0  0  0  0
   -3.5143   -2.5142    0.8216 H   0  0  0  0  0  0  0  0  0  0  0  0
   -2.7926   -3.3412   -0.5799 H   0  0  0  0  0  0  0  0  0  0  0  0
   -1.3656   -2.4422    0.7553 C   0  0  0  0  0  0  0  0  0  0  0  0
   -0.5626   -2.9298    1.5299 O   0  0  0  0  0  0  0  0  0  0  0  0
   -1.0785   -1.2621    0.1013 N   0  0  0  0  0  0  0  0  0  0  0  0
   -1.7219   -0.9973   -0.6425 H   0  0  0  0  0  0  0  0  0  0  0  0
    0.2368   -0.5994    0.1125 C   0  0  1  0  0  0  0  0  0  0  0  0
    0.9704   -1.3156   -0.2735 H   0  0  0  0  0  0  0  0  0  0  0  0
    0.2660    0.6444   -0.8064 C   0  0  0  0  0  0  0  0  0  0  0  0
   -0.4732    1.3542   -0.4209 H   0  0  0  0  0  0  0  0  0  0  0  0
    1.2479    1.1214   -0.7117 H   0  0  0  0  0  0  0  0  0  0  0  0
   -0.0178    0.4530   -2.3145 C   0  0  0  0  0  0  0  0  0  0  0  0
   -0.1764    1.4424   -2.7559 H   0  0  0  0  0  0  0  0  0  0  0  0
    0.8813    0.0365   -2.7802 H   0  0  0  0  0  0  0  0  0  0  0  0
   -1.4464   -0.6165   -2.7798 S   0  0  0  0  0  0  0  0  0  0  0  0
   -0.6179   -2.2155   -3.1499 C   0  0  0  0  0  0  0  0  0  0  0  0
   -0.0627   -2.5726   -2.2774 H   0  0  0  0  0  0  0  0  0  0  0  0
   -1.3615   -2.9699   -3.4238 H   0  0  0  0  0  0  0  0  0  0  0  0
    0.0802   -2.0960   -3.9839 H   0  0  0  0  0  0  0  0  0  0  0  0
    0.7328   -0.1960    1.5192 C   0  0  0  0  0  0  0  0  0  0  0  0
    1.9342   -0.1818    1.7545 O   0  0  0  0  0  0  0  0  0  0  0  0
   -0.1337    0.4160    2.4065 N   0  0  0  0  0  0  0  0  0  0  0  0
   -1.1227    0.2982    2.2113 H   0  0  0  0  0  0  0  0  0  0  0  0
    0.2732    0.8395    3.7404 C   0  0  0  0  0  0  0  0  0  0  0  0
    1.0895    1.5672    3.6801 H   0  0  0  0  0  0  0  0  0  0  0  0
   -0.5669    1.3081    4.2616 H   0  0  0  0  0  0  0  0  0  0  0  0
    0.6112   -0.0209    4.3276 H   0  0  0  0  0  0  0  0  0  0  0  0
  1  2  1  0  0  0  0
  2  3  1  0  0  0  0
  2  4  1  0  0  0  0
  2  5  1  0  0  0  0
  5  6  2  0  0  0  0
  5  7  1  0  0  0  0
  7  8  1  0  0  0  0
  7  9  1  0  0  0  0
  9 10  1  0  0  0  0
  9 11  1  0  0  0  0
  9 22  1  0  0  0  0
 11 12  1  0  0  0  0
 11 13  1  0  0  0  0
 11 14  1  0  0  0  0
 14 15  1  0  0  0  0
 14 16  1  0  0  0  0
 14 17  1  0  0  0  0
 17 18  1  0  0  0  0
 18 19  1  0  0  0  0
 18 20  1  0  0  0  0
 18 21  1  0  0  0  0
 22 23  2  0  0  0  0
 22 24  1  0  0  0  0
 24 25  1  0  0  0  0
 24 26  1  0  0  0  0
 26 27  1  0  0  0  0
 26 28  1  0  0  0  0
 26 29  1  0  0  0  0
M  END
$$$$

  -OEChem-04042216023D

 29 28  0     1  0  0  0  0  0999 V2000
   -2.7286   -4.0595    1.1656 H   0  0  0  0  0  0  0  0  0  0  0  0
   -2.6965   -3.1138    0.6172 C   0  0  0  0  0  0  0  0  0  0  0  0
   -3.5001   -2.4684    0.9799 H   0  0  0  0  0  0  0  0  0  0  0  0
   -2.8526   -3.3178   -0.4449 H   0  0  0  0  0  0  0  0  0  0  0  0
   -1.3555   -2.4361    0.8231 C   0  0  0  0  0  0  0  0  0  0  0  0
   -0.5262   -2.9383    1.5596 O   0  0  0  0  0  0  0  0  0  0  0  0
   -1.0797   -1.2578    0.1610 N   0  0  0  0  0  0  0  0  0  0  0  0
   -1.7620   -0.9601   -0.5342 H   0  0  0  0  0  0  0  0  0  0  0  0
    0.2362   -0.5977    0.1378 C   0  0  1  0  0  0  0  0  0  0  0  0
    0.9580   -1.3160   -0.2664 H   0  0  0  0  0  0  0  0  0  0  0  0
    0.2403    0.6436   -0.7841 C   0  0  0  0  0  0  0  0  0  0  0  0
   -0.4744    1.3726   -0.3890 H   0  0  0  0  0  0  0  0  0  0  0  0
    1.2334    1.1036   -0.7337 H   0  0  0  0  0  0  0  0  0  0  0  0
   -0.0899    0.4019   -2.2710 C   0  0  0  0  0  0  0  0  0  0  0  0
   -0.0238    1.3595   -2.7977 H   0  0  0  0  0  0  0  0  0  0  0  0
    0.6764   -0.2535   -2.6972 H   0  0  0  0  0  0  0  0  0  0  0  0
   -1.7531   -0.3207   -2.6049 S   0  0  0  0  0  0  0  0  0  0  0  0
   -1.3091   -1.9701   -3.2816 C   0  0  0  0  0  0  0  0  0  0  0  0
   -0.7201   -2.5355   -2.5527 H   0  0  0  0  0  0  0  0  0  0  0  0
   -2.2147   -2.5373   -3.5164 H   0  0  0  0  0  0  0  0  0  0  0  0
   -0.7205   -1.8581   -4.1971 H   0  0  0  0  0  0  0  0  0  0  0  0
    0.7653   -0.1941    1.5320 C   0  0  0  0  0  0  0  0  0  0  0  0
    1.9714   -0.1874    1.7420 O   0  0  0  0  0  0  0  0  0  0  0  0
   -0.0794    0.4200    2.4389 N   0  0  0  0  0  0  0  0  0  0  0  0
   -1.0730    0.3126    2.2621 H   0  0  0  0  0  0  0  0  0  0  0  0
    0.3563    0.8364    3.7657 C   0  0  0  0  0  0  0  0  0  0  0  0
    1.1770    1.5576    3.6918 H   0  0  0  0  0  0  0  0  0  0  0  0
   -0.4702    1.3108    4.3036 H   0  0  0  0  0  0  0  0  0  0  0  0
    0.6984   -0.0283    4.3444 H   0  0  0  0  0  0  0  0  0  0  0  0
  1  2  1  0  0  0  0
  2  3  1  0  0  0  0
  2  4  1  0  0  0  0
  2  5  1  0  0  0  0
  5  6  2  0  0  0  0
  5  7  1  0  0  0  0
  7  8  1  0  0  0  0
  7  9  1  0  0  0  0
  9 10  1  0  0  0  0
  9 11  1  0  0  0  0
  9 22  1  0  0  0  0
 11 12  1  0  0  0  0
 11 13  1  0  0  0  0
 11 14  1  0  0  0  0
 14 15  1  0  0  0  0
 14 16  1  0  0  0  0
 14 17  1  0  0  0  0
 17 18  1  0  0  0  0
 18 19  1  0  0  0  0
 18 20  1  0  0  0  0
 18 21  1  0  0  0  0
 22 23  2  0  0  0  0
 22 24  1  0  0  0  0
 24 25  1  0  0  0  0
 24 26  1  0  0  0  0
 26 27  1  0  0  0  0
 26 28  1  0  0  0  0
 26 29  1  0  0  0  0
M  END
$$$$

  -OEChem-04042216023D

 29 28  0     1  0  0  0  0  0999 V2000
   -2.4680   -4.1951    1.8204 H   0  0  0  0  0  0  0  0  0  0  0  0
   -2.4893   -3.3457    1.1316 C   0  0  0  0  0  0  0  0  0  0  0  0
   -3.3152   -2.6869    1.4103 H   0  0  0  0  0  0  0  0  0  0  0  0
   -2.6556   -3.7185    0.1179 H   0  0  0  0  0  0  0  0  0  0  0  0
   -1.1766   -2.5880    1.1959 C   0  0  0  0  0  0  0  0  0  0  0  0
   -0.2855   -2.9752    1.9303 O   0  0  0  0  0  0  0  0  0  0  0  0
   -1.0011   -1.4615    0.4191 N   0  0  0  0  0  0  0  0  0  0  0  0
   -1.7352   -1.2610   -0.2581 H   0  0  0  0  0  0  0  0  0  0  0  0
    0.2765   -0.7470    0.2579 C   0  0  1  0  0  0  0  0  0  0  0  0
    1.0109   -1.4578   -0.1374 H   0  0  0  0  0  0  0  0  0  0  0  0
    0.1294    0.4101   -0.7526 C   0  0  0  0  0  0  0  0  0  0  0  0
   -0.5879    1.1431   -0.3693 H   0  0  0  0  0  0  0  0  0  0  0  0
    1.0986    0.9146   -0.8330 H   0  0  0  0  0  0  0  0  0  0  0  0
   -0.2988   -0.0214   -2.1652 C   0  0  0  0  0  0  0  0  0  0  0  0
   -0.1105    0.8075   -2.8552 H   0  0  0  0  0  0  0  0  0  0  0  0
    0.3137   -0.8686   -2.4911 H   0  0  0  0  0  0  0  0  0  0  0  0
   -2.0828   -0.4688   -2.2700 S   0  0  0  0  0  0  0  0  0  0  0  0
   -2.2448   -0.8570   -4.0574 C   0  0  0  0  0  0  0  0  0  0  0  0
   -1.9825    0.0173   -4.6607 H   0  0  0  0  0  0  0  0  0  0  0  0
   -3.2751   -1.1441   -4.2883 H   0  0  0  0  0  0  0  0  0  0  0  0
   -1.5818   -1.6839   -4.3290 H   0  0  0  0  0  0  0  0  0  0  0  0
    0.8702   -0.1957    1.5733 C   0  0  0  0  0  0  0  0  0  0  0  0
    2.0852   -0.1135    1.6999 O   0  0  0  0  0  0  0  0  0  0  0  0
    0.0540    0.4598    2.4772 N   0  0  0  0  0  0  0  0  0  0  0  0
   -0.9415    0.2886    2.3784 H   0  0  0  0  0  0  0  0  0  0  0  0
    0.5498    1.0074    3.7333 C   0  0  0  0  0  0  0  0  0  0  0  0
    1.3410    1.7413    3.5468 H   0  0  0  0  0  0  0  0  0  0  0  0
   -0.2597    1.5057    4.2749 H   0  0  0  0  0  0  0  0  0  0  0  0
    0.9518    0.2082    4.3650 H   0  0  0  0  0  0  0  0  0  0  0  0
  1  2  1  0  0  0  0
  2  3  1  0  0  0  0
  2  4  1  0  0  0  0
  2  5  1  0  0  0  0
  5  6  2  0  0  0  0
  5  7  1  0  0  0  0
  7  8  1  0  0  0  0
  7  9  1  0  0  0  0
  9 10  1  0  0  0  0
  9 11  1  0  0  0  0
  9 22  1  0  0  0  0
 11 12  1  0  0  0  0
 11 13  1  0  0  0  0
 11 14  1  0  0  0  0
 14 15  1  0  0  0  0
 14 16  1  0  0  0  0
 14 17  1  0  0  0  0
 17 18  1  0  0  0  0
 18 19  1  0  0  0  0
 18 20  1  0  0  0  0
 18 21  1  0  0  0  0
 22 23  2  0  0  0  0
 22 24  1  0  0  0  0
 24 25  1  0  0  0  0
 24 26  1  0  0  0  0
 26 27  1  0  0  0  0
 26 28  1  0  0  0  0
 26 29  1  0  0  0  0
M  END
$$$$

  -OEChem-04042216023D

 29 28  0     1  0  0  0  0  0999 V2000
   -2.3351   -4.2384    1.7574 H   0  0  0  0  0  0  0  0  0  0  0  0
   -2.4392   -3.3128    1.1839 C   0  0  0  0  0  0  0  0  0  0  0  0
   -3.1959   -2.6856    1.6612 H   0  0  0  0  0  0  0  0  0  0  0  0
   -2.7667   -3.5614    0.1716 H   0  0  0  0  0  0  0  0  0  0  0  0
   -1.1135   -2.5777    1.1344 C   0  0  0  0  0  0  0  0  0  0  0  0
   -0.1553   -3.0076    1.7507 O   0  0  0  0  0  0  0  0  0  0  0  0
   -1.0017   -1.4206    0.3918 N   0  0  0  0  0  0  0  0  0  0  0  0
   -1.8059   -1.1622   -0.1780 H   0  0  0  0  0  0  0  0  0  0  0  0
    0.2575   -0.6909    0.1598 C   0  0  1  0  0  0  0  0  0  0  0  0
    0.9639   -1.3700   -0.3305 H   0  0  0  0  0  0  0  0  0  0  0  0
   -0.0205    0.4975   -0.7778 C   0  0  0  0  0  0  0  0  0  0  0  0
   -0.7064    1.2073   -0.3036 H   0  0  0  0  0  0  0  0  0  0  0  0
    0.9257    1.0234   -0.9475 H   0  0  0  0  0  0  0  0  0  0  0  0
   -0.5769    0.0572   -2.1389 C   0  0  0  0  0  0  0  0  0  0  0  0
   -0.2790    0.7891   -2.8969 H   0  0  0  0  0  0  0  0  0  0  0  0
   -0.1588   -0.9117   -2.4318 H   0  0  0  0  0  0  0  0  0  0  0  0
   -2.4152   -0.0191   -2.0952 S   0  0  0  0  0  0  0  0  0  0  0  0
   -2.7904   -0.4643   -3.8363 C   0  0  0  0  0  0  0  0  0  0  0  0
   -2.4152    0.3083   -4.5143 H   0  0  0  0  0  0  0  0  0  0  0  0
   -3.8716   -0.5566   -3.9760 H   0  0  0  0  0  0  0  0  0  0  0  0
   -2.3208   -1.4184   -4.0940 H   0  0  0  0  0  0  0  0  0  0  0  0
    0.9541   -0.1853    1.4421 C   0  0  0  0  0  0  0  0  0  0  0  0
    2.1750   -0.1030    1.4747 O   0  0  0  0  0  0  0  0  0  0  0  0
    0.2109    0.4305    2.4327 N   0  0  0  0  0  0  0  0  0  0  0  0
   -0.7903    0.2669    2.4040 H   0  0  0  0  0  0  0  0  0  0  0  0
    0.8038    0.9476    3.6593 C   0  0  0  0  0  0  0  0  0  0  0  0
    1.5512    1.7148    3.4311 H   0  0  0  0  0  0  0  0  0  0  0  0
    0.0326    1.3970    4.2920 H   0  0  0  0  0  0  0  0  0  0  0  0
    1.2871    0.1404    4.2197 H   0  0  0  0  0  0  0  0  0  0  0  0
  1  2  1  0  0  0  0
  2  3  1  0  0  0  0
  2  4  1  0  0  0  0
  2  5  1  0  0  0  0
  5  6  2  0  0  0  0
  5  7  1  0  0  0  0
  7  8  1  0  0  0  0
  7  9  1  0  0  0  0
  9 10  1  0  0  0  0
  9 11  1  0  0  0  0
  9 22  1  0  0  0  0
 11 12  1  0  0  0  0
 11 13  1  0  0  0  0
 11 14  1  0  0  0  0
 14 15  1  0  0  0  0
 14 16  1  0  0  0  0
 14 17  1  0  0  0  0
 17 18  1  0  0  0  0
 18 19  1  0  0  0  0
 18 20  1  0  0  0  0
 18 21  1  0  0  0  0
 22 23  2  0  0  0  0
 22 24  1  0  0  0  0
 24 25  1  0  0  0  0
 24 26  1  0  0  0  0
 26 27  1  0  0  0  0
 26 28  1  0  0  0  0
 26 29  1  0  0  0  0
M  END
$$$$

  -OEChem-04042216023D

 29 28  0     1  0  0  0  0  0999 V2000
   -2.5637   -4.1553    1.6285 H   0  0  0  0  0  0  0  0  0  0  0  0
   -2.6045   -3.2393    1.0321 C   0  0  0  0  0  0  0  0  0  0  0  0
   -3.3534   -2.5712    1.4643 H   0  0  0  0  0  0  0  0  0  0  0  0
   -2.9001   -3.4964    0.0120 H   0  0  0  0  0  0  0  0  0  0  0  0
   -1.2471   -2.5624    1.0229 C   0  0  0  0  0  0  0  0  0  0  0  0
   -0.3095   -3.0689    1.6119 O   0  0  0  0  0  0  0  0  0  0  0  0
   -1.0801   -1.3726    0.3449 N   0  0  0  0  0  0  0  0  0  0  0  0
   -1.8752   -1.0306   -0.1918 H   0  0  0  0  0  0  0  0  0  0  0  0
    0.2091   -0.6756    0.1805 C   0  0  1  0  0  0  0  0  0  0  0  0
    0.9059   -1.3471   -0.3341 H   0  0  0  0  0  0  0  0  0  0  0  0
   -0.0340    0.5628   -0.6953 C   0  0  0  0  0  0  0  0  0  0  0  0
   -0.7100    1.2618   -0.1916 H   0  0  0  0  0  0  0  0  0  0  0  0
    0.9226    1.0795   -0.8295 H   0  0  0  0  0  0  0  0  0  0  0  0
   -0.5817    0.1871   -2.0799 C   0  0  0  0  0  0  0  0  0  0  0  0
   -0.0626    0.7799   -2.8404 H   0  0  0  0  0  0  0  0  0  0  0  0
   -0.4009   -0.8689   -2.3069 H   0  0  0  0  0  0  0  0  0  0  0  0
   -2.3771    0.5702   -2.1673 S   0  0  0  0  0  0  0  0  0  0  0  0
   -2.7357    0.1770   -3.9244 C   0  0  0  0  0  0  0  0  0  0  0  0
   -2.5160   -0.8746   -4.1315 H   0  0  0  0  0  0  0  0  0  0  0  0
   -3.7912    0.3645   -4.1437 H   0  0  0  0  0  0  0  0  0  0  0  0
   -2.1257    0.8010   -4.5846 H   0  0  0  0  0  0  0  0  0  0  0  0
    0.8947   -0.2597    1.5005 C   0  0  0  0  0  0  0  0  0  0  0  0
    2.1167   -0.2314    1.5648 O   0  0  0  0  0  0  0  0  0  0  0  0
    0.1530    0.3313    2.5074 N   0  0  0  0  0  0  0  0  0  0  0  0
   -0.8536    0.2180    2.4454 H   0  0  0  0  0  0  0  0  0  0  0  0
    0.7359    0.7573    3.7734 C   0  0  0  0  0  0  0  0  0  0  0  0
    1.5442    1.4763    3.6024 H   0  0  0  0  0  0  0  0  0  0  0  0
   -0.0241    1.2378    4.3966 H   0  0  0  0  0  0  0  0  0  0  0  0
    1.1394   -0.1036    4.3168 H   0  0  0  0  0  0  0  0  0  0  0  0
  1  2  1  0  0  0  0
  2  3  1  0  0  0  0
  2  4  1  0  0  0  0
  2  5  1  0  0  0  0
  5  6  2  0  0  0  0
  5  7  1  0  0  0  0
  7  8  1  0  0  0  0
  7  9  1  0  0  0  0
  9 10  1  0  0  0  0
  9 11  1  0  0  0  0
  9 22  1  0  0  0  0
 11 12  1  0  0  0  0
 11 13  1  0  0  0  0
 11 14  1  0  0  0  0
 14 15  1  0  0  0  0
 14 16  1  0  0  0  0
 14 17  1  0  0  0  0
 17 18  1  0  0  0  0
 18 19  1  0  0  0  0
 18 20  1  0  0  0  0
 18 21  1  0  0  0  0
 22 23  2  0  0  0  0
 22 24  1  0  0  0  0
 24 25  1  0  0  0  0
 24 26  1  0  0  0  0
 26 27  1  0  0  0  0
 26 28  1  0  0  0  0
 26 29  1  0  0  0  0
M  END
$$$$

  -OEChem-04042216023D

 29 28  0     1  0  0  0  0  0999 V2000
   -2.6234   -4.1449    0.6385 H   0  0  0  0  0  0  0  0  0  0  0  0
   -2.5933   -3.1688    0.1459 C   0  0  0  0  0  0  0  0  0  0  0  0
   -3.4169   -2.5588    0.5244 H   0  0  0  0  0  0  0  0  0  0  0  0
   -2.7194   -3.3152   -0.9294 H   0  0  0  0  0  0  0  0  0  0  0  0
   -1.2687   -2.4844    0.4255 C   0  0  0  0  0  0  0  0  0  0  0  0
   -0.4497   -3.0169    1.1510 O   0  0  0  0  0  0  0  0  0  0  0  0
   -1.0023   -1.2554   -0.1442 N   0  0  0  0  0  0  0  0  0  0  0  0
   -1.6782   -0.9112   -0.8183 H   0  0  0  0  0  0  0  0  0  0  0  0
    0.2994   -0.5677   -0.0718 C   0  0  1  0  0  0  0  0  0  0  0  0
    1.0581   -1.2242   -0.5128 H   0  0  0  0  0  0  0  0  0  0  0  0
    0.2403    0.7316   -0.8959 C   0  0  0  0  0  0  0  0  0  0  0  0
   -0.5013    1.4085   -0.4596 H   0  0  0  0  0  0  0  0  0  0  0  0
    1.2112    1.2347   -0.8259 H   0  0  0  0  0  0  0  0  0  0  0  0
   -0.0764    0.4909   -2.3829 C   0  0  0  0  0  0  0  0  0  0  0  0
    0.7517    0.8790   -2.9855 H   0  0  0  0  0  0  0  0  0  0  0  0
   -0.1550   -0.5793   -2.6000 H   0  0  0  0  0  0  0  0  0  0  0  0
   -1.6245    1.3430   -2.9064 S   0  0  0  0  0  0  0  0  0  0  0  0
   -2.9999    0.4880   -2.0417 C   0  0  0  0  0  0  0  0  0  0  0  0
   -2.9147    0.6238   -0.9599 H   0  0  0  0  0  0  0  0  0  0  0  0
   -3.9577    0.9063   -2.3665 H   0  0  0  0  0  0  0  0  0  0  0  0
   -2.9917   -0.5803   -2.2767 H   0  0  0  0  0  0  0  0  0  0  0  0
    0.7838   -0.2462    1.3600 C   0  0  0  0  0  0  0  0  0  0  0  0
    1.9832   -0.2364    1.6028 O   0  0  0  0  0  0  0  0  0  0  0  0
   -0.0942    0.2896    2.2850 N   0  0  0  0  0  0  0  0  0  0  0  0
   -1.0813    0.1803    2.0789 H   0  0  0  0  0  0  0  0  0  0  0  0
    0.3052    0.6300    3.6448 C   0  0  0  0  0  0  0  0  0  0  0  0
    1.1060    1.3770    3.6340 H   0  0  0  0  0  0  0  0  0  0  0  0
   -0.5437    1.0447    4.1966 H   0  0  0  0  0  0  0  0  0  0  0  0
    0.6618   -0.2610    4.1724 H   0  0  0  0  0  0  0  0  0  0  0  0
  1  2  1  0  0  0  0
  2  3  1  0  0  0  0
  2  4  1  0  0  0  0
  2  5  1  0  0  0  0
  5  6  2  0  0  0  0
  5  7  1  0  0  0  0
  7  8  1  0  0  0  0
  7  9  1  0  0  0  0
  9 10  1  0  0  0  0
  9 11  1  0  0  0  0
  9 22  1  0  0  0  0
 11 12  1  0  0  0  0
 11 13  1  0  0  0  0
 11 14  1  0  0  0  0
 14 15  1  0  0  0  0
 14 16  1  0  0  0  0
 14 17  1  0  0  0  0
 17 18  1  0  0  0  0
 18 19  1  0  0  0  0
 18 20  1  0  0  0  0
 18 21  1  0  0  0  0
 22 23  2  0  0  0  0
 22 24  1  0  0  0  0
 24 25  1  0  0  0  0
 24 26  1  0  0  0  0
 26 27  1  0  0  0  0
 26 28  1  0  0  0  0
 26 29  1  0  0  0  0
M  END
$$$$

  -OEChem-04042216023D

 29 28  0     1  0  0  0  0  0999 V2000
   -2.6651   -4.1020    0.6499 H   0  0  0  0  0  0  0  0  0  0  0  0
   -2.6328   -3.1220    0.1651 C   0  0  0  0  0  0  0  0  0  0  0  0
   -3.4336   -2.5015    0.5741 H   0  0  0  0  0  0  0  0  0  0  0  0
   -2.7943   -3.2558   -0.9071 H   0  0  0  0  0  0  0  0  0  0  0  0
   -1.2881   -2.4640    0.4092 C   0  0  0  0  0  0  0  0  0  0  0  0
   -0.4552   -3.0195    1.1009 O   0  0  0  0  0  0  0  0  0  0  0  0
   -1.0179   -1.2314   -0.1507 N   0  0  0  0  0  0  0  0  0  0  0  0
   -1.7174   -0.8524   -0.7809 H   0  0  0  0  0  0  0  0  0  0  0  0
    0.2909   -0.5521   -0.0775 C   0  0  1  0  0  0  0  0  0  0  0  0
    1.0435   -1.2092   -0.5285 H   0  0  0  0  0  0  0  0  0  0  0  0
    0.2329    0.7520   -0.8914 C   0  0  0  0  0  0  0  0  0  0  0  0
   -0.5161    1.4130   -0.4440 H   0  0  0  0  0  0  0  0  0  0  0  0
    1.1966    1.2684   -0.8202 H   0  0  0  0  0  0  0  0  0  0  0  0
   -0.0913    0.5177   -2.3776 C   0  0  0  0  0  0  0  0  0  0  0  0
    0.8251    0.6409   -2.9643 H   0  0  0  0  0  0  0  0  0  0  0  0
   -0.4494   -0.5003   -2.5567 H   0  0  0  0  0  0  0  0  0  0  0  0
   -1.3563    1.7134   -2.9704 S   0  0  0  0  0  0  0  0  0  0  0  0
   -2.9074    1.1200   -2.1849 C   0  0  0  0  0  0  0  0  0  0  0  0
   -2.8295    1.1668   -1.0950 H   0  0  0  0  0  0  0  0  0  0  0  0
   -3.7468    1.7478   -2.4993 H   0  0  0  0  0  0  0  0  0  0  0  0
   -3.1129    0.0883   -2.4845 H   0  0  0  0  0  0  0  0  0  0  0  0
    0.7827   -0.2480    1.3554 C   0  0  0  0  0  0  0  0  0  0  0  0
    1.9825   -0.2517    1.5962 O   0  0  0  0  0  0  0  0  0  0  0  0
   -0.0888    0.2846    2.2884 N   0  0  0  0  0  0  0  0  0  0  0  0
   -1.0774    0.1877    2.0835 H   0  0  0  0  0  0  0  0  0  0  0  0
    0.3170    0.6061    3.6508 C   0  0  0  0  0  0  0  0  0  0  0  0
    1.1216    1.3491    3.6464 H   0  0  0  0  0  0  0  0  0  0  0  0
   -0.5282    1.0181    4.2103 H   0  0  0  0  0  0  0  0  0  0  0  0
    0.6707   -0.2931    4.1662 H   0  0  0  0  0  0  0  0  0  0  0  0
  1  2  1  0  0  0  0
  2  3  1  0  0  0  0
  2  4  1  0  0  0  0
  2  5  1  0  0  0  0
  5  6  2  0  0  0  0
  5  7  1  0  0  0  0
  7  8  1  0  0  0  0
  7  9  1  0  0  0  0
  9 10  1  0  0  0  0
  9 11  1  0  0  0  0
  9 22  1  0  0  0  0
 11 12  1  0  0  0  0
 11 13  1  0  0  0  0
 11 14  1  0  0  0  0
 14 15  1  0  0  0  0
 14 16  1  0  0  0  0
 14 17  1  0  0  0  0
 17 18  1  0  0  0  0
 18 19  1  0  0  0  0
 18 20  1  0  0  0  0
 18 21  1  0  0  0  0
 22 23  2  0  0  0  0
 22 24  1  0  0  0  0
 24 25  1  0  0  0  0
 24 26  1  0  0  0  0
 26 27  1  0  0  0  0
 26 28  1  0  0  0  0
 26 29  1  0  0  0  0
M  END
$$$$

  -OEChem-04042216023D

 29 28  0     1  0  0  0  0  0999 V2000
   -2.6630   -4.0989    0.6793 H   0  0  0  0  0  0  0  0  0  0  0  0
   -2.6377   -3.1187    0.1945 C   0  0  0  0  0  0  0  0  0  0  0  0
   -3.4247   -2.4941    0.6238 H   0  0  0  0  0  0  0  0  0  0  0  0
   -2.8263   -3.2510   -0.8735 H   0  0  0  0  0  0  0  0  0  0  0  0
   -1.2838   -2.4685    0.4062 C   0  0  0  0  0  0  0  0  0  0  0  0
   -0.4342   -3.0348    1.0683 O   0  0  0  0  0  0  0  0  0  0  0  0
   -1.0237   -1.2309   -0.1482 N   0  0  0  0  0  0  0  0  0  0  0  0
   -1.7461   -0.8323   -0.7396 H   0  0  0  0  0  0  0  0  0  0  0  0
    0.2834   -0.5470   -0.0804 C   0  0  1  0  0  0  0  0  0  0  0  0
    1.0337   -1.2024   -0.5373 H   0  0  0  0  0  0  0  0  0  0  0  0
    0.2306    0.7610   -0.8889 C   0  0  0  0  0  0  0  0  0  0  0  0
   -0.5236    1.4138   -0.4393 H   0  0  0  0  0  0  0  0  0  0  0  0
    1.1922    1.2812   -0.8142 H   0  0  0  0  0  0  0  0  0  0  0  0
   -0.0947    0.5357   -2.3751 C   0  0  0  0  0  0  0  0  0  0  0  0
    0.8390    0.3809   -2.9263 H   0  0  0  0  0  0  0  0  0  0  0  0
   -0.7091   -0.3564   -2.5234 H   0  0  0  0  0  0  0  0  0  0  0  0
   -0.9909    1.9835   -3.0679 S   0  0  0  0  0  0  0  0  0  0  0  0
   -2.6863    1.7991   -2.3844 C   0  0  0  0  0  0  0  0  0  0  0  0
   -2.6695    1.8541   -1.2924 H   0  0  0  0  0  0  0  0  0  0  0  0
   -3.3286    2.6006   -2.7618 H   0  0  0  0  0  0  0  0  0  0  0  0
   -3.1147    0.8387   -2.6854 H   0  0  0  0  0  0  0  0  0  0  0  0
    0.7810   -0.2522    1.3526 C   0  0  0  0  0  0  0  0  0  0  0  0
    1.9816   -0.2563    1.5893 O   0  0  0  0  0  0  0  0  0  0  0  0
   -0.0889    0.2699    2.2933 N   0  0  0  0  0  0  0  0  0  0  0  0
   -1.0779    0.1743    2.0900 H   0  0  0  0  0  0  0  0  0  0  0  0
    0.3199    0.5793    3.6575 C   0  0  0  0  0  0  0  0  0  0  0  0
    1.1221    1.3248    3.6584 H   0  0  0  0  0  0  0  0  0  0  0  0
   -0.5249    0.9829    4.2235 H   0  0  0  0  0  0  0  0  0  0  0  0
    0.6778   -0.3239    4.1630 H   0  0  0  0  0  0  0  0  0  0  0  0
  1  2  1  0  0  0  0
  2  3  1  0  0  0  0
  2  4  1  0  0  0  0
  2  5  1  0  0  0  0
  5  6  2  0  0  0  0
  5  7  1  0  0  0  0
  7  8  1  0  0  0  0
  7  9  1  0  0  0  0
  9 10  1  0  0  0  0
  9 11  1  0  0  0  0
  9 22  1  0  0  0  0
 11 12  1  0  0  0  0
 11 13  1  0  0  0  0
 11 14  1  0  0  0  0
 14 15  1  0  0  0  0
 14 16  1  0  0  0  0
 14 17  1  0  0  0  0
 17 18  1  0  0  0  0
 18 19  1  0  0  0  0
 18 20  1  0  0  0  0
 18 21  1  0  0  0  0
 22 23  2  0  0  0  0
 22 24  1  0  0  0  0
 24 25  1  0  0  0  0
 24 26  1  0  0  0  0
 26 27  1  0  0  0  0
 26 28  1  0  0  0  0
 26 29  1  0  0  0  0
M  END
$$$$

  -OEChem-04042216023D

 29 28  0     1  0  0  0  0  0999 V2000
   -2.6538   -4.1194    0.6731 H   0  0  0  0  0  0  0  0  0  0  0  0
   -2.6358   -3.1378    0.1908 C   0  0  0  0  0  0  0  0  0  0  0  0
   -3.4274   -2.5204    0.6217 H   0  0  0  0  0  0  0  0  0  0  0  0
   -2.8237   -3.2693   -0.8776 H   0  0  0  0  0  0  0  0  0  0  0  0
   -1.2866   -2.4776    0.4038 C   0  0  0  0  0  0  0  0  0  0  0  0
   -0.4331   -3.0389    1.0652 O   0  0  0  0  0  0  0  0  0  0  0  0
   -1.0346   -1.2373   -0.1490 N   0  0  0  0  0  0  0  0  0  0  0  0
   -1.7633   -0.8391   -0.7326 H   0  0  0  0  0  0  0  0  0  0  0  0
    0.2692   -0.5468   -0.0826 C   0  0  1  0  0  0  0  0  0  0  0  0
    1.0210   -1.2010   -0.5391 H   0  0  0  0  0  0  0  0  0  0  0  0
    0.2190    0.7612   -0.8916 C   0  0  0  0  0  0  0  0  0  0  0  0
   -0.5357    1.4171   -0.4481 H   0  0  0  0  0  0  0  0  0  0  0  0
    1.1828    1.2769   -0.8170 H   0  0  0  0  0  0  0  0  0  0  0  0
   -0.1018    0.5304   -2.3756 C   0  0  0  0  0  0  0  0  0  0  0  0
    0.7804    0.1160   -2.8750 H   0  0  0  0  0  0  0  0  0  0  0  0
   -0.9185   -0.1851   -2.5012 H   0  0  0  0  0  0  0  0  0  0  0  0
   -0.5811    2.1117   -3.1807 S   0  0  0  0  0  0  0  0  0  0  0  0
   -2.2838    2.4180   -2.5622 C   0  0  0  0  0  0  0  0  0  0  0  0
   -2.2810    2.5617   -1.4782 H   0  0  0  0  0  0  0  0  0  0  0  0
   -2.6919    3.3192   -3.0299 H   0  0  0  0  0  0  0  0  0  0  0  0
   -2.9343    1.5734   -2.8069 H   0  0  0  0  0  0  0  0  0  0  0  0
    0.7693   -0.2519    1.3496 C   0  0  0  0  0  0  0  0  0  0  0  0
    1.9708   -0.2455    1.5812 O   0  0  0  0  0  0  0  0  0  0  0  0
   -0.0997    0.2641    2.2943 N   0  0  0  0  0  0  0  0  0  0  0  0
   -1.0888    0.1521    2.0999 H   0  0  0  0  0  0  0  0  0  0  0  0
    0.3158    0.5779    3.6558 C   0  0  0  0  0  0  0  0  0  0  0  0
    1.1131    1.3287    3.6504 H   0  0  0  0  0  0  0  0  0  0  0  0
   -0.5279    0.9766    4.2270 H   0  0  0  0  0  0  0  0  0  0  0  0
    0.6836   -0.3222    4.1597 H   0  0  0  0  0  0  0  0  0  0  0  0
  1  2  1  0  0  0  0
  2  3  1  0  0  0  0
  2  4  1  0  0  0  0
  2  5  1  0  0  0  0
  5  6  2  0  0  0  0
  5  7  1  0  0  0  0
  7  8  1  0  0  0  0
  7  9  1  0  0  0  0
  9 10  1  0  0  0  0
  9 11  1  0  0  0  0
  9 22  1  0  0  0  0
 11 12  1  0  0  0  0
 11 13  1  0  0  0  0
 11 14  1  0  0  0  0
 14 15  1  0  0  0  0
 14 16  1  0  0  0  0
 14 17  1  0  0  0  0
 17 18  1  0  0  0  0
 18 19  1  0  0  0  0
 18 20  1  0  0  0  0
 18 21  1  0  0  0  0
 22 23  2  0  0  0  0
 22 24  1  0  0  0  0
 24 25  1  0  0  0  0
 24 26  1  0  0  0  0
 26 27  1  0  0  0  0
 26 28  1  0  0  0  0
 26 29  1  0  0  0  0
M  END
$$$$

  -OEChem-04042216023D

 29 28  0     1  0  0  0  0  0999 V2000
   -2.6126   -4.1829    0.6999 H   0  0  0  0  0  0  0  0  0  0  0  0
   -2.6172   -3.2068    0.2060 C   0  0  0  0  0  0  0  0  0  0  0  0
   -3.4223   -2.6025    0.6305 H   0  0  0  0  0  0  0  0  0  0  0  0
   -2.8032   -3.3542   -0.8606 H   0  0  0  0  0  0  0  0  0  0  0  0
   -1.2830   -2.5138    0.4093 C   0  0  0  0  0  0  0  0  0  0  0  0
   -0.4126   -3.0523    1.0675 O   0  0  0  0  0  0  0  0  0  0  0  0
   -1.0652   -1.2682   -0.1457 N   0  0  0  0  0  0  0  0  0  0  0  0
   -1.8100   -0.8887   -0.7205 H   0  0  0  0  0  0  0  0  0  0  0  0
    0.2230   -0.5465   -0.0894 C   0  0  1  0  0  0  0  0  0  0  0  0
    0.9763   -1.1997   -0.5446 H   0  0  0  0  0  0  0  0  0  0  0  0
    0.1774    0.7536   -0.9173 C   0  0  0  0  0  0  0  0  0  0  0  0
   -0.3859    1.5052   -0.3567 H   0  0  0  0  0  0  0  0  0  0  0  0
    1.1981    1.1325   -1.0400 H   0  0  0  0  0  0  0  0  0  0  0  0
   -0.4655    0.5827   -2.3011 C   0  0  0  0  0  0  0  0  0  0  0  0
    0.1030   -0.1564   -2.8753 H   0  0  0  0  0  0  0  0  0  0  0  0
   -1.4951    0.2260   -2.2172 H   0  0  0  0  0  0  0  0  0  0  0  0
   -0.4735    2.1795   -3.2115 S   0  0  0  0  0  0  0  0  0  0  0  0
   -1.6992    3.1996   -2.2990 C   0  0  0  0  0  0  0  0  0  0  0  0
   -1.3446    3.4135   -1.2869 H   0  0  0  0  0  0  0  0  0  0  0  0
   -1.8528    4.1499   -2.8191 H   0  0  0  0  0  0  0  0  0  0  0  0
   -2.6580    2.6768   -2.2368 H   0  0  0  0  0  0  0  0  0  0  0  0
    0.7342   -0.2351    1.3353 C   0  0  0  0  0  0  0  0  0  0  0  0
    1.9380   -0.1911    1.5505 O   0  0  0  0  0  0  0  0  0  0  0  0
   -0.1357    0.2632    2.2887 N   0  0  0  0  0  0  0  0  0  0  0  0
   -1.1239    0.1235    2.1084 H   0  0  0  0  0  0  0  0  0  0  0  0
    0.2893    0.5982    3.6422 C   0  0  0  0  0  0  0  0  0  0  0  0
    1.0630    1.3730    3.6202 H   0  0  0  0  0  0  0  0  0  0  0  0
   -0.5580    0.9749    4.2228 H   0  0  0  0  0  0  0  0  0  0  0  0
    0.6912   -0.2869    4.1466 H   0  0  0  0  0  0  0  0  0  0  0  0
  1  2  1  0  0  0  0
  2  3  1  0  0  0  0
  2  4  1  0  0  0  0
  2  5  1  0  0  0  0
  5  6  2  0  0  0  0
  5  7  1  0  0  0  0
  7  8  1  0  0  0  0
  7  9  1  0  0  0  0
  9 10  1  0  0  0  0
  9 11  1  0  0  0  0
  9 22  1  0  0  0  0
 11 12  1  0  0  0  0
 11 13  1  0  0  0  0
 11 14  1  0  0  0  0
 14 15  1  0  0  0  0
 14 16  1  0  0  0  0
 14 17  1  0  0  0  0
 17 18  1  0  0  0  0
 18 19  1  0  0  0  0
 18 20  1  0  0  0  0
 18 21  1  0  0  0  0
 22 23  2  0  0  0  0
 22 24  1  0  0  0  0
 24 25  1  0  0  0  0
 24 26  1  0  0  0  0
 26 27  1  0  0  0  0
 26 28  1  0  0  0  0
 26 29  1  0  0  0  0
M  END
$$$$

  -OEChem-04042216023D

 29 28  0     1  0  0  0  0  0999 V2000
   -2.5922   -4.1956    0.7176 H   0  0  0  0  0  0  0  0  0  0  0  0
   -2.5989   -3.2333    0.1977 C   0  0  0  0  0  0  0  0  0  0  0  0
   -3.4222   -2.6299    0.5871 H   0  0  0  0  0  0  0  0  0  0  0  0
   -2.7574   -3.4122   -0.8686 H   0  0  0  0  0  0  0  0  0  0  0  0
   -1.2801   -2.5149    0.4122 C   0  0  0  0  0  0  0  0  0  0  0  0
   -0.4089   -3.0298    1.0879 O   0  0  0  0  0  0  0  0  0  0  0  0
   -1.0775   -1.2726   -0.1557 N   0  0  0  0  0  0  0  0  0  0  0  0
   -1.8162   -0.9218   -0.7561 H   0  0  0  0  0  0  0  0  0  0  0  0
    0.2025   -0.5357   -0.1105 C   0  0  1  0  0  0  0  0  0  0  0  0
    0.9640   -1.1793   -0.5663 H   0  0  0  0  0  0  0  0  0  0  0  0
    0.1203    0.7564   -0.9459 C   0  0  0  0  0  0  0  0  0  0  0  0
   -0.4425    1.5137   -0.3917 H   0  0  0  0  0  0  0  0  0  0  0  0
    1.1369    1.1395   -1.0889 H   0  0  0  0  0  0  0  0  0  0  0  0
   -0.5375    0.5506   -2.3173 C   0  0  0  0  0  0  0  0  0  0  0  0
   -0.1271   -0.3487   -2.7889 H   0  0  0  0  0  0  0  0  0  0  0  0
   -1.6176    0.4156   -2.2096 H   0  0  0  0  0  0  0  0  0  0  0  0
   -0.2113    1.9848   -3.4192 S   0  0  0  0  0  0  0  0  0  0  0  0
   -0.9893    3.3930   -2.5319 C   0  0  0  0  0  0  0  0  0  0  0  0
   -0.4640    3.5920   -1.5932 H   0  0  0  0  0  0  0  0  0  0  0  0
   -0.9453    4.2944   -3.1503 H   0  0  0  0  0  0  0  0  0  0  0  0
   -2.0376    3.1709   -2.3122 H   0  0  0  0  0  0  0  0  0  0  0  0
    0.7146   -0.2041    1.3093 C   0  0  0  0  0  0  0  0  0  0  0  0
    1.9184   -0.1378    1.5186 O   0  0  0  0  0  0  0  0  0  0  0  0
   -0.1594    0.2936    2.2592 N   0  0  0  0  0  0  0  0  0  0  0  0
   -1.1452    0.1283    2.0870 H   0  0  0  0  0  0  0  0  0  0  0  0
    0.2653    0.6528    3.6064 C   0  0  0  0  0  0  0  0  0  0  0  0
    1.0299    1.4361    3.5717 H   0  0  0  0  0  0  0  0  0  0  0  0
   -0.5849    1.0280    4.1838 H   0  0  0  0  0  0  0  0  0  0  0  0
    0.6789   -0.2201    4.1224 H   0  0  0  0  0  0  0  0  0  0  0  0
  1  2  1  0  0  0  0
  2  3  1  0  0  0  0
  2  4  1  0  0  0  0
  2  5  1  0  0  0  0
  5  6  2  0  0  0  0
  5  7  1  0  0  0  0
  7  8  1  0  0  0  0
  7  9  1  0  0  0  0
  9 10  1  0  0  0  0
  9 11  1  0  0  0  0
  9 22  1  0  0  0  0
 11 12  1  0  0  0  0
 11 13  1  0  0  0  0
 11 14  1  0  0  0  0
 14 15  1  0  0  0  0
 14 16  1  0  0  0  0
 14 17  1  0  0  0  0
 17 18  1  0  0  0  0
 18 19  1  0  0  0  0
 18 20  1  0  0  0  0
 18 21  1  0  0  0  0
 22 23  2  0  0  0  0
 22 24  1  0  0  0  0
 24 25  1  0  0  0  0
 24 26  1  0  0  0  0
 26 27  1  0  0  0  0
 26 28  1  0  0  0  0
 26 29  1  0  0  0  0
M  END
$$$$

  -OEChem-04042216023D

 29 28  0     1  0  0  0  0  0999 V2000
   -2.5862   -4.1963    0.7078 H   0  0  0  0  0  0  0  0  0  0  0  0
   -2.5990   -3.2325    0.1908 C   0  0  0  0  0  0  0  0  0  0  0  0
   -3.4311   -2.6384    0.5760 H   0  0  0  0  0  0  0  0  0  0  0  0
   -2.7473   -3.4099   -0.8771 H   0  0  0  0  0  0  0  0  0  0  0  0
   -1.2893   -2.5016    0.4174 C   0  0  0  0  0  0  0  0  0  0  0  0
   -0.4209   -3.0080    1.1032 O   0  0  0  0  0  0  0  0  0  0  0  0
   -1.0909   -1.2603   -0.1540 N   0  0  0  0  0  0  0  0  0  0  0  0
   -1.8223   -0.9236   -0.7715 H   0  0  0  0  0  0  0  0  0  0  0  0
    0.1904   -0.5252   -0.1189 C   0  0  1  0  0  0  0  0  0  0  0  0
    0.9480   -1.1681   -0.5821 H   0  0  0  0  0  0  0  0  0  0  0  0
    0.0958    0.7658   -0.9541 C   0  0  0  0  0  0  0  0  0  0  0  0
   -0.4558    1.5320   -0.3997 H   0  0  0  0  0  0  0  0  0  0  0  0
    1.1143    1.1400   -1.1063 H   0  0  0  0  0  0  0  0  0  0  0  0
   -0.5768    0.5567   -2.3193 C   0  0  0  0  0  0  0  0  0  0  0  0
   -0.3683   -0.4550   -2.6839 H   0  0  0  0  0  0  0  0  0  0  0  0
   -1.6616    0.6690   -2.2296 H   0  0  0  0  0  0  0  0  0  0  0  0
    0.0776    1.7420   -3.5619 S   0  0  0  0  0  0  0  0  0  0  0  0
   -0.3254    3.3799   -2.8332 C   0  0  0  0  0  0  0  0  0  0  0  0
    0.2111    3.5231   -1.8907 H   0  0  0  0  0  0  0  0  0  0  0  0
   -0.0332    4.1774   -3.5231 H   0  0  0  0  0  0  0  0  0  0  0  0
   -1.3999    3.4576   -2.6440 H   0  0  0  0  0  0  0  0  0  0  0  0
    0.7153   -0.1916    1.2959 C   0  0  0  0  0  0  0  0  0  0  0  0
    1.9209   -0.1249    1.4945 O   0  0  0  0  0  0  0  0  0  0  0  0
   -0.1504    0.3093    2.2519 N   0  0  0  0  0  0  0  0  0  0  0  0
   -1.1375    0.1424    2.0886 H   0  0  0  0  0  0  0  0  0  0  0  0
    0.2847    0.6727    3.5947 C   0  0  0  0  0  0  0  0  0  0  0  0
    1.0497    1.4553    3.5522 H   0  0  0  0  0  0  0  0  0  0  0  0
   -0.5610    1.0507    4.1769 H   0  0  0  0  0  0  0  0  0  0  0  0
    0.7011   -0.1990    4.1105 H   0  0  0  0  0  0  0  0  0  0  0  0
  1  2  1  0  0  0  0
  2  3  1  0  0  0  0
  2  4  1  0  0  0  0
  2  5  1  0  0  0  0
  5  6  2  0  0  0  0
  5  7  1  0  0  0  0
  7  8  1  0  0  0  0
  7  9  1  0  0  0  0
  9 10  1  0  0  0  0
  9 11  1  0  0  0  0
  9 22  1  0  0  0  0
 11 12  1  0  0  0  0
 11 13  1  0  0  0  0
 11 14  1  0  0  0  0
 14 15  1  0  0  0  0
 14 16  1  0  0  0  0
 14 17  1  0  0  0  0
 17 18  1  0  0  0  0
 18 19  1  0  0  0  0
 18 20  1  0  0  0  0
 18 21  1  0  0  0  0
 22 23  2  0  0  0  0
 22 24  1  0  0  0  0
 24 25  1  0  0  0  0
 24 26  1  0  0  0  0
 26 27  1  0  0  0  0
 26 28  1  0  0  0  0
 26 29  1  0  0  0  0
M  END
$$$$

  -OEChem-04042216023D

 29 28  0     1  0  0  0  0  0999 V2000
   -2.6002   -4.1866    0.7011 H   0  0  0  0  0  0  0  0  0  0  0  0
   -2.6161   -3.2163    0.1962 C   0  0  0  0  0  0  0  0  0  0  0  0
   -3.4460   -2.6272    0.5937 H   0  0  0  0  0  0  0  0  0  0  0  0
   -2.7714   -3.3805   -0.8729 H   0  0  0  0  0  0  0  0  0  0  0  0
   -1.3044   -2.4891    0.4248 C   0  0  0  0  0  0  0  0  0  0  0  0
   -0.4420   -2.9965    1.1175 O   0  0  0  0  0  0  0  0  0  0  0  0
   -1.0977   -1.2501   -0.1492 N   0  0  0  0  0  0  0  0  0  0  0  0
   -1.8217   -0.9166   -0.7774 H   0  0  0  0  0  0  0  0  0  0  0  0
    0.1916   -0.5275   -0.1199 C   0  0  1  0  0  0  0  0  0  0  0  0
    0.9407   -1.1784   -0.5860 H   0  0  0  0  0  0  0  0  0  0  0  0
    0.1111    0.7668   -0.9529 C   0  0  0  0  0  0  0  0  0  0  0  0
   -0.4285    1.5377   -0.3934 H   0  0  0  0  0  0  0  0  0  0  0  0
    1.1352    1.1283   -1.0972 H   0  0  0  0  0  0  0  0  0  0  0  0
   -0.5668    0.5848   -2.3224 C   0  0  0  0  0  0  0  0  0  0  0  0
   -0.6082   -0.4768   -2.5866 H   0  0  0  0  0  0  0  0  0  0  0  0
   -1.5923    0.9662   -2.2902 H   0  0  0  0  0  0  0  0  0  0  0  0
    0.3830    1.4338   -3.6467 S   0  0  0  0  0  0  0  0  0  0  0  0
    0.2771    3.2006   -3.1530 C   0  0  0  0  0  0  0  0  0  0  0  0
    0.7608    3.3585   -2.1846 H   0  0  0  0  0  0  0  0  0  0  0  0
    0.7780    3.8267   -3.8976 H   0  0  0  0  0  0  0  0  0  0  0  0
   -0.7688    3.5126   -3.0802 H   0  0  0  0  0  0  0  0  0  0  0  0
    0.7240   -0.1988    1.2932 C   0  0  0  0  0  0  0  0  0  0  0  0
    1.9308   -0.1430    1.4882 O   0  0  0  0  0  0  0  0  0  0  0  0
   -0.1339    0.3109    2.2514 N   0  0  0  0  0  0  0  0  0  0  0  0
   -1.1231    0.1541    2.0905 H   0  0  0  0  0  0  0  0  0  0  0  0
    0.3090    0.6634    3.5945 C   0  0  0  0  0  0  0  0  0  0  0  0
    1.0825    1.4375    3.5528 H   0  0  0  0  0  0  0  0  0  0  0  0
   -0.5305    1.0480    4.1813 H   0  0  0  0  0  0  0  0  0  0  0  0
    0.7174   -0.2150    4.1054 H   0  0  0  0  0  0  0  0  0  0  0  0
  1  2  1  0  0  0  0
  2  3  1  0  0  0  0
  2  4  1  0  0  0  0
  2  5  1  0  0  0  0
  5  6  2  0  0  0  0
  5  7  1  0  0  0  0
  7  8  1  0  0  0  0
  7  9  1  0  0  0  0
  9 10  1  0  0  0  0
  9 11  1  0  0  0  0
  9 22  1  0  0  0  0
 11 12  1  0  0  0  0
 11 13  1  0  0  0  0
 11 14  1  0  0  0  0
 14 15  1  0  0  0  0
 14 16  1  0  0  0  0
 14 17  1  0  0  0  0
 17 18  1  0  0  0  0
 18 19  1  0  0  0  0
 18 20  1  0  0  0  0
 18 21  1  0  0  0  0
 22 23  2  0  0  0  0
 22 24  1  0  0  0  0
 24 25  1  0  0  0  0
 24 26  1  0  0  0  0
 26 27  1  0  0  0  0
 26 28  1  0  0  0  0
 26 29  1  0  0  0  0
M  END
$$$$

  -OEChem-04042216023D

 29 28  0     1  0  0  0  0  0999 V2000
   -2.6176   -4.1795    0.7125 H   0  0  0  0  0  0  0  0  0  0  0  0
   -2.6318   -3.2079    0.2102 C   0  0  0  0  0  0  0  0  0  0  0  0
   -3.4559   -2.6155    0.6140 H   0  0  0  0  0  0  0  0  0  0  0  0
   -2.7948   -3.3688   -0.8581 H   0  0  0  0  0  0  0  0  0  0  0  0
   -1.3154   -2.4872    0.4325 C   0  0  0  0  0  0  0  0  0  0  0  0
   -0.4532   -2.9990    1.1223 O   0  0  0  0  0  0  0  0  0  0  0  0
   -1.1057   -1.2481   -0.1408 N   0  0  0  0  0  0  0  0  0  0  0  0
   -1.8324   -0.9079   -0.7621 H   0  0  0  0  0  0  0  0  0  0  0  0
    0.1877   -0.5328   -0.1177 C   0  0  1  0  0  0  0  0  0  0  0  0
    0.9290   -1.1905   -0.5865 H   0  0  0  0  0  0  0  0  0  0  0  0
    0.1284    0.7645   -0.9500 C   0  0  0  0  0  0  0  0  0  0  0  0
   -0.4174    1.5261   -0.3837 H   0  0  0  0  0  0  0  0  0  0  0  0
    1.1529    1.1313   -1.0744 H   0  0  0  0  0  0  0  0  0  0  0  0
   -0.5458    0.6170   -2.3288 C   0  0  0  0  0  0  0  0  0  0  0  0
   -0.8724   -0.4122   -2.5015 H   0  0  0  0  0  0  0  0  0  0  0  0
   -1.4289    1.2615   -2.3817 H   0  0  0  0  0  0  0  0  0  0  0  0
    0.6180    1.0586   -3.6810 S   0  0  0  0  0  0  0  0  0  0  0  0
    0.8424    2.8679   -3.4493 C   0  0  0  0  0  0  0  0  0  0  0  0
    1.2858    3.0785   -2.4719 H   0  0  0  0  0  0  0  0  0  0  0  0
    1.5055    3.2643   -4.2239 H   0  0  0  0  0  0  0  0  0  0  0  0
   -0.1209    3.3816   -3.5179 H   0  0  0  0  0  0  0  0  0  0  0  0
    0.7276   -0.2110    1.2943 C   0  0  0  0  0  0  0  0  0  0  0  0
    1.9353   -0.1621    1.4850 O   0  0  0  0  0  0  0  0  0  0  0  0
   -0.1237    0.3008    2.2574 N   0  0  0  0  0  0  0  0  0  0  0  0
   -1.1139    0.1459    2.1011 H   0  0  0  0  0  0  0  0  0  0  0  0
    0.3265    0.6432    3.6010 C   0  0  0  0  0  0  0  0  0  0  0  0
    1.1059    1.4116    3.5615 H   0  0  0  0  0  0  0  0  0  0  0  0
   -0.5081    1.0311    4.1925 H   0  0  0  0  0  0  0  0  0  0  0  0
    0.7296   -0.2413    4.1054 H   0  0  0  0  0  0  0  0  0  0  0  0
  1  2  1  0  0  0  0
  2  3  1  0  0  0  0
  2  4  1  0  0  0  0
  2  5  1  0  0  0  0
  5  6  2  0  0  0  0
  5  7  1  0  0  0  0
  7  8  1  0  0  0  0
  7  9  1  0  0  0  0
  9 10  1  0  0  0  0
  9 11  1  0  0  0  0
  9 22  1  0  0  0  0
 11 12  1  0  0  0  0
 11 13  1  0  0  0  0
 11 14  1  0  0  0  0
 14 15  1  0  0  0  0
 14 16  1  0  0  0  0
 14 17  1  0  0  0  0
 17 18  1  0  0  0  0
 18 19  1  0  0  0  0
 18 20  1  0  0  0  0
 18 21  1  0  0  0  0
 22 23  2  0  0  0  0
 22 24  1  0  0  0  0
 24 25  1  0  0  0  0
 24 26  1  0  0  0  0
 26 27  1  0  0  0  0
 26 28  1  0  0  0  0
 26 29  1  0  0  0  0
M  END
$$$$

  -OEChem-04042216023D

 29 28  0     1  0  0  0  0  0999 V2000
   -2.6385   -4.1694    0.7155 H   0  0  0  0  0  0  0  0  0  0  0  0
   -2.6451   -3.1988    0.2111 C   0  0  0  0  0  0  0  0  0  0  0  0
   -3.4687   -2.6017    0.6094 H   0  0  0  0  0  0  0  0  0  0  0  0
   -2.8028   -3.3607   -0.8579 H   0  0  0  0  0  0  0  0  0  0  0  0
   -1.3260   -2.4847    0.4385 C   0  0  0  0  0  0  0  0  0  0  0  0
   -0.4683   -3.0008    1.1309 O   0  0  0  0  0  0  0  0  0  0  0  0
   -1.1115   -1.2449   -0.1311 N   0  0  0  0  0  0  0  0  0  0  0  0
   -1.8360   -0.9033   -0.7537 H   0  0  0  0  0  0  0  0  0  0  0  0
    0.1856   -0.5364   -0.1109 C   0  0  1  0  0  0  0  0  0  0  0  0
    0.9212   -1.1990   -0.5820 H   0  0  0  0  0  0  0  0  0  0  0  0
    0.1458    0.7655   -0.9395 C   0  0  0  0  0  0  0  0  0  0  0  0
   -0.4114    1.5134   -0.3661 H   0  0  0  0  0  0  0  0  0  0  0  0
    1.1673    1.1444   -1.0477 H   0  0  0  0  0  0  0  0  0  0  0  0
   -0.5242    0.6460   -2.3232 C   0  0  0  0  0  0  0  0  0  0  0  0
   -1.1270   -0.2605   -2.4099 H   0  0  0  0  0  0  0  0  0  0  0  0
   -1.1925    1.4995   -2.4767 H   0  0  0  0  0  0  0  0  0  0  0  0
    0.7348    0.6382   -3.6620 S   0  0  0  0  0  0  0  0  0  0  0  0
    1.3278    2.3776   -3.6895 C   0  0  0  0  0  0  0  0  0  0  0  0
    1.7968    2.6415   -2.7374 H   0  0  0  0  0  0  0  0  0  0  0  0
    2.0659    2.5069   -4.4867 H   0  0  0  0  0  0  0  0  0  0  0  0
    0.4930    3.0602   -3.8722 H   0  0  0  0  0  0  0  0  0  0  0  0
    0.7292   -0.2242    1.3019 C   0  0  0  0  0  0  0  0  0  0  0  0
    1.9375   -0.1736    1.4897 O   0  0  0  0  0  0  0  0  0  0  0  0
   -0.1192    0.2869    2.2678 N   0  0  0  0  0  0  0  0  0  0  0  0
   -1.1095    0.1293    2.1142 H   0  0  0  0  0  0  0  0  0  0  0  0
    0.3343    0.6234    3.6115 C   0  0  0  0  0  0  0  0  0  0  0  0
    1.1157    1.3896    3.5720 H   0  0  0  0  0  0  0  0  0  0  0  0
   -0.4980    1.0120    4.2060 H   0  0  0  0  0  0  0  0  0  0  0  0
    0.7360   -0.2636    4.1125 H   0  0  0  0  0  0  0  0  0  0  0  0
  1  2  1  0  0  0  0
  2  3  1  0  0  0  0
  2  4  1  0  0  0  0
  2  5  1  0  0  0  0
  5  6  2  0  0  0  0
  5  7  1  0  0  0  0
  7  8  1  0  0  0  0
  7  9  1  0  0  0  0
  9 10  1  0  0  0  0
  9 11  1  0  0  0  0
  9 22  1  0  0  0  0
 11 12  1  0  0  0  0
 11 13  1  0  0  0  0
 11 14  1  0  0  0  0
 14 15  1  0  0  0  0
 14 16  1  0  0  0  0
 14 17  1  0  0  0  0
 17 18  1  0  0  0  0
 18 19  1  0  0  0  0
 18 20  1  0  0  0  0
 18 21  1  0  0  0  0
 22 23  2  0  0  0  0
 22 24  1  0  0  0  0
 24 25  1  0  0  0  0
 24 26  1  0  0  0  0
 26 27  1  0  0  0  0
 26 28  1  0  0  0  0
 26 29  1  0  0  0  0
M  END
$$$$

  -OEChem-04042216023D

 29 28  0     1  0  0  0  0  0999 V2000
   -2.6418   -4.1683    0.6856 H   0  0  0  0  0  0  0  0  0  0  0  0
   -2.6464   -3.1963    0.1839 C   0  0  0  0  0  0  0  0  0  0  0  0
   -3.4847   -2.6081    0.5646 H   0  0  0  0  0  0  0  0  0  0  0  0
   -2.7775   -3.3572   -0.8889 H   0  0  0  0  0  0  0  0  0  0  0  0
   -1.3404   -2.4695    0.4437 C   0  0  0  0  0  0  0  0  0  0  0  0
   -0.4964   -2.9768    1.1592 O   0  0  0  0  0  0  0  0  0  0  0  0
   -1.1234   -1.2289   -0.1234 N   0  0  0  0  0  0  0  0  0  0  0  0
   -1.8253   -0.9124   -0.7836 H   0  0  0  0  0  0  0  0  0  0  0  0
    0.1781   -0.5292   -0.1036 C   0  0  1  0  0  0  0  0  0  0  0  0
    0.9071   -1.1969   -0.5773 H   0  0  0  0  0  0  0  0  0  0  0  0
    0.1530    0.7771   -0.9265 C   0  0  0  0  0  0  0  0  0  0  0  0
   -0.4037    1.5228   -0.3497 H   0  0  0  0  0  0  0  0  0  0  0  0
    1.1748    1.1542   -1.0320 H   0  0  0  0  0  0  0  0  0  0  0  0
   -0.5174    0.6705   -2.3087 C   0  0  0  0  0  0  0  0  0  0  0  0
   -1.3424   -0.0442   -2.3141 H   0  0  0  0  0  0  0  0  0  0  0  0
   -0.9371    1.6462   -2.5739 H   0  0  0  0  0  0  0  0  0  0  0  0
    0.7073    0.2066   -3.5979 S   0  0  0  0  0  0  0  0  0  0  0  0
    1.6928    1.7411   -3.8249 C   0  0  0  0  0  0  0  0  0  0  0  0
    2.2257    1.9983   -2.9052 H   0  0  0  0  0  0  0  0  0  0  0  0
    2.4283    1.5963   -4.6219 H   0  0  0  0  0  0  0  0  0  0  0  0
    1.0395    2.5743   -4.0994 H   0  0  0  0  0  0  0  0  0  0  0  0
    0.7282   -0.2250    1.3090 C   0  0  0  0  0  0  0  0  0  0  0  0
    1.9377   -0.1768    1.4907 O   0  0  0  0  0  0  0  0  0  0  0  0
   -0.1135    0.2886    2.2798 N   0  0  0  0  0  0  0  0  0  0  0  0
   -1.1049    0.1333    2.1306 H   0  0  0  0  0  0  0  0  0  0  0  0
    0.3469    0.6172    3.6233 C   0  0  0  0  0  0  0  0  0  0  0  0
    1.1344    1.3774    3.5842 H   0  0  0  0  0  0  0  0  0  0  0  0
   -0.4806    1.0105    4.2216 H   0  0  0  0  0  0  0  0  0  0  0  0
    0.7429   -0.2747    4.1204 H   0  0  0  0  0  0  0  0  0  0  0  0
  1  2  1  0  0  0  0
  2  3  1  0  0  0  0
  2  4  1  0  0  0  0
  2  5  1  0  0  0  0
  5  6  2  0  0  0  0
  5  7  1  0  0  0  0
  7  8  1  0  0  0  0
  7  9  1  0  0  0  0
  9 10  1  0  0  0  0
  9 11  1  0  0  0  0
  9 22  1  0  0  0  0
 11 12  1  0  0  0  0
 11 13  1  0  0  0  0
 11 14  1  0  0  0  0
 14 15  1  0  0  0  0
 14 16  1  0  0  0  0
 14 17  1  0  0  0  0
 17 18  1  0  0  0  0
 18 19  1  0  0  0  0
 18 20  1  0  0  0  0
 18 21  1  0  0  0  0
 22 23  2  0  0  0  0
 22 24  1  0  0  0  0
 24 25  1  0  0  0  0
 24 26  1  0  0  0  0
 26 27  1  0  0  0  0
 26 28  1  0  0  0  0
 26 29  1  0  0  0  0
M  END
$$$$

  -OEChem-04042216023D

 29 28  0     1  0  0  0  0  0999 V2000
   -2.6334   -4.1463    0.6945 H   0  0  0  0  0  0  0  0  0  0  0  0
   -2.6224   -3.2008    0.1445 C   0  0  0  0  0  0  0  0  0  0  0  0
   -3.4832   -2.6039    0.4546 H   0  0  0  0  0  0  0  0  0  0  0  0
   -2.7006   -3.4157   -0.9240 H   0  0  0  0  0  0  0  0  0  0  0  0
   -1.3364   -2.4476    0.4287 C   0  0  0  0  0  0  0  0  0  0  0  0
   -0.4996   -2.9362    1.1655 O   0  0  0  0  0  0  0  0  0  0  0  0
   -1.1332   -1.2033   -0.1358 N   0  0  0  0  0  0  0  0  0  0  0  0
   -1.8121   -0.9253   -0.8362 H   0  0  0  0  0  0  0  0  0  0  0  0
    0.1673   -0.5016   -0.1247 C   0  0  1  0  0  0  0  0  0  0  0  0
    0.8925   -1.1629   -0.6130 H   0  0  0  0  0  0  0  0  0  0  0  0
    0.1225    0.8132   -0.9323 C   0  0  0  0  0  0  0  0  0  0  0  0
   -0.4261    1.5548   -0.3425 H   0  0  0  0  0  0  0  0  0  0  0  0
    1.1402    1.1949   -1.0548 H   0  0  0  0  0  0  0  0  0  0  0  0
   -0.5706    0.7082   -2.3007 C   0  0  0  0  0  0  0  0  0  0  0  0
   -1.5368    0.2042   -2.2248 H   0  0  0  0  0  0  0  0  0  0  0  0
   -0.7673    1.7193   -2.6718 H   0  0  0  0  0  0  0  0  0  0  0  0
    0.4905   -0.1551   -3.5294 S   0  0  0  0  0  0  0  0  0  0  0  0
    1.9249    0.9714   -3.7609 C   0  0  0  0  0  0  0  0  0  0  0  0
    2.5299    1.0195   -2.8512 H   0  0  0  0  0  0  0  0  0  0  0  0
    2.5581    0.6055   -4.5746 H   0  0  0  0  0  0  0  0  0  0  0  0
    1.5810    1.9791   -4.0118 H   0  0  0  0  0  0  0  0  0  0  0  0
    0.7344   -0.2025    1.2816 C   0  0  0  0  0  0  0  0  0  0  0  0
    1.9464   -0.1513    1.4464 O   0  0  0  0  0  0  0  0  0  0  0  0
   -0.0964    0.3056    2.2641 N   0  0  0  0  0  0  0  0  0  0  0  0
   -1.0881    0.1400    2.1278 H   0  0  0  0  0  0  0  0  0  0  0  0
    0.3789    0.6238    3.6047 C   0  0  0  0  0  0  0  0  0  0  0  0
    1.1648    1.3855    3.5632 H   0  0  0  0  0  0  0  0  0  0  0  0
   -0.4424    1.0109    4.2153 H   0  0  0  0  0  0  0  0  0  0  0  0
    0.7816   -0.2717    4.0898 H   0  0  0  0  0  0  0  0  0  0  0  0
  1  2  1  0  0  0  0
  2  3  1  0  0  0  0
  2  4  1  0  0  0  0
  2  5  1  0  0  0  0
  5  6  2  0  0  0  0
  5  7  1  0  0  0  0
  7  8  1  0  0  0  0
  7  9  1  0  0  0  0
  9 10  1  0  0  0  0
  9 11  1  0  0  0  0
  9 22  1  0  0  0  0
 11 12  1  0  0  0  0
 11 13  1  0  0  0  0
 11 14  1  0  0  0  0
 14 15  1  0  0  0  0
 14 16  1  0  0  0  0
 14 17  1  0  0  0  0
 17 18  1  0  0  0  0
 18 19  1  0  0  0  0
 18 20  1  0  0  0  0
 18 21  1  0  0  0  0
 22 23  2  0  0  0  0
 22 24  1  0  0  0  0
 24 25  1  0  0  0  0
 24 26  1  0  0  0  0
 26 27  1  0  0  0  0
 26 28  1  0  0  0  0
 26 29  1  0  0  0  0
M  END
$$$$

  -OEChem-04042216023D

 29 28  0     1  0  0  0  0  0999 V2000
   -2.6042   -4.1389    0.6168 H   0  0  0  0  0  0  0  0  0  0  0  0
   -2.5862   -3.1946    0.0651 C   0  0  0  0  0  0  0  0  0  0  0  0
   -3.4687   -2.6113    0.3382 H   0  0  0  0  0  0  0  0  0  0  0  0
   -2.6175   -3.4129   -1.0052 H   0  0  0  0  0  0  0  0  0  0  0  0
   -1.3262   -2.4187    0.3992 C   0  0  0  0  0  0  0  0  0  0  0  0
   -0.5084   -2.8928    1.1666 O   0  0  0  0  0  0  0  0  0  0  0  0
   -1.1271   -1.1712   -0.1588 N   0  0  0  0  0  0  0  0  0  0  0  0
   -1.7696   -0.9315   -0.9067 H   0  0  0  0  0  0  0  0  0  0  0  0
    0.1753   -0.4747   -0.1483 C   0  0  1  0  0  0  0  0  0  0  0  0
    0.8978   -1.1291   -0.6489 H   0  0  0  0  0  0  0  0  0  0  0  0
    0.1046    0.8503   -0.9369 C   0  0  0  0  0  0  0  0  0  0  0  0
   -0.4273    1.5912   -0.3312 H   0  0  0  0  0  0  0  0  0  0  0  0
    1.1200    1.2306   -1.0856 H   0  0  0  0  0  0  0  0  0  0  0  0
   -0.6133    0.7502   -2.2919 C   0  0  0  0  0  0  0  0  0  0  0  0
   -1.6610    0.4700   -2.1527 H   0  0  0  0  0  0  0  0  0  0  0  0
   -0.6061    1.7377   -2.7647 H   0  0  0  0  0  0  0  0  0  0  0  0
    0.1975   -0.4475   -3.4294 S   0  0  0  0  0  0  0  0  0  0  0  0
    1.9292    0.1550   -3.5579 C   0  0  0  0  0  0  0  0  0  0  0  0
    2.4488    0.0403   -2.6019 H   0  0  0  0  0  0  0  0  0  0  0  0
    2.4695   -0.4211   -4.3150 H   0  0  0  0  0  0  0  0  0  0  0  0
    1.9438    1.2106   -3.8450 H   0  0  0  0  0  0  0  0  0  0  0  0
    0.7549   -0.1852    1.2547 C   0  0  0  0  0  0  0  0  0  0  0  0
    1.9691   -0.1368    1.4053 O   0  0  0  0  0  0  0  0  0  0  0  0
   -0.0651    0.3205    2.2474 N   0  0  0  0  0  0  0  0  0  0  0  0
   -1.0580    0.1518    2.1213 H   0  0  0  0  0  0  0  0  0  0  0  0
    0.4241    0.6296    3.5850 C   0  0  0  0  0  0  0  0  0  0  0  0
    1.2140    1.3868    3.5394 H   0  0  0  0  0  0  0  0  0  0  0  0
   -0.3892    1.0188    4.2049 H   0  0  0  0  0  0  0  0  0  0  0  0
    0.8260   -0.2704    4.0624 H   0  0  0  0  0  0  0  0  0  0  0  0
  1  2  1  0  0  0  0
  2  3  1  0  0  0  0
  2  4  1  0  0  0  0
  2  5  1  0  0  0  0
  5  6  2  0  0  0  0
  5  7  1  0  0  0  0
  7  8  1  0  0  0  0
  7  9  1  0  0  0  0
  9 10  1  0  0  0  0
  9 11  1  0  0  0  0
  9 22  1  0  0  0  0
 11 12  1  0  0  0  0
 11 13  1  0  0  0  0
 11 14  1  0  0  0  0
 14 15  1  0  0  0  0
 14 16  1  0  0  0  0
 14 17  1  0  0  0  0
 17 18  1  0  0  0  0
 18 19  1  0  0  0  0
 18 20  1  0  0  0  0
 18 21  1  0  0  0  0
 22 23  2  0  0  0  0
 22 24  1  0  0  0  0
 24 25  1  0  0  0  0
 24 26  1  0  0  0  0
 26 27  1  0  0  0  0
 26 28  1  0  0  0  0
 26 29  1  0  0  0  0
M  END
$$$$

  -OEChem-04042216023D

 29 28  0     1  0  0  0  0  0999 V2000
   -2.6130   -4.1504    0.5429 H   0  0  0  0  0  0  0  0  0  0  0  0
   -2.5970   -3.1817    0.0355 C   0  0  0  0  0  0  0  0  0  0  0  0
   -3.4883   -2.6189    0.3230 H   0  0  0  0  0  0  0  0  0  0  0  0
   -2.6124   -3.3512   -1.0439 H   0  0  0  0  0  0  0  0  0  0  0  0
   -1.3490   -2.4106    0.4220 C   0  0  0  0  0  0  0  0  0  0  0  0
   -0.5755   -2.8792    1.2377 O   0  0  0  0  0  0  0  0  0  0  0  0
   -1.1104   -1.1746   -0.1457 N   0  0  0  0  0  0  0  0  0  0  0  0
   -1.7007   -0.9578   -0.9434 H   0  0  0  0  0  0  0  0  0  0  0  0
    0.2068   -0.5083   -0.1090 C   0  0  1  0  0  0  0  0  0  0  0  0
    0.9289   -1.1799   -0.5859 H   0  0  0  0  0  0  0  0  0  0  0  0
    0.1608    0.8128   -0.9072 C   0  0  0  0  0  0  0  0  0  0  0  0
   -0.3494    1.5773   -0.3115 H   0  0  0  0  0  0  0  0  0  0  0  0
    1.1901    1.1554   -1.0566 H   0  0  0  0  0  0  0  0  0  0  0  0
   -0.5375    0.7302   -2.2760 C   0  0  0  0  0  0  0  0  0  0  0  0
   -1.6213    0.7021   -2.1277 H   0  0  0  0  0  0  0  0  0  0  0  0
   -0.3129    1.6368   -2.8476 H   0  0  0  0  0  0  0  0  0  0  0  0
   -0.0417   -0.7444   -3.2606 S   0  0  0  0  0  0  0  0  0  0  0  0
    1.7622   -0.4914   -3.5062 C   0  0  0  0  0  0  0  0  0  0  0  0
    2.2870   -0.4956   -2.5465 H   0  0  0  0  0  0  0  0  0  0  0  0
    2.1706   -1.2941   -4.1273 H   0  0  0  0  0  0  0  0  0  0  0  0
    1.9473    0.4646   -4.0045 H   0  0  0  0  0  0  0  0  0  0  0  0
    0.7608   -0.2139    1.3032 C   0  0  0  0  0  0  0  0  0  0  0  0
    1.9722   -0.1933    1.4812 O   0  0  0  0  0  0  0  0  0  0  0  0
   -0.0701    0.3235    2.2698 N   0  0  0  0  0  0  0  0  0  0  0  0
   -1.0630    0.1709    2.1237 H   0  0  0  0  0  0  0  0  0  0  0  0
    0.3946    0.6423    3.6140 C   0  0  0  0  0  0  0  0  0  0  0  0
    1.2103    1.3720    3.5758 H   0  0  0  0  0  0  0  0  0  0  0  0
   -0.4211    1.0703    4.2043 H   0  0  0  0  0  0  0  0  0  0  0  0
    0.7535   -0.2610    4.1185 H   0  0  0  0  0  0  0  0  0  0  0  0
  1  2  1  0  0  0  0
  2  3  1  0  0  0  0
  2  4  1  0  0  0  0
  2  5  1  0  0  0  0
  5  6  2  0  0  0  0
  5  7  1  0  0  0  0
  7  8  1  0  0  0  0
  7  9  1  0  0  0  0
  9 10  1  0  0  0  0
  9 11  1  0  0  0  0
  9 22  1  0  0  0  0
 11 12  1  0  0  0  0
 11 13  1  0  0  0  0
 11 14  1  0  0  0  0
 14 15  1  0  0  0  0
 14 16  1  0  0  0  0
 14 17  1  0  0  0  0
 17 18  1  0  0  0  0
 18 19  1  0  0  0  0
 18 20  1  0  0  0  0
 18 21  1  0  0  0  0
 22 23  2  0  0  0  0
 22 24  1  0  0  0  0
 24 25  1  0  0  0  0
 24 26  1  0  0  0  0
 26 27  1  0  0  0  0
 26 28  1  0  0  0  0
 26 29  1  0  0  0  0
M  END
$$$$

  -OEChem-04042216023D

 29 28  0     1  0  0  0  0  0999 V2000
   -2.6375   -4.1546    0.5722 H   0  0  0  0  0  0  0  0  0  0  0  0
   -2.6089   -3.1858    0.0651 C   0  0  0  0  0  0  0  0  0  0  0  0
   -3.5051   -2.6212    0.3328 H   0  0  0  0  0  0  0  0  0  0  0  0
   -2.6009   -3.3550   -1.0146 H   0  0  0  0  0  0  0  0  0  0  0  0
   -1.3681   -2.4173    0.4782 C   0  0  0  0  0  0  0  0  0  0  0  0
   -0.6249   -2.8776    1.3263 O   0  0  0  0  0  0  0  0  0  0  0  0
   -1.0989   -1.1959   -0.1063 N   0  0  0  0  0  0  0  0  0  0  0  0
   -1.6547   -0.9967   -0.9341 H   0  0  0  0  0  0  0  0  0  0  0  0
    0.2253   -0.5460   -0.0484 C   0  0  1  0  0  0  0  0  0  0  0  0
    0.9492   -1.2375   -0.4920 H   0  0  0  0  0  0  0  0  0  0  0  0
    0.2195    0.7591   -0.8755 C   0  0  0  0  0  0  0  0  0  0  0  0
   -0.2819    1.5464   -0.3028 H   0  0  0  0  0  0  0  0  0  0  0  0
    1.2627    1.0690   -1.0013 H   0  0  0  0  0  0  0  0  0  0  0  0
   -0.4333    0.6996   -2.2724 C   0  0  0  0  0  0  0  0  0  0  0  0
   -1.4941    0.9469   -2.1651 H   0  0  0  0  0  0  0  0  0  0  0  0
    0.0136    1.4671   -2.9128 H   0  0  0  0  0  0  0  0  0  0  0  0
   -0.3265   -0.9370   -3.1124 S   0  0  0  0  0  0  0  0  0  0  0  0
    1.4682   -1.0599   -3.4883 C   0  0  0  0  0  0  0  0  0  0  0  0
    2.0594   -1.0163   -2.5691 H   0  0  0  0  0  0  0  0  0  0  0  0
    1.6812   -2.0066   -3.9935 H   0  0  0  0  0  0  0  0  0  0  0  0
    1.7754   -0.2385   -4.1423 H   0  0  0  0  0  0  0  0  0  0  0  0
    0.7464   -0.2314    1.3718 C   0  0  0  0  0  0  0  0  0  0  0  0
    1.9530   -0.2244    1.5807 O   0  0  0  0  0  0  0  0  0  0  0  0
   -0.1014    0.3350    2.3064 N   0  0  0  0  0  0  0  0  0  0  0  0
   -1.0925    0.1952    2.1366 H   0  0  0  0  0  0  0  0  0  0  0  0
    0.3335    0.6699    3.6565 C   0  0  0  0  0  0  0  0  0  0  0  0
    1.1571    1.3911    3.6273 H   0  0  0  0  0  0  0  0  0  0  0  0
   -0.4919    1.1146    4.2203 H   0  0  0  0  0  0  0  0  0  0  0  0
    0.6712   -0.2290    4.1829 H   0  0  0  0  0  0  0  0  0  0  0  0
  1  2  1  0  0  0  0
  2  3  1  0  0  0  0
  2  4  1  0  0  0  0
  2  5  1  0  0  0  0
  5  6  2  0  0  0  0
  5  7  1  0  0  0  0
  7  8  1  0  0  0  0
  7  9  1  0  0  0  0
  9 10  1  0  0  0  0
  9 11  1  0  0  0  0
  9 22  1  0  0  0  0
 11 12  1  0  0  0  0
 11 13  1  0  0  0  0
 11 14  1  0  0  0  0
 14 15  1  0  0  0  0
 14 16  1  0  0  0  0
 14 17  1  0  0  0  0
 17 18  1  0  0  0  0
 18 19  1  0  0  0  0
 18 20  1  0  0  0  0
 18 21  1  0  0  0  0
 22 23  2  0  0  0  0
 22 24  1  0  0  0  0
 24 25  1  0  0  0  0
 24 26  1  0  0  0  0
 26 27  1  0  0  0  0
 26 28  1  0  0  0  0
 26 29  1  0  0  0  0
M  END
$$$$

  -OEChem-04042216023D

 29 28  0     1  0  0  0  0  0999 V2000
   -2.6536   -4.1612    0.6788 H   0  0  0  0  0  0  0  0  0  0  0  0
   -2.6126   -3.2035    0.1520 C   0  0  0  0  0  0  0  0  0  0  0  0
   -3.5042   -2.6244    0.4035 H   0  0  0  0  0  0  0  0  0  0  0  0
   -2.6016   -3.3952   -0.9239 H   0  0  0  0  0  0  0  0  0  0  0  0
   -1.3666   -2.4382    0.5555 C   0  0  0  0  0  0  0  0  0  0  0  0
   -0.6276   -2.8906    1.4115 O   0  0  0  0  0  0  0  0  0  0  0  0
   -1.0848   -1.2305   -0.0504 N   0  0  0  0  0  0  0  0  0  0  0  0
   -1.6388   -1.0350   -0.8815 H   0  0  0  0  0  0  0  0  0  0  0  0
    0.2357   -0.5755    0.0127 C   0  0  1  0  0  0  0  0  0  0  0  0
    0.9666   -1.2802   -0.3965 H   0  0  0  0  0  0  0  0  0  0  0  0
    0.2646    0.7060   -0.8529 C   0  0  0  0  0  0  0  0  0  0  0  0
   -0.2417    1.5083   -0.3053 H   0  0  0  0  0  0  0  0  0  0  0  0
    1.3152    1.0023   -0.9456 H   0  0  0  0  0  0  0  0  0  0  0  0
   -0.3362    0.6660   -2.2796 C   0  0  0  0  0  0  0  0  0  0  0  0
   -1.2968    1.1902   -2.2494 H   0  0  0  0  0  0  0  0  0  0  0  0
    0.3134    1.2328   -2.9546 H   0  0  0  0  0  0  0  0  0  0  0  0
   -0.6539   -0.9965   -3.0119 S   0  0  0  0  0  0  0  0  0  0  0  0
    1.0433   -1.5432   -3.4564 C   0  0  0  0  0  0  0  0  0  0  0  0
    1.6840   -1.5733   -2.5708 H   0  0  0  0  0  0  0  0  0  0  0  0
    1.0119   -2.5441   -3.8972 H   0  0  0  0  0  0  0  0  0  0  0  0
    1.4840   -0.8550   -4.1836 H   0  0  0  0  0  0  0  0  0  0  0  0
    0.7278   -0.2287    1.4356 C   0  0  0  0  0  0  0  0  0  0  0  0
    1.9297   -0.2161    1.6697 O   0  0  0  0  0  0  0  0  0  0  0  0
   -0.1403    0.3546    2.3404 N   0  0  0  0  0  0  0  0  0  0  0  0
   -1.1275    0.2145    2.1498 H   0  0  0  0  0  0  0  0  0  0  0  0
    0.2644    0.7164    3.6927 C   0  0  0  0  0  0  0  0  0  0  0  0
    1.0856    1.4405    3.6669 H   0  0  0  0  0  0  0  0  0  0  0  0
   -0.5745    1.1677    4.2307 H   0  0  0  0  0  0  0  0  0  0  0  0
    0.5946   -0.1710    4.2430 H   0  0  0  0  0  0  0  0  0  0  0  0
  1  2  1  0  0  0  0
  2  3  1  0  0  0  0
  2  4  1  0  0  0  0
  2  5  1  0  0  0  0
  5  6  2  0  0  0  0
  5  7  1  0  0  0  0
  7  8  1  0  0  0  0
  7  9  1  0  0  0  0
  9 10  1  0  0  0  0
  9 11  1  0  0  0  0
  9 22  1  0  0  0  0
 11 12  1  0  0  0  0
 11 13  1  0  0  0  0
 11 14  1  0  0  0  0
 14 15  1  0  0  0  0
 14 16  1  0  0  0  0
 14 17  1  0  0  0  0
 17 18  1  0  0  0  0
 18 19  1  0  0  0  0
 18 20  1  0  0  0  0
 18 21  1  0  0  0  0
 22 23  2  0  0  0  0
 22 24  1  0  0  0  0
 24 25  1  0  0  0  0
 24 26  1  0  0  0  0
 26 27  1  0  0  0  0
 26 28  1  0  0  0  0
 26 29  1  0  0  0  0
M  END
$$$$

  -OEChem-04042216023D

 29 28  0     1  0  0  0  0  0999 V2000
   -2.6296   -4.1857    0.7960 H   0  0  0  0  0  0  0  0  0  0  0  0
   -2.6062   -3.2255    0.2731 C   0  0  0  0  0  0  0  0  0  0  0  0
   -3.4851   -2.6446    0.5626 H   0  0  0  0  0  0  0  0  0  0  0  0
   -2.6386   -3.4111   -0.8034 H   0  0  0  0  0  0  0  0  0  0  0  0
   -1.3426   -2.4665    0.6308 C   0  0  0  0  0  0  0  0  0  0  0  0
   -0.5784   -2.9180    1.4648 O   0  0  0  0  0  0  0  0  0  0  0  0
   -1.0681   -1.2684    0.0033 N   0  0  0  0  0  0  0  0  0  0  0  0
   -1.6511   -1.0615   -0.8054 H   0  0  0  0  0  0  0  0  0  0  0  0
    0.2412   -0.5937    0.0555 C   0  0  1  0  0  0  0  0  0  0  0  0
    0.9819   -1.3028   -0.3277 H   0  0  0  0  0  0  0  0  0  0  0  0
    0.2884    0.6663   -0.8432 C   0  0  0  0  0  0  0  0  0  0  0  0
   -0.2474    1.4625   -0.3154 H   0  0  0  0  0  0  0  0  0  0  0  0
    1.3361    0.9818   -0.9030 H   0  0  0  0  0  0  0  0  0  0  0  0
   -0.2739    0.6365   -2.2904 C   0  0  0  0  0  0  0  0  0  0  0  0
   -1.0524    1.4035   -2.3565 H   0  0  0  0  0  0  0  0  0  0  0  0
    0.5247    0.9421   -2.9745 H   0  0  0  0  0  0  0  0  0  0  0  0
   -1.0020   -0.9316   -2.9347 S   0  0  0  0  0  0  0  0  0  0  0  0
    0.4927   -1.9123   -3.3612 C   0  0  0  0  0  0  0  0  0  0  0  0
    1.1104   -2.0814   -2.4751 H   0  0  0  0  0  0  0  0  0  0  0  0
    0.1991   -2.8838   -3.7702 H   0  0  0  0  0  0  0  0  0  0  0  0
    1.0914   -1.3851   -4.1101 H   0  0  0  0  0  0  0  0  0  0  0  0
    0.7165   -0.2128    1.4758 C   0  0  0  0  0  0  0  0  0  0  0  0
    1.9160   -0.1791    1.7196 O   0  0  0  0  0  0  0  0  0  0  0  0
   -0.1667    0.3745    2.3634 N   0  0  0  0  0  0  0  0  0  0  0  0
   -1.1512    0.2264    2.1647 H   0  0  0  0  0  0  0  0  0  0  0  0
    0.2225    0.7731    3.7102 C   0  0  0  0  0  0  0  0  0  0  0  0
    1.0369    1.5044    3.6740 H   0  0  0  0  0  0  0  0  0  0  0  0
   -0.6256    1.2291    4.2294 H   0  0  0  0  0  0  0  0  0  0  0  0
    0.5562   -0.0974    4.2849 H   0  0  0  0  0  0  0  0  0  0  0  0
  1  2  1  0  0  0  0
  2  3  1  0  0  0  0
  2  4  1  0  0  0  0
  2  5  1  0  0  0  0
  5  6  2  0  0  0  0
  5  7  1  0  0  0  0
  7  8  1  0  0  0  0
  7  9  1  0  0  0  0
  9 10  1  0  0  0  0
  9 11  1  0  0  0  0
  9 22  1  0  0  0  0
 11 12  1  0  0  0  0
 11 13  1  0  0  0  0
 11 14  1  0  0  0  0
 14 15  1  0  0  0  0
 14 16  1  0  0  0  0
 14 17  1  0  0  0  0
 17 18  1  0  0  0  0
 18 19  1  0  0  0  0
 18 20  1  0  0  0  0
 18 21  1  0  0  0  0
 22 23  2  0  0  0  0
 22 24  1  0  0  0  0
 24 25  1  0  0  0  0
 24 26  1  0  0  0  0
 26 27  1  0  0  0  0
 26 28  1  0  0  0  0
 26 29  1  0  0  0  0
M  END
$$$$

  -OEChem-04042216023D

 29 28  0     1  0  0  0  0  0999 V2000
   -2.6034   -4.1949    0.9230 H   0  0  0  0  0  0  0  0  0  0  0  0
   -2.5979   -3.2340    0.4003 C   0  0  0  0  0  0  0  0  0  0  0  0
   -3.4559   -2.6460    0.7349 H   0  0  0  0  0  0  0  0  0  0  0  0
   -2.6873   -3.4179   -0.6733 H   0  0  0  0  0  0  0  0  0  0  0  0
   -1.3107   -2.4869    0.6938 C   0  0  0  0  0  0  0  0  0  0  0  0
   -0.5080   -2.9464    1.4859 O   0  0  0  0  0  0  0  0  0  0  0  0
   -1.0535   -1.2937    0.0503 N   0  0  0  0  0  0  0  0  0  0  0  0
   -1.6861   -1.0586   -0.7122 H   0  0  0  0  0  0  0  0  0  0  0  0
    0.2441   -0.5970    0.0774 C   0  0  1  0  0  0  0  0  0  0  0  0
    0.9911   -1.3054   -0.2963 H   0  0  0  0  0  0  0  0  0  0  0  0
    0.2919    0.6456   -0.8478 C   0  0  0  0  0  0  0  0  0  0  0  0
   -0.2712    1.4324   -0.3346 H   0  0  0  0  0  0  0  0  0  0  0  0
    1.3318    0.9875   -0.8948 H   0  0  0  0  0  0  0  0  0  0  0  0
   -0.2580    0.6055   -2.3008 C   0  0  0  0  0  0  0  0  0  0  0  0
   -0.8003    1.5406   -2.4760 H   0  0  0  0  0  0  0  0  0  0  0  0
    0.6014    0.6118   -2.9791 H   0  0  0  0  0  0  0  0  0  0  0  0
   -1.3517   -0.7817   -2.8339 S   0  0  0  0  0  0  0  0  0  0  0  0
   -0.1446   -2.1185   -3.2009 C   0  0  0  0  0  0  0  0  0  0  0  0
    0.4229   -2.3839   -2.3048 H   0  0  0  0  0  0  0  0  0  0  0  0
   -0.6693   -3.0103   -3.5563 H   0  0  0  0  0  0  0  0  0  0  0  0
    0.5561   -1.7944   -3.9762 H   0  0  0  0  0  0  0  0  0  0  0  0
    0.7217   -0.1915    1.4901 C   0  0  0  0  0  0  0  0  0  0  0  0
    1.9212   -0.1426    1.7303 O   0  0  0  0  0  0  0  0  0  0  0  0
   -0.1658    0.3909    2.3766 N   0  0  0  0  0  0  0  0  0  0  0  0
   -1.1494    0.2360    2.1792 H   0  0  0  0  0  0  0  0  0  0  0  0
    0.2218    0.8042    3.7195 C   0  0  0  0  0  0  0  0  0  0  0  0
    1.0287    1.5434    3.6767 H   0  0  0  0  0  0  0  0  0  0  0  0
   -0.6299    1.2556    4.2372 H   0  0  0  0  0  0  0  0  0  0  0  0
    0.5654   -0.0584    4.3002 H   0  0  0  0  0  0  0  0  0  0  0  0
  1  2  1  0  0  0  0
  2  3  1  0  0  0  0
  2  4  1  0  0  0  0
  2  5  1  0  0  0  0
  5  6  2  0  0  0  0
  5  7  1  0  0  0  0
  7  8  1  0  0  0  0
  7  9  1  0  0  0  0
  9 10  1  0  0  0  0
  9 11  1  0  0  0  0
  9 22  1  0  0  0  0
 11 12  1  0  0  0  0
 11 13  1  0  0  0  0
 11 14  1  0  0  0  0
 14 15  1  0  0  0  0
 14 16  1  0  0  0  0
 14 17  1  0  0  0  0
 17 18  1  0  0  0  0
 18 19  1  0  0  0  0
 18 20  1  0  0  0  0
 18 21  1  0  0  0  0
 22 23  2  0  0  0  0
 22 24  1  0  0  0  0
 24 25  1  0  0  0  0
 24 26  1  0  0  0  0
 26 27  1  0  0  0  0
 26 28  1  0  0  0  0
 26 29  1  0  0  0  0
M  END
$$$$

  -OEChem-04042216023D

 29 28  0     1  0  0  0  0  0999 V2000
   -2.6201   -4.1771    1.0807 H   0  0  0  0  0  0  0  0  0  0  0  0
   -2.6143   -3.2244    0.5435 C   0  0  0  0  0  0  0  0  0  0  0  0
   -3.4475   -2.6139    0.8995 H   0  0  0  0  0  0  0  0  0  0  0  0
   -2.7456   -3.4212   -0.5233 H   0  0  0  0  0  0  0  0  0  0  0  0
   -1.3030   -2.4996    0.7797 C   0  0  0  0  0  0  0  0  0  0  0  0
   -0.4759   -2.9676    1.5411 O   0  0  0  0  0  0  0  0  0  0  0  0
   -1.0516   -1.3156    0.1182 N   0  0  0  0  0  0  0  0  0  0  0  0
   -1.7278   -1.0472   -0.5941 H   0  0  0  0  0  0  0  0  0  0  0  0
    0.2405   -0.6107    0.1207 C   0  0  1  0  0  0  0  0  0  0  0  0
    0.9840   -1.3263   -0.2474 H   0  0  0  0  0  0  0  0  0  0  0  0
    0.2906    0.6138   -0.8299 C   0  0  0  0  0  0  0  0  0  0  0  0
   -0.2799    1.4066   -0.3348 H   0  0  0  0  0  0  0  0  0  0  0  0
    1.3287    0.9599   -0.8822 H   0  0  0  0  0  0  0  0  0  0  0  0
   -0.2591    0.5414   -2.2799 C   0  0  0  0  0  0  0  0  0  0  0  0
   -0.5569    1.5537   -2.5722 H   0  0  0  0  0  0  0  0  0  0  0  0
    0.5726    0.2583   -2.9333 H   0  0  0  0  0  0  0  0  0  0  0  0
   -1.6610   -0.5921   -2.6695 S   0  0  0  0  0  0  0  0  0  0  0  0
   -0.7731   -2.1296   -3.1476 C   0  0  0  0  0  0  0  0  0  0  0  0
   -0.1269   -2.4709   -2.3334 H   0  0  0  0  0  0  0  0  0  0  0  0
   -1.4910   -2.9218   -3.3797 H   0  0  0  0  0  0  0  0  0  0  0  0
   -0.1549   -1.9494   -4.0321 H   0  0  0  0  0  0  0  0  0  0  0  0
    0.7265   -0.1815    1.5233 C   0  0  0  0  0  0  0  0  0  0  0  0
    1.9272   -0.1231    1.7551 O   0  0  0  0  0  0  0  0  0  0  0  0
   -0.1585    0.4076    2.4078 N   0  0  0  0  0  0  0  0  0  0  0  0
   -1.1432    0.2548    2.2152 H   0  0  0  0  0  0  0  0  0  0  0  0
    0.2344    0.8482    3.7401 C   0  0  0  0  0  0  0  0  0  0  0  0
    1.0262    1.6022    3.6774 H   0  0  0  0  0  0  0  0  0  0  0  0
   -0.6210    1.2907    4.2593 H   0  0  0  0  0  0  0  0  0  0  0  0
    0.5998    0.0010    4.3300 H   0  0  0  0  0  0  0  0  0  0  0  0
  1  2  1  0  0  0  0
  2  3  1  0  0  0  0
  2  4  1  0  0  0  0
  2  5  1  0  0  0  0
  5  6  2  0  0  0  0
  5  7  1  0  0  0  0
  7  8  1  0  0  0  0
  7  9  1  0  0  0  0
  9 10  1  0  0  0  0
  9 11  1  0  0  0  0
  9 22  1  0  0  0  0
 11 12  1  0  0  0  0
 11 13  1  0  0  0  0
 11 14  1  0  0  0  0
 14 15  1  0  0  0  0
 14 16  1  0  0  0  0
 14 17  1  0  0  0  0
 17 18  1  0  0  0  0
 18 19  1  0  0  0  0
 18 20  1  0  0  0  0
 18 21  1  0  0  0  0
 22 23  2  0  0  0  0
 22 24  1  0  0  0  0
 24 25  1  0  0  0  0
 24 26  1  0  0  0  0
 26 27  1  0  0  0  0
 26 28  1  0  0  0  0
 26 29  1  0  0  0  0
M  END
$$$$

  -OEChem-04042216023D

 29 28  0     1  0  0  0  0  0999 V2000
   -2.6785   -4.0888    1.3317 H   0  0  0  0  0  0  0  0  0  0  0  0
   -2.6532   -3.1672    0.7433 C   0  0  0  0  0  0  0  0  0  0  0  0
   -3.4528   -2.5072    1.0877 H   0  0  0  0  0  0  0  0  0  0  0  0
   -2.8223   -3.4158   -0.3072 H   0  0  0  0  0  0  0  0  0  0  0  0
   -1.3101   -2.4812    0.9030 C   0  0  0  0  0  0  0  0  0  0  0  0
   -0.4632   -2.9603    1.6350 O   0  0  0  0  0  0  0  0  0  0  0  0
   -1.0529   -1.3203    0.2041 N   0  0  0  0  0  0  0  0  0  0  0  0
   -1.7642   -1.0234   -0.4608 H   0  0  0  0  0  0  0  0  0  0  0  0
    0.2484   -0.6358    0.1586 C   0  0  1  0  0  0  0  0  0  0  0  0
    0.9720   -1.3743   -0.2042 H   0  0  0  0  0  0  0  0  0  0  0  0
    0.3010    0.5612   -0.8262 C   0  0  0  0  0  0  0  0  0  0  0  0
   -0.2378    1.3866   -0.3490 H   0  0  0  0  0  0  0  0  0  0  0  0
    1.3460    0.8758   -0.9205 H   0  0  0  0  0  0  0  0  0  0  0  0
   -0.2869    0.4294   -2.2529 C   0  0  0  0  0  0  0  0  0  0  0  0
   -0.3406    1.4331   -2.6871 H   0  0  0  0  0  0  0  0  0  0  0  0
    0.4280   -0.1389   -2.8564 H   0  0  0  0  0  0  0  0  0  0  0  0
   -1.9422   -0.3613   -2.4478 S   0  0  0  0  0  0  0  0  0  0  0  0
   -1.4924   -2.0026   -3.1417 C   0  0  0  0  0  0  0  0  0  0  0  0
   -1.0100   -1.8824   -4.1165 H   0  0  0  0  0  0  0  0  0  0  0  0
   -2.3892   -2.6159   -3.2703 H   0  0  0  0  0  0  0  0  0  0  0  0
   -0.8031   -2.5254   -2.4717 H   0  0  0  0  0  0  0  0  0  0  0  0
    0.7702   -0.1754    1.5382 C   0  0  0  0  0  0  0  0  0  0  0  0
    1.9761   -0.1299    1.7443 O   0  0  0  0  0  0  0  0  0  0  0  0
   -0.0863    0.4516    2.4251 N   0  0  0  0  0  0  0  0  0  0  0  0
   -1.0779    0.3206    2.2532 H   0  0  0  0  0  0  0  0  0  0  0  0
    0.3429    0.9357    3.7311 C   0  0  0  0  0  0  0  0  0  0  0  0
    1.1239    1.6954    3.6212 H   0  0  0  0  0  0  0  0  0  0  0  0
   -0.5006    1.3844    4.2645 H   0  0  0  0  0  0  0  0  0  0  0  0
    0.7363    0.1103    4.3340 H   0  0  0  0  0  0  0  0  0  0  0  0
  1  2  1  0  0  0  0
  2  3  1  0  0  0  0
  2  4  1  0  0  0  0
  2  5  1  0  0  0  0
  5  6  2  0  0  0  0
  5  7  1  0  0  0  0
  7  8  1  0  0  0  0
  7  9  1  0  0  0  0
  9 10  1  0  0  0  0
  9 11  1  0  0  0  0
  9 22  1  0  0  0  0
 11 12  1  0  0  0  0
 11 13  1  0  0  0  0
 11 14  1  0  0  0  0
 14 15  1  0  0  0  0
 14 16  1  0  0  0  0
 14 17  1  0  0  0  0
 17 18  1  0  0  0  0
 18 19  1  0  0  0  0
 18 20  1  0  0  0  0
 18 21  1  0  0  0  0
 22 23  2  0  0  0  0
 22 24  1  0  0  0  0
 24 25  1  0  0  0  0
 24 26  1  0  0  0  0
 26 27  1  0  0  0  0
 26 28  1  0  0  0  0
 26 29  1  0  0  0  0
M  END
$$$$

  -OEChem-04042216023D

 29 28  0     1  0  0  0  0  0999 V2000
   -2.6145   -4.0117    2.1776 H   0  0  0  0  0  0  0  0  0  0  0  0
   -2.5960   -3.2219    1.4214 C   0  0  0  0  0  0  0  0  0  0  0  0
   -3.3517   -2.4744    1.6742 H   0  0  0  0  0  0  0  0  0  0  0  0
   -2.8362   -3.6590    0.4492 H   0  0  0  0  0  0  0  0  0  0  0  0
   -1.2243   -2.5765    1.3741 C   0  0  0  0  0  0  0  0  0  0  0  0
   -0.3334   -2.9854    2.0969 O   0  0  0  0  0  0  0  0  0  0  0  0
   -0.9967   -1.5221    0.5142 N   0  0  0  0  0  0  0  0  0  0  0  0
   -1.7518   -1.2889   -0.1272 H   0  0  0  0  0  0  0  0  0  0  0  0
    0.3171   -0.9035    0.2743 C   0  0  1  0  0  0  0  0  0  0  0  0
    0.9830   -1.7077   -0.0588 H   0  0  0  0  0  0  0  0  0  0  0  0
    0.3049    0.1682   -0.8447 C   0  0  0  0  0  0  0  0  0  0  0  0
   -0.1475    1.0773   -0.4349 H   0  0  0  0  0  0  0  0  0  0  0  0
    1.3451    0.4090   -1.0895 H   0  0  0  0  0  0  0  0  0  0  0  0
   -0.4359   -0.1498   -2.1607 C   0  0  0  0  0  0  0  0  0  0  0  0
   -0.3061    0.6986   -2.8405 H   0  0  0  0  0  0  0  0  0  0  0  0
    0.0451   -1.0171   -2.6245 H   0  0  0  0  0  0  0  0  0  0  0  0
   -2.2399   -0.4987   -2.0088 S   0  0  0  0  0  0  0  0  0  0  0  0
   -2.6978   -0.7670   -3.7668 C   0  0  0  0  0  0  0  0  0  0  0  0
   -2.4861    0.1307   -4.3556 H   0  0  0  0  0  0  0  0  0  0  0  0
   -3.7652   -0.9937   -3.8473 H   0  0  0  0  0  0  0  0  0  0  0  0
   -2.1299   -1.6039   -4.1843 H   0  0  0  0  0  0  0  0  0  0  0  0
    0.9746   -0.2989    1.5351 C   0  0  0  0  0  0  0  0  0  0  0  0
    2.1951   -0.2773    1.6295 O   0  0  0  0  0  0  0  0  0  0  0  0
    0.2202    0.4687    2.4040 N   0  0  0  0  0  0  0  0  0  0  0  0
   -0.7859    0.3529    2.3373 H   0  0  0  0  0  0  0  0  0  0  0  0
    0.7786    1.0871    3.5997 C   0  0  0  0  0  0  0  0  0  0  0  0
    1.5973    1.7651    3.3356 H   0  0  0  0  0  0  0  0  0  0  0  0
    0.0093    1.6646    4.1209 H   0  0  0  0  0  0  0  0  0  0  0  0
    1.1619    0.3210    4.2820 H   0  0  0  0  0  0  0  0  0  0  0  0
  1  2  1  0  0  0  0
  2  3  1  0  0  0  0
  2  4  1  0  0  0  0
  2  5  1  0  0  0  0
  5  6  2  0  0  0  0
  5  7  1  0  0  0  0
  7  8  1  0  0  0  0
  7  9  1  0  0  0  0
  9 10  1  0  0  0  0
  9 11  1  0  0  0  0
  9 22  1  0  0  0  0
 11 12  1  0  0  0  0
 11 13  1  0  0  0  0
 11 14  1  0  0  0  0
 14 15  1  0  0  0  0
 14 16  1  0  0  0  0
 14 17  1  0  0  0  0
 17 18  1  0  0  0  0
 18 19  1  0  0  0  0
 18 20  1  0  0  0  0
 18 21  1  0  0  0  0
 22 23  2  0  0  0  0
 22 24  1  0  0  0  0
 24 25  1  0  0  0  0
 24 26  1  0  0  0  0
 26 27  1  0  0  0  0
 26 28  1  0  0  0  0
 26 29  1  0  0  0  0
M  END
$$$$

  -OEChem-04042216023D

 29 28  0     1  0  0  0  0  0999 V2000
   -1.2627   -4.5869    1.7655 H   0  0  0  0  0  0  0  0  0  0  0  0
   -1.6128   -3.7162    1.2038 C   0  0  0  0  0  0  0  0  0  0  0  0
   -2.4747   -3.2869    1.7199 H   0  0  0  0  0  0  0  0  0  0  0  0
   -1.9188   -4.0406    0.2063 H   0  0  0  0  0  0  0  0  0  0  0  0
   -0.5064   -2.6841    1.0967 C   0  0  0  0  0  0  0  0  0  0  0  0
    0.5694   -2.8846    1.6312 O   0  0  0  0  0  0  0  0  0  0  0  0
   -0.7287   -1.5175    0.3954 N   0  0  0  0  0  0  0  0  0  0  0  0
   -1.6231   -1.4327   -0.0841 H   0  0  0  0  0  0  0  0  0  0  0  0
    0.2844   -0.4793    0.1427 C   0  0  1  0  0  0  0  0  0  0  0  0
    1.1176   -0.9675   -0.3752 H   0  0  0  0  0  0  0  0  0  0  0  0
   -0.2477    0.6363   -0.7857 C   0  0  0  0  0  0  0  0  0  0  0  0
   -0.9011    1.3016   -0.2112 H   0  0  0  0  0  0  0  0  0  0  0  0
    0.6087    1.2326   -1.1187 H   0  0  0  0  0  0  0  0  0  0  0  0
   -1.0223    0.1592   -2.0271 C   0  0  0  0  0  0  0  0  0  0  0  0
   -1.1023    0.9942   -2.7306 H   0  0  0  0  0  0  0  0  0  0  0  0
   -0.4581   -0.6375   -2.5231 H   0  0  0  0  0  0  0  0  0  0  0  0
   -2.7231   -0.4349   -1.6381 S   0  0  0  0  0  0  0  0  0  0  0  0
   -3.3321   -0.8844   -3.3107 C   0  0  0  0  0  0  0  0  0  0  0  0
   -4.3581   -1.2597   -3.2496 H   0  0  0  0  0  0  0  0  0  0  0  0
   -3.3188   -0.0091   -3.9671 H   0  0  0  0  0  0  0  0  0  0  0  0
   -2.7000   -1.6627   -3.7487 H   0  0  0  0  0  0  0  0  0  0  0  0
    0.8838    0.1559    1.4167 C   0  0  0  0  0  0  0  0  0  0  0  0
    2.0408    0.5558    1.4070 O   0  0  0  0  0  0  0  0  0  0  0  0
    0.0528    0.5292    2.4575 N   0  0  0  0  0  0  0  0  0  0  0  0
   -0.8758    0.1198    2.4559 H   0  0  0  0  0  0  0  0  0  0  0  0
    0.5464    1.1509    3.6796 C   0  0  0  0  0  0  0  0  0  0  0  0
    1.0449    2.0993    3.4534 H   0  0  0  0  0  0  0  0  0  0  0  0
   -0.2836    1.3528    4.3633 H   0  0  0  0  0  0  0  0  0  0  0  0
    1.2596    0.4898    4.1833 H   0  0  0  0  0  0  0  0  0  0  0  0
  1  2  1  0  0  0  0
  2  3  1  0  0  0  0
  2  4  1  0  0  0  0
  2  5  1  0  0  0  0
  5  6  2  0  0  0  0
  5  7  1  0  0  0  0
  7  8  1  0  0  0  0
  7  9  1  0  0  0  0
  9 10  1  0  0  0  0
  9 11  1  0  0  0  0
  9 22  1  0  0  0  0
 11 12  1  0  0  0  0
 11 13  1  0  0  0  0
 11 14  1  0  0  0  0
 14 15  1  0  0  0  0
 14 16  1  0  0  0  0
 14 17  1  0  0  0  0
 17 18  1  0  0  0  0
 18 19  1  0  0  0  0
 18 20  1  0  0  0  0
 18 21  1  0  0  0  0
 22 23  2  0  0  0  0
 22 24  1  0  0  0  0
 24 25  1  0  0  0  0
 24 26  1  0  0  0  0
 26 27  1  0  0  0  0
 26 28  1  0  0  0  0
 26 29  1  0  0  0  0
M  END
$$$$

  -OEChem-04042216023D

 29 28  0     1  0  0  0  0  0999 V2000
   -1.4168   -5.0187    0.6364 H   0  0  0  0  0  0  0  0  0  0  0  0
   -1.6866   -4.0674    0.1690 C   0  0  0  0  0  0  0  0  0  0  0  0
   -2.6234   -3.7136    0.6058 H   0  0  0  0  0  0  0  0  0  0  0  0
   -1.8301   -4.2297   -0.9020 H   0  0  0  0  0  0  0  0  0  0  0  0
   -0.5891   -3.0450    0.3943 C   0  0  0  0  0  0  0  0  0  0  0  0
    0.4229   -3.3575    0.9954 O   0  0  0  0  0  0  0  0  0  0  0  0
   -0.7450   -1.7600   -0.0819 N   0  0  0  0  0  0  0  0  0  0  0  0
   -1.5847   -1.5686   -0.6269 H   0  0  0  0  0  0  0  0  0  0  0  0
    0.2880   -0.7094   -0.0235 C   0  0  1  0  0  0  0  0  0  0  0  0
    1.1688   -1.0885   -0.5540 H   0  0  0  0  0  0  0  0  0  0  0  0
   -0.2018    0.5557   -0.7559 C   0  0  0  0  0  0  0  0  0  0  0  0
   -0.9036    1.1055   -0.1213 H   0  0  0  0  0  0  0  0  0  0  0  0
    0.6638    1.2070   -0.9188 H   0  0  0  0  0  0  0  0  0  0  0  0
   -0.8585    0.2567   -2.1142 C   0  0  0  0  0  0  0  0  0  0  0  0
   -0.7026    1.1075   -2.7852 H   0  0  0  0  0  0  0  0  0  0  0  0
   -0.3839   -0.6139   -2.5793 H   0  0  0  0  0  0  0  0  0  0  0  0
   -2.6711   -0.0229   -1.9381 S   0  0  0  0  0  0  0  0  0  0  0  0
   -3.3238    1.6822   -1.7278 C   0  0  0  0  0  0  0  0  0  0  0  0
   -3.0716    2.2948   -2.5987 H   0  0  0  0  0  0  0  0  0  0  0  0
   -4.4126    1.6558   -1.6238 H   0  0  0  0  0  0  0  0  0  0  0  0
   -2.9007    2.1500   -0.8344 H   0  0  0  0  0  0  0  0  0  0  0  0
    0.7634   -0.3407    1.3986 C   0  0  0  0  0  0  0  0  0  0  0  0
    1.9127    0.0438    1.5705 O   0  0  0  0  0  0  0  0  0  0  0  0
   -0.1635   -0.1600    2.4094 N   0  0  0  0  0  0  0  0  0  0  0  0
   -1.0788   -0.5689    2.2507 H   0  0  0  0  0  0  0  0  0  0  0  0
    0.2123    0.2161    3.7665 C   0  0  0  0  0  0  0  0  0  0  0  0
    0.7393    1.1760    3.7669 H   0  0  0  0  0  0  0  0  0  0  0  0
   -0.6793    0.3140    4.3929 H   0  0  0  0  0  0  0  0  0  0  0  0
    0.8654   -0.5446    4.2068 H   0  0  0  0  0  0  0  0  0  0  0  0
  1  2  1  0  0  0  0
  2  3  1  0  0  0  0
  2  4  1  0  0  0  0
  2  5  1  0  0  0  0
  5  6  2  0  0  0  0
  5  7  1  0  0  0  0
  7  8  1  0  0  0  0
  7  9  1  0  0  0  0
  9 10  1  0  0  0  0
  9 11  1  0  0  0  0
  9 22  1  0  0  0  0
 11 12  1  0  0  0  0
 11 13  1  0  0  0  0
 11 14  1  0  0  0  0
 14 15  1  0  0  0  0
 14 16  1  0  0  0  0
 14 17  1  0  0  0  0
 17 18  1  0  0  0  0
 18 19  1  0  0  0  0
 18 20  1  0  0  0  0
 18 21  1  0  0  0  0
 22 23  2  0  0  0  0
 22 24  1  0  0  0  0
 24 25  1  0  0  0  0
 24 26  1  0  0  0  0
 26 27  1  0  0  0  0
 26 28  1  0  0  0  0
 26 29  1  0  0  0  0
M  END
$$$$

  -OEChem-04042216023D

 29 28  0     1  0  0  0  0  0999 V2000
   -2.4061   -4.3683    0.6695 H   0  0  0  0  0  0  0  0  0  0  0  0
   -2.4063   -3.4337    0.1010 C   0  0  0  0  0  0  0  0  0  0  0  0
   -3.2975   -2.8611    0.3680 H   0  0  0  0  0  0  0  0  0  0  0  0
   -2.4385   -3.6709   -0.9653 H   0  0  0  0  0  0  0  0  0  0  0  0
   -1.1576   -2.6324    0.4165 C   0  0  0  0  0  0  0  0  0  0  0  0
   -0.3308   -3.0751    1.1921 O   0  0  0  0  0  0  0  0  0  0  0  0
   -0.9691   -1.3983   -0.1728 N   0  0  0  0  0  0  0  0  0  0  0  0
   -1.6337   -1.1370   -0.8964 H   0  0  0  0  0  0  0  0  0  0  0  0
    0.2813   -0.6220   -0.0937 C   0  0  1  0  0  0  0  0  0  0  0  0
    1.0797   -1.2507   -0.5040 H   0  0  0  0  0  0  0  0  0  0  0  0
    0.1943    0.6534   -0.9579 C   0  0  0  0  0  0  0  0  0  0  0  0
   -0.3767    1.4278   -0.4376 H   0  0  0  0  0  0  0  0  0  0  0  0
    1.2114    1.0428   -1.0762 H   0  0  0  0  0  0  0  0  0  0  0  0
   -0.4033    0.4223   -2.3573 C   0  0  0  0  0  0  0  0  0  0  0  0
    0.2115    0.9574   -3.0890 H   0  0  0  0  0  0  0  0  0  0  0  0
   -0.3528   -0.6387   -2.6224 H   0  0  0  0  0  0  0  0  0  0  0  0
   -2.1393    1.0331   -2.5423 S   0  0  0  0  0  0  0  0  0  0  0  0
   -3.1178    0.7265   -1.0138 C   0  0  0  0  0  0  0  0  0  0  0  0
   -2.5940    1.1007   -0.1300 H   0  0  0  0  0  0  0  0  0  0  0  0
   -4.0787    1.2451   -1.0863 H   0  0  0  0  0  0  0  0  0  0  0  0
   -3.3186   -0.3405   -0.8900 H   0  0  0  0  0  0  0  0  0  0  0  0
    0.7232   -0.2413    1.3369 C   0  0  0  0  0  0  0  0  0  0  0  0
    1.9154   -0.1254    1.5882 O   0  0  0  0  0  0  0  0  0  0  0  0
   -0.2045    0.2499    2.2378 N   0  0  0  0  0  0  0  0  0  0  0  0
   -1.1750    0.0372    2.0331 H   0  0  0  0  0  0  0  0  0  0  0  0
    0.1535    0.6451    3.5942 C   0  0  0  0  0  0  0  0  0  0  0  0
    0.8682    1.4747    3.5754 H   0  0  0  0  0  0  0  0  0  0  0  0
   -0.7364    0.9697    4.1417 H   0  0  0  0  0  0  0  0  0  0  0  0
    0.6043   -0.1963    4.1315 H   0  0  0  0  0  0  0  0  0  0  0  0
  1  2  1  0  0  0  0
  2  3  1  0  0  0  0
  2  4  1  0  0  0  0
  2  5  1  0  0  0  0
  5  6  2  0  0  0  0
  5  7  1  0  0  0  0
  7  8  1  0  0  0  0
  7  9  1  0  0  0  0
  9 10  1  0  0  0  0
  9 11  1  0  0  0  0
  9 22  1  0  0  0  0
 11 12  1  0  0  0  0
 11 13  1  0  0  0  0
 11 14  1  0  0  0  0
 14 15  1  0  0  0  0
 14 16  1  0  0  0  0
 14 17  1  0  0  0  0
 17 18  1  0  0  0  0
 18 19  1  0  0  0  0
 18 20  1  0  0  0  0
 18 21  1  0  0  0  0
 22 23  2  0  0  0  0
 22 24  1  0  0  0  0
 24 25  1  0  0  0  0
 24 26  1  0  0  0  0
 26 27  1  0  0  0  0
 26 28  1  0  0  0  0
 26 29  1  0  0  0  0
M  END
$$$$

  -OEChem-04042216023D

 29 28  0     1  0  0  0  0  0999 V2000
   -2.5943   -4.1929    0.6610 H   0  0  0  0  0  0  0  0  0  0  0  0
   -2.5861   -3.2142    0.1725 C   0  0  0  0  0  0  0  0  0  0  0  0
   -3.4077   -2.6150    0.5721 H   0  0  0  0  0  0  0  0  0  0  0  0
   -2.7348   -3.3573   -0.9005 H   0  0  0  0  0  0  0  0  0  0  0  0
   -1.2630   -2.5166    0.4254 C   0  0  0  0  0  0  0  0  0  0  0  0
   -0.4208   -3.0438    1.1278 O   0  0  0  0  0  0  0  0  0  0  0  0
   -1.0244   -1.2791   -0.1375 N   0  0  0  0  0  0  0  0  0  0  0  0
   -1.7279   -0.9259   -0.7785 H   0  0  0  0  0  0  0  0  0  0  0  0
    0.2664   -0.5667   -0.0715 C   0  0  1  0  0  0  0  0  0  0  0  0
    1.0220   -1.2244   -0.5160 H   0  0  0  0  0  0  0  0  0  0  0  0
    0.2193    0.7265   -0.9108 C   0  0  0  0  0  0  0  0  0  0  0  0
   -0.3284    1.4940   -0.3544 H   0  0  0  0  0  0  0  0  0  0  0  0
    1.2431    1.0971   -1.0322 H   0  0  0  0  0  0  0  0  0  0  0  0
   -0.4168    0.5603   -2.3051 C   0  0  0  0  0  0  0  0  0  0  0  0
    0.3224    0.8512   -3.0590 H   0  0  0  0  0  0  0  0  0  0  0  0
   -0.6797   -0.4810   -2.5125 H   0  0  0  0  0  0  0  0  0  0  0  0
   -1.8966    1.6373   -2.5092 S   0  0  0  0  0  0  0  0  0  0  0  0
   -3.1353    0.9847   -1.3199 C   0  0  0  0  0  0  0  0  0  0  0  0
   -2.7529    1.0413   -0.2967 H   0  0  0  0  0  0  0  0  0  0  0  0
   -4.0533    1.5777   -1.3787 H   0  0  0  0  0  0  0  0  0  0  0  0
   -3.3794   -0.0548   -1.5562 H   0  0  0  0  0  0  0  0  0  0  0  0
    0.7642   -0.2426    1.3549 C   0  0  0  0  0  0  0  0  0  0  0  0
    1.9664   -0.2093    1.5807 O   0  0  0  0  0  0  0  0  0  0  0  0
   -0.1105    0.2727    2.2945 N   0  0  0  0  0  0  0  0  0  0  0  0
   -1.0982    0.1444    2.1031 H   0  0  0  0  0  0  0  0  0  0  0  0
    0.3027    0.6159    3.6496 C   0  0  0  0  0  0  0  0  0  0  0  0
    1.0869    1.3802    3.6302 H   0  0  0  0  0  0  0  0  0  0  0  0
   -0.5464    1.0093    4.2163 H   0  0  0  0  0  0  0  0  0  0  0  0
    0.6868   -0.2695    4.1673 H   0  0  0  0  0  0  0  0  0  0  0  0
  1  2  1  0  0  0  0
  2  3  1  0  0  0  0
  2  4  1  0  0  0  0
  2  5  1  0  0  0  0
  5  6  2  0  0  0  0
  5  7  1  0  0  0  0
  7  8  1  0  0  0  0
  7  9  1  0  0  0  0
  9 10  1  0  0  0  0
  9 11  1  0  0  0  0
  9 22  1  0  0  0  0
 11 12  1  0  0  0  0
 11 13  1  0  0  0  0
 11 14  1  0  0  0  0
 14 15  1  0  0  0  0
 14 16  1  0  0  0  0
 14 17  1  0  0  0  0
 17 18  1  0  0  0  0
 18 19  1  0  0  0  0
 18 20  1  0  0  0  0
 18 21  1  0  0  0  0
 22 23  2  0  0  0  0
 22 24  1  0  0  0  0
 24 25  1  0  0  0  0
 24 26  1  0  0  0  0
 26 27  1  0  0  0  0
 26 28  1  0  0  0  0
 26 29  1  0  0  0  0
M  END
$$$$

  -OEChem-04042216023D

 29 28  0     1  0  0  0  0  0999 V2000
   -2.6169   -4.1646    0.7085 H   0  0  0  0  0  0  0  0  0  0  0  0
   -2.6146   -3.1839    0.2240 C   0  0  0  0  0  0  0  0  0  0  0  0
   -3.4097   -2.5746    0.6601 H   0  0  0  0  0  0  0  0  0  0  0  0
   -2.8103   -3.3193   -0.8425 H   0  0  0  0  0  0  0  0  0  0  0  0
   -1.2715   -2.5077    0.4244 C   0  0  0  0  0  0  0  0  0  0  0  0
   -0.4044   -3.0586    1.0767 O   0  0  0  0  0  0  0  0  0  0  0  0
   -1.0409   -1.2637   -0.1286 N   0  0  0  0  0  0  0  0  0  0  0  0
   -1.7814   -0.8706   -0.7011 H   0  0  0  0  0  0  0  0  0  0  0  0
    0.2531   -0.5535   -0.0713 C   0  0  1  0  0  0  0  0  0  0  0  0
    1.0005   -1.2130   -0.5269 H   0  0  0  0  0  0  0  0  0  0  0  0
    0.2186    0.7459   -0.9019 C   0  0  0  0  0  0  0  0  0  0  0  0
   -0.3352    1.4981   -0.3317 H   0  0  0  0  0  0  0  0  0  0  0  0
    1.2399    1.1266   -1.0140 H   0  0  0  0  0  0  0  0  0  0  0  0
   -0.4199    0.6076   -2.2989 C   0  0  0  0  0  0  0  0  0  0  0  0
    0.3776    0.6165   -3.0491 H   0  0  0  0  0  0  0  0  0  0  0  0
   -0.9550   -0.3369   -2.4226 H   0  0  0  0  0  0  0  0  0  0  0  0
   -1.5745    1.9984   -2.6351 S   0  0  0  0  0  0  0  0  0  0  0  0
   -3.0129    1.6298   -1.5532 C   0  0  0  0  0  0  0  0  0  0  0  0
   -2.7106    1.6138   -0.5022 H   0  0  0  0  0  0  0  0  0  0  0  0
   -3.7804    2.3994   -1.6815 H   0  0  0  0  0  0  0  0  0  0  0  0
   -3.4449    0.6596   -1.8146 H   0  0  0  0  0  0  0  0  0  0  0  0
    0.7662   -0.2482    1.3538 C   0  0  0  0  0  0  0  0  0  0  0  0
    1.9703   -0.2180    1.5693 O   0  0  0  0  0  0  0  0  0  0  0  0
   -0.0996    0.2565    2.3075 N   0  0  0  0  0  0  0  0  0  0  0  0
   -1.0890    0.1297    2.1247 H   0  0  0  0  0  0  0  0  0  0  0  0
    0.3264    0.5815    3.6630 C   0  0  0  0  0  0  0  0  0  0  0  0
    1.1163    1.3399    3.6461 H   0  0  0  0  0  0  0  0  0  0  0  0
   -0.5156    0.9754    4.2400 H   0  0  0  0  0  0  0  0  0  0  0  0
    0.7070   -0.3124    4.1684 H   0  0  0  0  0  0  0  0  0  0  0  0
  1  2  1  0  0  0  0
  2  3  1  0  0  0  0
  2  4  1  0  0  0  0
  2  5  1  0  0  0  0
  5  6  2  0  0  0  0
  5  7  1  0  0  0  0
  7  8  1  0  0  0  0
  7  9  1  0  0  0  0
  9 10  1  0  0  0  0
  9 11  1  0  0  0  0
  9 22  1  0  0  0  0
 11 12  1  0  0  0  0
 11 13  1  0  0  0  0
 11 14  1  0  0  0  0
 14 15  1  0  0  0  0
 14 16  1  0  0  0  0
 14 17  1  0  0  0  0
 17 18  1  0  0  0  0
 18 19  1  0  0  0  0
 18 20  1  0  0  0  0
 18 21  1  0  0  0  0
 22 23  2  0  0  0  0
 22 24  1  0  0  0  0
 24 25  1  0  0  0  0
 24 26  1  0  0  0  0
 26 27  1  0  0  0  0
 26 28  1  0  0  0  0
 26 29  1  0  0  0  0
M  END
$$$$

  -OEChem-04042216023D

 29 28  0     1  0  0  0  0  0999 V2000
   -2.6133   -4.1641    0.7329 H   0  0  0  0  0  0  0  0  0  0  0  0
   -2.6172   -3.1836    0.2478 C   0  0  0  0  0  0  0  0  0  0  0  0
   -3.4006   -2.5711    0.7002 H   0  0  0  0  0  0  0  0  0  0  0  0
   -2.8350   -3.3186   -0.8144 H   0  0  0  0  0  0  0  0  0  0  0  0
   -1.2675   -2.5129    0.4195 C   0  0  0  0  0  0  0  0  0  0  0  0
   -0.3872   -3.0716    1.0471 O   0  0  0  0  0  0  0  0  0  0  0  0
   -1.0459   -1.2654   -0.1297 N   0  0  0  0  0  0  0  0  0  0  0  0
   -1.8041   -0.8588   -0.6681 H   0  0  0  0  0  0  0  0  0  0  0  0
    0.2457   -0.5506   -0.0772 C   0  0  1  0  0  0  0  0  0  0  0  0
    0.9924   -1.2082   -0.5364 H   0  0  0  0  0  0  0  0  0  0  0  0
    0.2173    0.7531   -0.9022 C   0  0  0  0  0  0  0  0  0  0  0  0
   -0.3434    1.4964   -0.3279 H   0  0  0  0  0  0  0  0  0  0  0  0
    1.2372    1.1384   -1.0100 H   0  0  0  0  0  0  0  0  0  0  0  0
   -0.4208    0.6255   -2.2986 C   0  0  0  0  0  0  0  0  0  0  0  0
    0.3549    0.3487   -3.0200 H   0  0  0  0  0  0  0  0  0  0  0  0
   -1.1864   -0.1522   -2.3354 H   0  0  0  0  0  0  0  0  0  0  0  0
   -1.1976    2.2133   -2.8037 S   0  0  0  0  0  0  0  0  0  0  0  0
   -2.7339    2.2781   -1.7976 C   0  0  0  0  0  0  0  0  0  0  0  0
   -2.4953    2.3015   -0.7307 H   0  0  0  0  0  0  0  0  0  0  0  0
   -3.3024    3.1798   -2.0452 H   0  0  0  0  0  0  0  0  0  0  0  0
   -3.3595    1.4045   -2.0023 H   0  0  0  0  0  0  0  0  0  0  0  0
    0.7608   -0.2528    1.3488 C   0  0  0  0  0  0  0  0  0  0  0  0
    1.9650   -0.2214    1.5634 O   0  0  0  0  0  0  0  0  0  0  0  0
   -0.1057    0.2423    2.3070 N   0  0  0  0  0  0  0  0  0  0  0  0
   -1.0949    0.1135    2.1241 H   0  0  0  0  0  0  0  0  0  0  0  0
    0.3208    0.5571    3.6647 C   0  0  0  0  0  0  0  0  0  0  0  0
    1.1092    1.3172    3.6532 H   0  0  0  0  0  0  0  0  0  0  0  0
   -0.5211    0.9445    4.2459 H   0  0  0  0  0  0  0  0  0  0  0  0
    0.7040   -0.3403    4.1620 H   0  0  0  0  0  0  0  0  0  0  0  0
  1  2  1  0  0  0  0
  2  3  1  0  0  0  0
  2  4  1  0  0  0  0
  2  5  1  0  0  0  0
  5  6  2  0  0  0  0
  5  7  1  0  0  0  0
  7  8  1  0  0  0  0
  7  9  1  0  0  0  0
  9 10  1  0  0  0  0
  9 11  1  0  0  0  0
  9 22  1  0  0  0  0
 11 12  1  0  0  0  0
 11 13  1  0  0  0  0
 11 14  1  0  0  0  0
 14 15  1  0  0  0  0
 14 16  1  0  0  0  0
 14 17  1  0  0  0  0
 17 18  1  0  0  0  0
 18 19  1  0  0  0  0
 18 20  1  0  0  0  0
 18 21  1  0  0  0  0
 22 23  2  0  0  0  0
 22 24  1  0  0  0  0
 24 25  1  0  0  0  0
 24 26  1  0  0  0  0
 26 27  1  0  0  0  0
 26 28  1  0  0  0  0
 26 29  1  0  0  0  0
M  END
$$$$

  -OEChem-04042216023D

 29 28  0     1  0  0  0  0  0999 V2000
   -2.6109   -4.1729    0.7221 H   0  0  0  0  0  0  0  0  0  0  0  0
   -2.6181   -3.1915    0.2389 C   0  0  0  0  0  0  0  0  0  0  0  0
   -3.4048   -2.5832    0.6912 H   0  0  0  0  0  0  0  0  0  0  0  0
   -2.8342   -3.3258   -0.8238 H   0  0  0  0  0  0  0  0  0  0  0  0
   -1.2718   -2.5145    0.4137 C   0  0  0  0  0  0  0  0  0  0  0  0
   -0.3906   -3.0686    1.0441 O   0  0  0  0  0  0  0  0  0  0  0  0
   -1.0541   -1.2660   -0.1353 N   0  0  0  0  0  0  0  0  0  0  0  0
   -1.8142   -0.8615   -0.6721 H   0  0  0  0  0  0  0  0  0  0  0  0
    0.2357   -0.5480   -0.0822 C   0  0  1  0  0  0  0  0  0  0  0  0
    0.9841   -1.2044   -0.5411 H   0  0  0  0  0  0  0  0  0  0  0  0
    0.2061    0.7555   -0.9072 C   0  0  0  0  0  0  0  0  0  0  0  0
   -0.3570    1.5011   -0.3388 H   0  0  0  0  0  0  0  0  0  0  0  0
    1.2268    1.1377   -1.0183 H   0  0  0  0  0  0  0  0  0  0  0  0
   -0.4316    0.6149   -2.2993 C   0  0  0  0  0  0  0  0  0  0  0  0
    0.2623    0.0852   -2.9604 H   0  0  0  0  0  0  0  0  0  0  0  0
   -1.3601    0.0409   -2.2654 H   0  0  0  0  0  0  0  0  0  0  0  0
   -0.8130    2.2710   -2.9997 S   0  0  0  0  0  0  0  0  0  0  0  0
   -2.2907    2.8195   -2.0550 C   0  0  0  0  0  0  0  0  0  0  0  0
   -2.0490    2.9402   -0.9954 H   0  0  0  0  0  0  0  0  0  0  0  0
   -2.6422    3.7813   -2.4407 H   0  0  0  0  0  0  0  0  0  0  0  0
   -3.0979    2.0882   -2.1538 H   0  0  0  0  0  0  0  0  0  0  0  0
    0.7496   -0.2497    1.3443 C   0  0  0  0  0  0  0  0  0  0  0  0
    1.9536   -0.2140    1.5592 O   0  0  0  0  0  0  0  0  0  0  0  0
   -0.1181    0.2427    2.3028 N   0  0  0  0  0  0  0  0  0  0  0  0
   -1.1069    0.1095    2.1205 H   0  0  0  0  0  0  0  0  0  0  0  0
    0.3073    0.5576    3.6610 C   0  0  0  0  0  0  0  0  0  0  0  0
    1.0928    1.3207    3.6503 H   0  0  0  0  0  0  0  0  0  0  0  0
   -0.5364    0.9414    4.2426 H   0  0  0  0  0  0  0  0  0  0  0  0
    0.6939   -0.3386    4.1579 H   0  0  0  0  0  0  0  0  0  0  0  0
  1  2  1  0  0  0  0
  2  3  1  0  0  0  0
  2  4  1  0  0  0  0
  2  5  1  0  0  0  0
  5  6  2  0  0  0  0
  5  7  1  0  0  0  0
  7  8  1  0  0  0  0
  7  9  1  0  0  0  0
  9 10  1  0  0  0  0
  9 11  1  0  0  0  0
  9 22  1  0  0  0  0
 11 12  1  0  0  0  0
 11 13  1  0  0  0  0
 11 14  1  0  0  0  0
 14 15  1  0  0  0  0
 14 16  1  0  0  0  0
 14 17  1  0  0  0  0
 17 18  1  0  0  0  0
 18 19  1  0  0  0  0
 18 20  1  0  0  0  0
 18 21  1  0  0  0  0
 22 23  2  0  0  0  0
 22 24  1  0  0  0  0
 24 25  1  0  0  0  0
 24 26  1  0  0  0  0
 26 27  1  0  0  0  0
 26 28  1  0  0  0  0
 26 29  1  0  0  0  0
M  END
$$$$

  -OEChem-04042216023D

 29 28  0     1  0  0  0  0  0999 V2000
   -2.5744   -4.2359    0.7020 H   0  0  0  0  0  0  0  0  0  0  0  0
   -2.5962   -3.2625    0.2036 C   0  0  0  0  0  0  0  0  0  0  0  0
   -3.4279   -2.6803    0.6069 H   0  0  0  0  0  0  0  0  0  0  0  0
   -2.7538   -3.4199   -0.8660 H   0  0  0  0  0  0  0  0  0  0  0  0
   -1.2878   -2.5300    0.4336 C   0  0  0  0  0  0  0  0  0  0  0  0
   -0.4154   -3.0423    1.1099 O   0  0  0  0  0  0  0  0  0  0  0  0
   -1.0962   -1.2796   -0.1208 N   0  0  0  0  0  0  0  0  0  0  0  0
   -1.8298   -0.9416   -0.7342 H   0  0  0  0  0  0  0  0  0  0  0  0
    0.1840   -0.5415   -0.0807 C   0  0  1  0  0  0  0  0  0  0  0  0
    0.9320   -1.1972   -0.5415 H   0  0  0  0  0  0  0  0  0  0  0  0
    0.1472    0.7563   -0.9205 C   0  0  0  0  0  0  0  0  0  0  0  0
   -0.1786    1.5771   -0.2749 H   0  0  0  0  0  0  0  0  0  0  0  0
    1.1644    0.9904   -1.2525 H   0  0  0  0  0  0  0  0  0  0  0  0
   -0.7868    0.7103   -2.1387 C   0  0  0  0  0  0  0  0  0  0  0  0
   -0.4736   -0.0980   -2.8078 H   0  0  0  0  0  0  0  0  0  0  0  0
   -1.8194    0.5221   -1.8331 H   0  0  0  0  0  0  0  0  0  0  0  0
   -0.7394    2.3051   -3.0513 S   0  0  0  0  0  0  0  0  0  0  0  0
   -1.5520    3.4930   -1.9084 C   0  0  0  0  0  0  0  0  0  0  0  0
   -0.9476    3.6374   -1.0084 H   0  0  0  0  0  0  0  0  0  0  0  0
   -1.6714    4.4618   -2.4027 H   0  0  0  0  0  0  0  0  0  0  0  0
   -2.5402    3.1253   -1.6172 H   0  0  0  0  0  0  0  0  0  0  0  0
    0.7130   -0.2283    1.3377 C   0  0  0  0  0  0  0  0  0  0  0  0
    1.9194   -0.1615    1.5309 O   0  0  0  0  0  0  0  0  0  0  0  0
   -0.1485    0.2556    2.3061 N   0  0  0  0  0  0  0  0  0  0  0  0
   -1.1365    0.0913    2.1454 H   0  0  0  0  0  0  0  0  0  0  0  0
    0.2946    0.5998    3.6516 C   0  0  0  0  0  0  0  0  0  0  0  0
    1.0519    1.3901    3.6155 H   0  0  0  0  0  0  0  0  0  0  0  0
   -0.5491    0.9596    4.2482 H   0  0  0  0  0  0  0  0  0  0  0  0
    0.7240   -0.2766    4.1489 H   0  0  0  0  0  0  0  0  0  0  0  0
  1  2  1  0  0  0  0
  2  3  1  0  0  0  0
  2  4  1  0  0  0  0
  2  5  1  0  0  0  0
  5  6  2  0  0  0  0
  5  7  1  0  0  0  0
  7  8  1  0  0  0  0
  7  9  1  0  0  0  0
  9 10  1  0  0  0  0
  9 11  1  0  0  0  0
  9 22  1  0  0  0  0
 11 12  1  0  0  0  0
 11 13  1  0  0  0  0
 11 14  1  0  0  0  0
 14 15  1  0  0  0  0
 14 16  1  0  0  0  0
 14 17  1  0  0  0  0
 17 18  1  0  0  0  0
 18 19  1  0  0  0  0
 18 20  1  0  0  0  0
 18 21  1  0  0  0  0
 22 23  2  0  0  0  0
 22 24  1  0  0  0  0
 24 25  1  0  0  0  0
 24 26  1  0  0  0  0
 26 27  1  0  0  0  0
 26 28  1  0  0  0  0
 26 29  1  0  0  0  0
M  END
$$$$

  -OEChem-04042216023D

 29 28  0     1  0  0  0  0  0999 V2000
   -2.5417   -4.2459    0.7375 H   0  0  0  0  0  0  0  0  0  0  0  0
   -2.5746   -3.2847    0.2159 C   0  0  0  0  0  0  0  0  0  0  0  0
   -3.4131   -2.7028    0.6057 H   0  0  0  0  0  0  0  0  0  0  0  0
   -2.7305   -3.4697   -0.8496 H   0  0  0  0  0  0  0  0  0  0  0  0
   -1.2746   -2.5317    0.4280 C   0  0  0  0  0  0  0  0  0  0  0  0
   -0.3891   -3.0265    1.1006 O   0  0  0  0  0  0  0  0  0  0  0  0
   -1.1071   -1.2807   -0.1331 N   0  0  0  0  0  0  0  0  0  0  0  0
   -1.8497   -0.9565   -0.7435 H   0  0  0  0  0  0  0  0  0  0  0  0
    0.1613   -0.5210   -0.1027 C   0  0  1  0  0  0  0  0  0  0  0  0
    0.9191   -1.1615   -0.5686 H   0  0  0  0  0  0  0  0  0  0  0  0
    0.0834    0.7745   -0.9418 C   0  0  0  0  0  0  0  0  0  0  0  0
   -0.2453    1.5990   -0.3014 H   0  0  0  0  0  0  0  0  0  0  0  0
    1.0928    1.0165   -1.2921 H   0  0  0  0  0  0  0  0  0  0  0  0
   -0.8673    0.6946   -2.1443 C   0  0  0  0  0  0  0  0  0  0  0  0
   -0.7024   -0.2458   -2.6810 H   0  0  0  0  0  0  0  0  0  0  0  0
   -1.9085    0.7227   -1.8091 H   0  0  0  0  0  0  0  0  0  0  0  0
   -0.5662    2.0822   -3.3117 S   0  0  0  0  0  0  0  0  0  0  0  0
   -0.9002    3.5836   -2.3063 C   0  0  0  0  0  0  0  0  0  0  0  0
   -0.1637    3.6792   -1.5033 H   0  0  0  0  0  0  0  0  0  0  0  0
   -0.8411    4.4752   -2.9377 H   0  0  0  0  0  0  0  0  0  0  0  0
   -1.9004    3.5325   -1.8663 H   0  0  0  0  0  0  0  0  0  0  0  0
    0.6924   -0.1927    1.3111 C   0  0  0  0  0  0  0  0  0  0  0  0
    1.8984   -0.1028    1.4981 O   0  0  0  0  0  0  0  0  0  0  0  0
   -0.1736    0.2810    2.2806 N   0  0  0  0  0  0  0  0  0  0  0  0
   -1.1590    0.0967    2.1252 H   0  0  0  0  0  0  0  0  0  0  0  0
    0.2692    0.6361    3.6233 C   0  0  0  0  0  0  0  0  0  0  0  0
    1.0190    1.4333    3.5820 H   0  0  0  0  0  0  0  0  0  0  0  0
   -0.5765    0.9911    4.2196 H   0  0  0  0  0  0  0  0  0  0  0  0
    0.7074   -0.2337    4.1241 H   0  0  0  0  0  0  0  0  0  0  0  0
  1  2  1  0  0  0  0
  2  3  1  0  0  0  0
  2  4  1  0  0  0  0
  2  5  1  0  0  0  0
  5  6  2  0  0  0  0
  5  7  1  0  0  0  0
  7  8  1  0  0  0  0
  7  9  1  0  0  0  0
  9 10  1  0  0  0  0
  9 11  1  0  0  0  0
  9 22  1  0  0  0  0
 11 12  1  0  0  0  0
 11 13  1  0  0  0  0
 11 14  1  0  0  0  0
 14 15  1  0  0  0  0
 14 16  1  0  0  0  0
 14 17  1  0  0  0  0
 17 18  1  0  0  0  0
 18 19  1  0  0  0  0
 18 20  1  0  0  0  0
 18 21  1  0  0  0  0
 22 23  2  0  0  0  0
 22 24  1  0  0  0  0
 24 25  1  0  0  0  0
 24 26  1  0  0  0  0
 26 27  1  0  0  0  0
 26 28  1  0  0  0  0
 26 29  1  0  0  0  0
M  END
$$$$

  -OEChem-04042216023D

 29 28  0     1  0  0  0  0  0999 V2000
   -2.5412   -4.2424    0.7277 H   0  0  0  0  0  0  0  0  0  0  0  0
   -2.5818   -3.2750    0.2188 C   0  0  0  0  0  0  0  0  0  0  0  0
   -3.4206   -2.7014    0.6204 H   0  0  0  0  0  0  0  0  0  0  0  0
   -2.7430   -3.4473   -0.8481 H   0  0  0  0  0  0  0  0  0  0  0  0
   -1.2840   -2.5188    0.4326 C   0  0  0  0  0  0  0  0  0  0  0  0
   -0.3973   -3.0110    1.1053 O   0  0  0  0  0  0  0  0  0  0  0  0
   -1.1187   -1.2690   -0.1311 N   0  0  0  0  0  0  0  0  0  0  0  0
   -1.8654   -0.9442   -0.7365 H   0  0  0  0  0  0  0  0  0  0  0  0
    0.1501   -0.5100   -0.1117 C   0  0  1  0  0  0  0  0  0  0  0  0
    0.9039   -1.1516   -0.5828 H   0  0  0  0  0  0  0  0  0  0  0  0
    0.0640    0.7833   -0.9536 C   0  0  0  0  0  0  0  0  0  0  0  0
   -0.2519    1.6174   -0.3184 H   0  0  0  0  0  0  0  0  0  0  0  0
    1.0744    1.0129   -1.3100 H   0  0  0  0  0  0  0  0  0  0  0  0
   -0.8953    0.7066   -2.1521 C   0  0  0  0  0  0  0  0  0  0  0  0
   -0.9172   -0.3137   -2.5485 H   0  0  0  0  0  0  0  0  0  0  0  0
   -1.9098    0.9782   -1.8445 H   0  0  0  0  0  0  0  0  0  0  0  0
   -0.3278    1.8016   -3.5142 S   0  0  0  0  0  0  0  0  0  0  0  0
   -0.3362    3.4672   -2.7380 C   0  0  0  0  0  0  0  0  0  0  0  0
    0.3921    3.5144   -1.9232 H   0  0  0  0  0  0  0  0  0  0  0  0
   -0.0747    4.2267   -3.4808 H   0  0  0  0  0  0  0  0  0  0  0  0
   -1.3286    3.6956   -2.3387 H   0  0  0  0  0  0  0  0  0  0  0  0
    0.6940   -0.1787    1.2962 C   0  0  0  0  0  0  0  0  0  0  0  0
    1.9013   -0.0816    1.4703 O   0  0  0  0  0  0  0  0  0  0  0  0
   -0.1636    0.2976    2.2716 N   0  0  0  0  0  0  0  0  0  0  0  0
   -1.1489    0.1031    2.1286 H   0  0  0  0  0  0  0  0  0  0  0  0
    0.2910    0.6550    3.6098 C   0  0  0  0  0  0  0  0  0  0  0  0
    1.0387    1.4538    3.5610 H   0  0  0  0  0  0  0  0  0  0  0  0
   -0.5500    1.0083    4.2139 H   0  0  0  0  0  0  0  0  0  0  0  0
    0.7359   -0.2137    4.1067 H   0  0  0  0  0  0  0  0  0  0  0  0
  1  2  1  0  0  0  0
  2  3  1  0  0  0  0
  2  4  1  0  0  0  0
  2  5  1  0  0  0  0
  5  6  2  0  0  0  0
  5  7  1  0  0  0  0
  7  8  1  0  0  0  0
  7  9  1  0  0  0  0
  9 10  1  0  0  0  0
  9 11  1  0  0  0  0
  9 22  1  0  0  0  0
 11 12  1  0  0  0  0
 11 13  1  0  0  0  0
 11 14  1  0  0  0  0
 14 15  1  0  0  0  0
 14 16  1  0  0  0  0
 14 17  1  0  0  0  0
 17 18  1  0  0  0  0
 18 19  1  0  0  0  0
 18 20  1  0  0  0  0
 18 21  1  0  0  0  0
 22 23  2  0  0  0  0
 22 24  1  0  0  0  0
 24 25  1  0  0  0  0
 24 26  1  0  0  0  0
 26 27  1  0  0  0  0
 26 28  1  0  0  0  0
 26 29  1  0  0  0  0
M  END
$$$$

  -OEChem-04042216023D

 29 28  0     1  0  0  0  0  0999 V2000
   -2.5545   -4.2332    0.7504 H   0  0  0  0  0  0  0  0  0  0  0  0
   -2.5974   -3.2636    0.2460 C   0  0  0  0  0  0  0  0  0  0  0  0
   -3.4265   -2.6874    0.6634 H   0  0  0  0  0  0  0  0  0  0  0  0
   -2.7761   -3.4301   -0.8191 H   0  0  0  0  0  0  0  0  0  0  0  0
   -1.2921   -2.5158    0.4417 C   0  0  0  0  0  0  0  0  0  0  0  0
   -0.3996   -3.0137    1.1023 O   0  0  0  0  0  0  0  0  0  0  0  0
   -1.1265   -1.2673   -0.1249 N   0  0  0  0  0  0  0  0  0  0  0  0
   -1.8820   -0.9329   -0.7139 H   0  0  0  0  0  0  0  0  0  0  0  0
    0.1455   -0.5142   -0.1180 C   0  0  1  0  0  0  0  0  0  0  0  0
    0.8910   -1.1635   -0.5919 H   0  0  0  0  0  0  0  0  0  0  0  0
    0.0718    0.7790   -0.9633 C   0  0  0  0  0  0  0  0  0  0  0  0
   -0.2324    1.6152   -0.3251 H   0  0  0  0  0  0  0  0  0  0  0  0
    1.0879    0.9970   -1.3100 H   0  0  0  0  0  0  0  0  0  0  0  0
   -0.8866    0.7368   -2.1696 C   0  0  0  0  0  0  0  0  0  0  0  0
   -1.1416   -0.2950   -2.4270 H   0  0  0  0  0  0  0  0  0  0  0  0
   -1.8141    1.2691   -1.9355 H   0  0  0  0  0  0  0  0  0  0  0  0
   -0.0929    1.4597   -3.6612 S   0  0  0  0  0  0  0  0  0  0  0  0
    0.1668    3.2129   -3.1751 C   0  0  0  0  0  0  0  0  0  0  0  0
    0.8406    3.2782   -2.3158 H   0  0  0  0  0  0  0  0  0  0  0  0
    0.6099    3.7690   -4.0067 H   0  0  0  0  0  0  0  0  0  0  0  0
   -0.7871    3.6790   -2.9117 H   0  0  0  0  0  0  0  0  0  0  0  0
    0.7003   -0.1860    1.2866 C   0  0  0  0  0  0  0  0  0  0  0  0
    1.9090   -0.0961    1.4550 O   0  0  0  0  0  0  0  0  0  0  0  0
   -0.1495    0.2937    2.2672 N   0  0  0  0  0  0  0  0  0  0  0  0
   -1.1370    0.1083    2.1269 H   0  0  0  0  0  0  0  0  0  0  0  0
    0.3127    0.6444    3.6046 C   0  0  0  0  0  0  0  0  0  0  0  0
    1.0685    1.4355    3.5544 H   0  0  0  0  0  0  0  0  0  0  0  0
   -0.5231    1.0056    4.2113 H   0  0  0  0  0  0  0  0  0  0  0  0
    0.7498   -0.2297    4.0989 H   0  0  0  0  0  0  0  0  0  0  0  0
  1  2  1  0  0  0  0
  2  3  1  0  0  0  0
  2  4  1  0  0  0  0
  2  5  1  0  0  0  0
  5  6  2  0  0  0  0
  5  7  1  0  0  0  0
  7  8  1  0  0  0  0
  7  9  1  0  0  0  0
  9 10  1  0  0  0  0
  9 11  1  0  0  0  0
  9 22  1  0  0  0  0
 11 12  1  0  0  0  0
 11 13  1  0  0  0  0
 11 14  1  0  0  0  0
 14 15  1  0  0  0  0
 14 16  1  0  0  0  0
 14 17  1  0  0  0  0
 17 18  1  0  0  0  0
 18 19  1  0  0  0  0
 18 20  1  0  0  0  0
 18 21  1  0  0  0  0
 22 23  2  0  0  0  0
 22 24  1  0  0  0  0
 24 25  1  0  0  0  0
 24 26  1  0  0  0  0
 26 27  1  0  0  0  0
 26 28  1  0  0  0  0
 26 29  1  0  0  0  0
M  END
$$$$

  -OEChem-04042216023D

 29 28  0     1  0  0  0  0  0999 V2000
   -2.5737   -4.2293    0.7717 H   0  0  0  0  0  0  0  0  0  0  0  0
   -2.6174   -3.2588    0.2686 C   0  0  0  0  0  0  0  0  0  0  0  0
   -3.4414   -2.6800    0.6925 H   0  0  0  0  0  0  0  0  0  0  0  0
   -2.8047   -3.4242   -0.7951 H   0  0  0  0  0  0  0  0  0  0  0  0
   -1.3078   -2.5160    0.4559 C   0  0  0  0  0  0  0  0  0  0  0  0
   -0.4162   -3.0142    1.1178 O   0  0  0  0  0  0  0  0  0  0  0  0
   -1.1398   -1.2689   -0.1135 N   0  0  0  0  0  0  0  0  0  0  0  0
   -1.8966   -0.9346   -0.7006 H   0  0  0  0  0  0  0  0  0  0  0  0
    0.1374   -0.5239   -0.1191 C   0  0  1  0  0  0  0  0  0  0  0  0
    0.8726   -1.1829   -0.5954 H   0  0  0  0  0  0  0  0  0  0  0  0
    0.0886    0.7709   -0.9665 C   0  0  0  0  0  0  0  0  0  0  0  0
   -0.2175    1.5986   -0.3183 H   0  0  0  0  0  0  0  0  0  0  0  0
    1.1104    0.9911   -1.2935 H   0  0  0  0  0  0  0  0  0  0  0  0
   -0.8631    0.7717   -2.1823 C   0  0  0  0  0  0  0  0  0  0  0  0
   -1.3850   -0.1807   -2.2928 H   0  0  0  0  0  0  0  0  0  0  0  0
   -1.6200    1.5532   -2.0596 H   0  0  0  0  0  0  0  0  0  0  0  0
    0.0686    1.0580   -3.7402 S   0  0  0  0  0  0  0  0  0  0  0  0
    0.6120    2.8057   -3.5727 C   0  0  0  0  0  0  0  0  0  0  0  0
    1.2633    2.9251   -2.7021 H   0  0  0  0  0  0  0  0  0  0  0  0
    1.1661    3.1113   -4.4653 H   0  0  0  0  0  0  0  0  0  0  0  0
   -0.2547    3.4631   -3.4571 H   0  0  0  0  0  0  0  0  0  0  0  0
    0.7035   -0.2004    1.2825 C   0  0  0  0  0  0  0  0  0  0  0  0
    1.9137   -0.1127    1.4417 O   0  0  0  0  0  0  0  0  0  0  0  0
   -0.1380    0.2839    2.2680 N   0  0  0  0  0  0  0  0  0  0  0  0
   -1.1263    0.0975    2.1348 H   0  0  0  0  0  0  0  0  0  0  0  0
    0.3336    0.6276    3.6036 C   0  0  0  0  0  0  0  0  0  0  0  0
    1.0944    1.4137    3.5520 H   0  0  0  0  0  0  0  0  0  0  0  0
   -0.4965    0.9928    4.2157 H   0  0  0  0  0  0  0  0  0  0  0  0
    0.7674   -0.2507    4.0932 H   0  0  0  0  0  0  0  0  0  0  0  0
  1  2  1  0  0  0  0
  2  3  1  0  0  0  0
  2  4  1  0  0  0  0
  2  5  1  0  0  0  0
  5  6  2  0  0  0  0
  5  7  1  0  0  0  0
  7  8  1  0  0  0  0
  7  9  1  0  0  0  0
  9 10  1  0  0  0  0
  9 11  1  0  0  0  0
  9 22  1  0  0  0  0
 11 12  1  0  0  0  0
 11 13  1  0  0  0  0
 11 14  1  0  0  0  0
 14 15  1  0  0  0  0
 14 16  1  0  0  0  0
 14 17  1  0  0  0  0
 17 18  1  0  0  0  0
 18 19  1  0  0  0  0
 18 20  1  0  0  0  0
 18 21  1  0  0  0  0
 22 23  2  0  0  0  0
 22 24  1  0  0  0  0
 24 25  1  0  0  0  0
 24 26  1  0  0  0  0
 26 27  1  0  0  0  0
 26 28  1  0  0  0  0
 26 29  1  0  0  0  0
M  END
$$$$

  -OEChem-04042216023D

 29 28  0     1  0  0  0  0  0999 V2000
   -2.5965   -4.2268    0.7516 H   0  0  0  0  0  0  0  0  0  0  0  0
   -2.6335   -3.2557    0.2493 C   0  0  0  0  0  0  0  0  0  0  0  0
   -3.4722   -2.6831    0.6523 H   0  0  0  0  0  0  0  0  0  0  0  0
   -2.7914   -3.4201   -0.8194 H   0  0  0  0  0  0  0  0  0  0  0  0
   -1.3346   -2.5043    0.4723 C   0  0  0  0  0  0  0  0  0  0  0  0
   -0.4588   -2.9974    1.1588 O   0  0  0  0  0  0  0  0  0  0  0  0
   -1.1584   -1.2582   -0.0971 N   0  0  0  0  0  0  0  0  0  0  0  0
   -1.8915   -0.9477   -0.7249 H   0  0  0  0  0  0  0  0  0  0  0  0
    0.1276   -0.5293   -0.1078 C   0  0  1  0  0  0  0  0  0  0  0  0
    0.8512   -1.1993   -0.5867 H   0  0  0  0  0  0  0  0  0  0  0  0
    0.1042    0.7687   -0.9532 C   0  0  0  0  0  0  0  0  0  0  0  0
   -0.2091    1.5857   -0.2944 H   0  0  0  0  0  0  0  0  0  0  0  0
    1.1284    0.9955   -1.2655 H   0  0  0  0  0  0  0  0  0  0  0  0
   -0.8433    0.8020   -2.1715 C   0  0  0  0  0  0  0  0  0  0  0  0
   -1.6087    0.0263   -2.1340 H   0  0  0  0  0  0  0  0  0  0  0  0
   -1.3648    1.7644   -2.1919 H   0  0  0  0  0  0  0  0  0  0  0  0
    0.1026    0.6234   -3.7370 S   0  0  0  0  0  0  0  0  0  0  0  0
    0.9627    2.2405   -3.8931 C   0  0  0  0  0  0  0  0  0  0  0  0
    1.6400    2.4016   -3.0497 H   0  0  0  0  0  0  0  0  0  0  0  0
    1.5487    2.2634   -4.8168 H   0  0  0  0  0  0  0  0  0  0  0  0
    0.2346    3.0564   -3.9209 H   0  0  0  0  0  0  0  0  0  0  0  0
    0.7054   -0.2150    1.2913 C   0  0  0  0  0  0  0  0  0  0  0  0
    1.9176   -0.1393    1.4427 O   0  0  0  0  0  0  0  0  0  0  0  0
   -0.1240    0.2781    2.2828 N   0  0  0  0  0  0  0  0  0  0  0  0
   -1.1152    0.1020    2.1568 H   0  0  0  0  0  0  0  0  0  0  0  0
    0.3613    0.6190    3.6143 C   0  0  0  0  0  0  0  0  0  0  0  0
    1.1276    1.3993    3.5558 H   0  0  0  0  0  0  0  0  0  0  0  0
   -0.4607    0.9909    4.2331 H   0  0  0  0  0  0  0  0  0  0  0  0
    0.7928   -0.2621    4.1011 H   0  0  0  0  0  0  0  0  0  0  0  0
  1  2  1  0  0  0  0
  2  3  1  0  0  0  0
  2  4  1  0  0  0  0
  2  5  1  0  0  0  0
  5  6  2  0  0  0  0
  5  7  1  0  0  0  0
  7  8  1  0  0  0  0
  7  9  1  0  0  0  0
  9 10  1  0  0  0  0
  9 11  1  0  0  0  0
  9 22  1  0  0  0  0
 11 12  1  0  0  0  0
 11 13  1  0  0  0  0
 11 14  1  0  0  0  0
 14 15  1  0  0  0  0
 14 16  1  0  0  0  0
 14 17  1  0  0  0  0
 17 18  1  0  0  0  0
 18 19  1  0  0  0  0
 18 20  1  0  0  0  0
 18 21  1  0  0  0  0
 22 23  2  0  0  0  0
 22 24  1  0  0  0  0
 24 25  1  0  0  0  0
 24 26  1  0  0  0  0
 26 27  1  0  0  0  0
 26 28  1  0  0  0  0
 26 29  1  0  0  0  0
M  END
$$$$

  -OEChem-04042216023D

 29 28  0     1  0  0  0  0  0999 V2000
   -2.6171   -4.2102    0.6944 H   0  0  0  0  0  0  0  0  0  0  0  0
   -2.6395   -3.2383    0.1929 C   0  0  0  0  0  0  0  0  0  0  0  0
   -3.5053   -2.6767    0.5519 H   0  0  0  0  0  0  0  0  0  0  0  0
   -2.7386   -3.4020   -0.8829 H   0  0  0  0  0  0  0  0  0  0  0  0
   -1.3636   -2.4720    0.4863 C   0  0  0  0  0  0  0  0  0  0  0  0
   -0.5280   -2.9502    1.2311 O   0  0  0  0  0  0  0  0  0  0  0  0
   -1.1659   -1.2309   -0.0867 N   0  0  0  0  0  0  0  0  0  0  0  0
   -1.8392   -0.9728   -0.7996 H   0  0  0  0  0  0  0  0  0  0  0  0
    0.1348   -0.5289   -0.0893 C   0  0  1  0  0  0  0  0  0  0  0  0
    0.8484   -1.2102   -0.5670 H   0  0  0  0  0  0  0  0  0  0  0  0
    0.1326    0.7730   -0.9290 C   0  0  0  0  0  0  0  0  0  0  0  0
   -0.1755    1.5894   -0.2671 H   0  0  0  0  0  0  0  0  0  0  0  0
    1.1575    0.9940   -1.2424 H   0  0  0  0  0  0  0  0  0  0  0  0
   -0.8173    0.8170   -2.1416 C   0  0  0  0  0  0  0  0  0  0  0  0
   -1.7454    0.2701   -1.9696 H   0  0  0  0  0  0  0  0  0  0  0  0
   -1.1001    1.8586   -2.3248 H   0  0  0  0  0  0  0  0  0  0  0  0
    0.0181    0.1885   -3.6526 S   0  0  0  0  0  0  0  0  0  0  0  0
    1.1677    1.5518   -4.0987 C   0  0  0  0  0  0  0  0  0  0  0  0
    1.9146    1.7009   -3.3139 H   0  0  0  0  0  0  0  0  0  0  0  0
    1.6883    1.3104   -5.0303 H   0  0  0  0  0  0  0  0  0  0  0  0
    0.6139    2.4846   -4.2401 H   0  0  0  0  0  0  0  0  0  0  0  0
    0.7124   -0.2222    1.3121 C   0  0  0  0  0  0  0  0  0  0  0  0
    1.9257   -0.1701    1.4668 O   0  0  0  0  0  0  0  0  0  0  0  0
   -0.1106    0.2909    2.2988 N   0  0  0  0  0  0  0  0  0  0  0  0
   -1.1033    0.1234    2.1719 H   0  0  0  0  0  0  0  0  0  0  0  0
    0.3759    0.6170    3.6336 C   0  0  0  0  0  0  0  0  0  0  0  0
    1.1620    1.3777    3.5809 H   0  0  0  0  0  0  0  0  0  0  0  0
   -0.4396    1.0083    4.2490 H   0  0  0  0  0  0  0  0  0  0  0  0
    0.7822   -0.2758    4.1207 H   0  0  0  0  0  0  0  0  0  0  0  0
  1  2  1  0  0  0  0
  2  3  1  0  0  0  0
  2  4  1  0  0  0  0
  2  5  1  0  0  0  0
  5  6  2  0  0  0  0
  5  7  1  0  0  0  0
  7  8  1  0  0  0  0
  7  9  1  0  0  0  0
  9 10  1  0  0  0  0
  9 11  1  0  0  0  0
  9 22  1  0  0  0  0
 11 12  1  0  0  0  0
 11 13  1  0  0  0  0
 11 14  1  0  0  0  0
 14 15  1  0  0  0  0
 14 16  1  0  0  0  0
 14 17  1  0  0  0  0
 17 18  1  0  0  0  0
 18 19  1  0  0  0  0
 18 20  1  0  0  0  0
 18 21  1  0  0  0  0
 22 23  2  0  0  0  0
 22 24  1  0  0  0  0
 24 25  1  0  0  0  0
 24 26  1  0  0  0  0
 26 27  1  0  0  0  0
 26 28  1  0  0  0  0
 26 29  1  0  0  0  0
M  END
$$$$

  -OEChem-04042216023D

 29 28  0     1  0  0  0  0  0999 V2000
   -2.6372   -4.1619    0.6944 H   0  0  0  0  0  0  0  0  0  0  0  0
   -2.6202   -3.2235    0.1328 C   0  0  0  0  0  0  0  0  0  0  0  0
   -3.5032   -2.6382    0.3999 H   0  0  0  0  0  0  0  0  0  0  0  0
   -2.6509   -3.4528   -0.9352 H   0  0  0  0  0  0  0  0  0  0  0  0
   -1.3608   -2.4435    0.4590 C   0  0  0  0  0  0  0  0  0  0  0  0
   -0.5413   -2.9117    1.2280 O   0  0  0  0  0  0  0  0  0  0  0  0
   -1.1646   -1.1988   -0.1065 N   0  0  0  0  0  0  0  0  0  0  0  0
   -1.8042   -0.9715   -0.8609 H   0  0  0  0  0  0  0  0  0  0  0  0
    0.1385   -0.5021   -0.1047 C   0  0  1  0  0  0  0  0  0  0  0  0
    0.8502   -1.1752   -0.5964 H   0  0  0  0  0  0  0  0  0  0  0  0
    0.1166    0.8116   -0.9234 C   0  0  0  0  0  0  0  0  0  0  0  0
   -0.1846    1.6227   -0.2519 H   0  0  0  0  0  0  0  0  0  0  0  0
    1.1327    1.0414   -1.2563 H   0  0  0  0  0  0  0  0  0  0  0  0
   -0.8566    0.8442   -2.1139 C   0  0  0  0  0  0  0  0  0  0  0  0
   -1.8579    0.5145   -1.8267 H   0  0  0  0  0  0  0  0  0  0  0  0
   -0.9545    1.8810   -2.4523 H   0  0  0  0  0  0  0  0  0  0  0  0
   -0.2294   -0.1550   -3.5239 S   0  0  0  0  0  0  0  0  0  0  0  0
    1.2737    0.7496   -4.0733 C   0  0  0  0  0  0  0  0  0  0  0  0
    2.0605    0.6877   -3.3161 H   0  0  0  0  0  0  0  0  0  0  0  0
    1.6538    0.3114   -5.0009 H   0  0  0  0  0  0  0  0  0  0  0  0
    1.0388    1.8026   -4.2548 H   0  0  0  0  0  0  0  0  0  0  0  0
    0.7229   -0.2063    1.2956 C   0  0  0  0  0  0  0  0  0  0  0  0
    1.9373   -0.1567    1.4428 O   0  0  0  0  0  0  0  0  0  0  0  0
   -0.0942    0.3040    2.2883 N   0  0  0  0  0  0  0  0  0  0  0  0
   -1.0872    0.1335    2.1663 H   0  0  0  0  0  0  0  0  0  0  0  0
    0.4000    0.6188    3.6228 C   0  0  0  0  0  0  0  0  0  0  0  0
    1.1854    1.3801    3.5717 H   0  0  0  0  0  0  0  0  0  0  0  0
   -0.4121    1.0046    4.2460 H   0  0  0  0  0  0  0  0  0  0  0  0
    0.8095   -0.2779    4.0998 H   0  0  0  0  0  0  0  0  0  0  0  0
  1  2  1  0  0  0  0
  2  3  1  0  0  0  0
  2  4  1  0  0  0  0
  2  5  1  0  0  0  0
  5  6  2  0  0  0  0
  5  7  1  0  0  0  0
  7  8  1  0  0  0  0
  7  9  1  0  0  0  0
  9 10  1  0  0  0  0
  9 11  1  0  0  0  0
  9 22  1  0  0  0  0
 11 12  1  0  0  0  0
 11 13  1  0  0  0  0
 11 14  1  0  0  0  0
 14 15  1  0  0  0  0
 14 16  1  0  0  0  0
 14 17  1  0  0  0  0
 17 18  1  0  0  0  0
 18 19  1  0  0  0  0
 18 20  1  0  0  0  0
 18 21  1  0  0  0  0
 22 23  2  0  0  0  0
 22 24  1  0  0  0  0
 24 25  1  0  0  0  0
 24 26  1  0  0  0  0
 26 27  1  0  0  0  0
 26 28  1  0  0  0  0
 26 29  1  0  0  0  0
M  END
$$$$

  -OEChem-04042216023D

 29 28  0     1  0  0  0  0  0999 V2000
   -2.6246   -4.1466    0.6143 H   0  0  0  0  0  0  0  0  0  0  0  0
   -2.5984   -3.2063    0.0564 C   0  0  0  0  0  0  0  0  0  0  0  0
   -3.4921   -2.6274    0.3015 H   0  0  0  0  0  0  0  0  0  0  0  0
   -2.5993   -3.4323   -1.0127 H   0  0  0  0  0  0  0  0  0  0  0  0
   -1.3533   -2.4189    0.4183 C   0  0  0  0  0  0  0  0  0  0  0  0
   -0.5485   -2.8859    1.2035 O   0  0  0  0  0  0  0  0  0  0  0  0
   -1.1532   -1.1696   -0.1349 N   0  0  0  0  0  0  0  0  0  0  0  0
   -1.7685   -0.9540   -0.9140 H   0  0  0  0  0  0  0  0  0  0  0  0
    0.1531   -0.4795   -0.1258 C   0  0  1  0  0  0  0  0  0  0  0  0
    0.8634   -1.1449   -0.6300 H   0  0  0  0  0  0  0  0  0  0  0  0
    0.1093    0.8458   -0.9238 C   0  0  0  0  0  0  0  0  0  0  0  0
   -0.1756    1.6552   -0.2432 H   0  0  0  0  0  0  0  0  0  0  0  0
    1.1174    1.0756   -1.2818 H   0  0  0  0  0  0  0  0  0  0  0  0
   -0.8827    0.8761   -2.0973 C   0  0  0  0  0  0  0  0  0  0  0  0
   -1.9083    0.7630   -1.7334 H   0  0  0  0  0  0  0  0  0  0  0  0
   -0.8226    1.8563   -2.5814 H   0  0  0  0  0  0  0  0  0  0  0  0
   -0.5192   -0.4197   -3.3528 S   0  0  0  0  0  0  0  0  0  0  0  0
    1.2040   -0.0548   -3.8784 C   0  0  0  0  0  0  0  0  0  0  0  0
    1.9050   -0.2503   -3.0617 H   0  0  0  0  0  0  0  0  0  0  0  0
    1.4779   -0.6884   -4.7272 H   0  0  0  0  0  0  0  0  0  0  0  0
    1.2957    0.9926   -4.1807 H   0  0  0  0  0  0  0  0  0  0  0  0
    0.7434   -0.1985    1.2745 C   0  0  0  0  0  0  0  0  0  0  0  0
    1.9588   -0.1541    1.4168 O   0  0  0  0  0  0  0  0  0  0  0  0
   -0.0694    0.3072    2.2727 N   0  0  0  0  0  0  0  0  0  0  0  0
   -1.0628    0.1367    2.1531 H   0  0  0  0  0  0  0  0  0  0  0  0
    0.4281    0.6198    3.6062 C   0  0  0  0  0  0  0  0  0  0  0  0
    1.2181    1.3765    3.5537 H   0  0  0  0  0  0  0  0  0  0  0  0
   -0.3815    1.0111    4.2293 H   0  0  0  0  0  0  0  0  0  0  0  0
    0.8325   -0.2790    4.0837 H   0  0  0  0  0  0  0  0  0  0  0  0
  1  2  1  0  0  0  0
  2  3  1  0  0  0  0
  2  4  1  0  0  0  0
  2  5  1  0  0  0  0
  5  6  2  0  0  0  0
  5  7  1  0  0  0  0
  7  8  1  0  0  0  0
  7  9  1  0  0  0  0
  9 10  1  0  0  0  0
  9 11  1  0  0  0  0
  9 22  1  0  0  0  0
 11 12  1  0  0  0  0
 11 13  1  0  0  0  0
 11 14  1  0  0  0  0
 14 15  1  0  0  0  0
 14 16  1  0  0  0  0
 14 17  1  0  0  0  0
 17 18  1  0  0  0  0
 18 19  1  0  0  0  0
 18 20  1  0  0  0  0
 18 21  1  0  0  0  0
 22 23  2  0  0  0  0
 22 24  1  0  0  0  0
 24 25  1  0  0  0  0
 24 26  1  0  0  0  0
 26 27  1  0  0  0  0
 26 28  1  0  0  0  0
 26 29  1  0  0  0  0
M  END
$$$$

  -OEChem-04042216023D

 29 28  0     1  0  0  0  0  0999 V2000
   -2.6140   -4.1666    0.5664 H   0  0  0  0  0  0  0  0  0  0  0  0
   -2.6030   -3.2008    0.0533 C   0  0  0  0  0  0  0  0  0  0  0  0
   -3.5005   -2.6438    0.3322 H   0  0  0  0  0  0  0  0  0  0  0  0
   -2.6108   -3.3760   -1.0255 H   0  0  0  0  0  0  0  0  0  0  0  0
   -1.3634   -2.4176    0.4415 C   0  0  0  0  0  0  0  0  0  0  0  0
   -0.5799   -2.8840    1.2488 O   0  0  0  0  0  0  0  0  0  0  0  0
   -1.1381   -1.1775   -0.1218 N   0  0  0  0  0  0  0  0  0  0  0  0
   -1.7299   -0.9670   -0.9218 H   0  0  0  0  0  0  0  0  0  0  0  0
    0.1753   -0.5032   -0.0964 C   0  0  1  0  0  0  0  0  0  0  0  0
    0.8865   -1.1844   -0.5764 H   0  0  0  0  0  0  0  0  0  0  0  0
    0.1575    0.8107   -0.9155 C   0  0  0  0  0  0  0  0  0  0  0  0
   -0.1077    1.6412   -0.2527 H   0  0  0  0  0  0  0  0  0  0  0  0
    1.1766    0.9997   -1.2682 H   0  0  0  0  0  0  0  0  0  0  0  0
   -0.8034    0.8636   -2.1181 C   0  0  0  0  0  0  0  0  0  0  0  0
   -1.8253    1.0054   -1.7522 H   0  0  0  0  0  0  0  0  0  0  0  0
   -0.5564    1.7346   -2.7338 H   0  0  0  0  0  0  0  0  0  0  0  0
   -0.7632   -0.6495   -3.1696 S   0  0  0  0  0  0  0  0  0  0  0  0
    0.9788   -0.6881   -3.7537 C   0  0  0  0  0  0  0  0  0  0  0  0
    1.6650   -0.8140   -2.9113 H   0  0  0  0  0  0  0  0  0  0  0  0
    1.1233   -1.5231   -4.4457 H   0  0  0  0  0  0  0  0  0  0  0  0
    1.2257    0.2427   -4.2729 H   0  0  0  0  0  0  0  0  0  0  0  0
    0.7440   -0.2122    1.3104 C   0  0  0  0  0  0  0  0  0  0  0  0
    1.9572   -0.1839    1.4736 O   0  0  0  0  0  0  0  0  0  0  0  0
   -0.0793    0.3150    2.2885 N   0  0  0  0  0  0  0  0  0  0  0  0
   -1.0727    0.1572    2.1521 H   0  0  0  0  0  0  0  0  0  0  0  0
    0.3982    0.6271    3.6294 C   0  0  0  0  0  0  0  0  0  0  0  0
    1.2052    1.3662    3.5872 H   0  0  0  0  0  0  0  0  0  0  0  0
   -0.4150    1.0406    4.2333 H   0  0  0  0  0  0  0  0  0  0  0  0
    0.7732   -0.2768    4.1212 H   0  0  0  0  0  0  0  0  0  0  0  0
  1  2  1  0  0  0  0
  2  3  1  0  0  0  0
  2  4  1  0  0  0  0
  2  5  1  0  0  0  0
  5  6  2  0  0  0  0
  5  7  1  0  0  0  0
  7  8  1  0  0  0  0
  7  9  1  0  0  0  0
  9 10  1  0  0  0  0
  9 11  1  0  0  0  0
  9 22  1  0  0  0  0
 11 12  1  0  0  0  0
 11 13  1  0  0  0  0
 11 14  1  0  0  0  0
 14 15  1  0  0  0  0
 14 16  1  0  0  0  0
 14 17  1  0  0  0  0
 17 18  1  0  0  0  0
 18 19  1  0  0  0  0
 18 20  1  0  0  0  0
 18 21  1  0  0  0  0
 22 23  2  0  0  0  0
 22 24  1  0  0  0  0
 24 25  1  0  0  0  0
 24 26  1  0  0  0  0
 26 27  1  0  0  0  0
 26 28  1  0  0  0  0
 26 29  1  0  0  0  0
M  END
$$$$

  -OEChem-04042216023D

 29 28  0     1  0  0  0  0  0999 V2000
   -2.6034   -4.1956    0.6242 H   0  0  0  0  0  0  0  0  0  0  0  0
   -2.6047   -3.2170    0.1359 C   0  0  0  0  0  0  0  0  0  0  0  0
   -3.4899   -2.6633    0.4574 H   0  0  0  0  0  0  0  0  0  0  0  0
   -2.6478   -3.3647   -0.9461 H   0  0  0  0  0  0  0  0  0  0  0  0
   -1.3503   -2.4481    0.5046 C   0  0  0  0  0  0  0  0  0  0  0  0
   -0.5688   -2.9142    1.3142 O   0  0  0  0  0  0  0  0  0  0  0  0
   -1.1078   -1.2214   -0.0799 N   0  0  0  0  0  0  0  0  0  0  0  0
   -1.7012   -1.0067   -0.8786 H   0  0  0  0  0  0  0  0  0  0  0  0
    0.2017   -0.5435   -0.0439 C   0  0  1  0  0  0  0  0  0  0  0  0
    0.9230   -1.2395   -0.4851 H   0  0  0  0  0  0  0  0  0  0  0  0
    0.2184    0.7495   -0.8992 C   0  0  0  0  0  0  0  0  0  0  0  0
   -0.0405    1.5990   -0.2577 H   0  0  0  0  0  0  0  0  0  0  0  0
    1.2543    0.9033   -1.2196 H   0  0  0  0  0  0  0  0  0  0  0  0
   -0.6839    0.8414   -2.1521 C   0  0  0  0  0  0  0  0  0  0  0  0
   -1.6476    1.2579   -1.8415 H   0  0  0  0  0  0  0  0  0  0  0  0
   -0.2401    1.5518   -2.8573 H   0  0  0  0  0  0  0  0  0  0  0  0
   -1.0344   -0.7418   -3.0322 S   0  0  0  0  0  0  0  0  0  0  0  0
    0.6262   -1.2035   -3.6689 C   0  0  0  0  0  0  0  0  0  0  0  0
    1.3302   -1.3424   -2.8436 H   0  0  0  0  0  0  0  0  0  0  0  0
    0.5640   -2.1383   -4.2343 H   0  0  0  0  0  0  0  0  0  0  0  0
    1.0099   -0.4204   -4.3297 H   0  0  0  0  0  0  0  0  0  0  0  0
    0.7328   -0.2217    1.3709 C   0  0  0  0  0  0  0  0  0  0  0  0
    1.9410   -0.1890    1.5669 O   0  0  0  0  0  0  0  0  0  0  0  0
   -0.1177    0.3233    2.3156 N   0  0  0  0  0  0  0  0  0  0  0  0
   -1.1076    0.1694    2.1507 H   0  0  0  0  0  0  0  0  0  0  0  0
    0.3204    0.6595    3.6642 C   0  0  0  0  0  0  0  0  0  0  0  0
    1.1318    1.3943    3.6329 H   0  0  0  0  0  0  0  0  0  0  0  0
   -0.5088    1.0879    4.2349 H   0  0  0  0  0  0  0  0  0  0  0  0
    0.6759   -0.2359    4.1849 H   0  0  0  0  0  0  0  0  0  0  0  0
  1  2  1  0  0  0  0
  2  3  1  0  0  0  0
  2  4  1  0  0  0  0
  2  5  1  0  0  0  0
  5  6  2  0  0  0  0
  5  7  1  0  0  0  0
  7  8  1  0  0  0  0
  7  9  1  0  0  0  0
  9 10  1  0  0  0  0
  9 11  1  0  0  0  0
  9 22  1  0  0  0  0
 11 12  1  0  0  0  0
 11 13  1  0  0  0  0
 11 14  1  0  0  0  0
 14 15  1  0  0  0  0
 14 16  1  0  0  0  0
 14 17  1  0  0  0  0
 17 18  1  0  0  0  0
 18 19  1  0  0  0  0
 18 20  1  0  0  0  0
 18 21  1  0  0  0  0
 22 23  2  0  0  0  0
 22 24  1  0  0  0  0
 24 25  1  0  0  0  0
 24 26  1  0  0  0  0
 26 27  1  0  0  0  0
 26 28  1  0  0  0  0
 26 29  1  0  0  0  0
M  END
$$$$

  -OEChem-04042216023D

 29 28  0     1  0  0  0  0  0999 V2000
   -2.5886   -4.2213    0.7522 H   0  0  0  0  0  0  0  0  0  0  0  0
   -2.5886   -3.2523    0.2448 C   0  0  0  0  0  0  0  0  0  0  0  0
   -3.4603   -2.6819    0.5741 H   0  0  0  0  0  0  0  0  0  0  0  0
   -2.6569   -3.4194   -0.8331 H   0  0  0  0  0  0  0  0  0  0  0  0
   -1.3176   -2.4917    0.5715 C   0  0  0  0  0  0  0  0  0  0  0  0
   -0.5147   -2.9588    1.3592 O   0  0  0  0  0  0  0  0  0  0  0  0
   -1.0802   -1.2732   -0.0310 N   0  0  0  0  0  0  0  0  0  0  0  0
   -1.7063   -1.0376   -0.7985 H   0  0  0  0  0  0  0  0  0  0  0  0
    0.2155   -0.5730    0.0037 C   0  0  1  0  0  0  0  0  0  0  0  0
    0.9509   -1.2741   -0.4049 H   0  0  0  0  0  0  0  0  0  0  0  0
    0.2564    0.6985   -0.8866 C   0  0  0  0  0  0  0  0  0  0  0  0
   -0.0181    1.5559   -0.2624 H   0  0  0  0  0  0  0  0  0  0  0  0
    1.3051    0.8449   -1.1668 H   0  0  0  0  0  0  0  0  0  0  0  0
   -0.5896    0.8157   -2.1833 C   0  0  0  0  0  0  0  0  0  0  0  0
   -1.4226    1.4925   -1.9669 H   0  0  0  0  0  0  0  0  0  0  0  0
    0.0205    1.3033   -2.9510 H   0  0  0  0  0  0  0  0  0  0  0  0
   -1.3299   -0.7099   -2.9112 S   0  0  0  0  0  0  0  0  0  0  0  0
    0.1568   -1.6086   -3.5093 C   0  0  0  0  0  0  0  0  0  0  0  0
    0.8273   -1.8422   -2.6776 H   0  0  0  0  0  0  0  0  0  0  0  0
   -0.1397   -2.5457   -3.9898 H   0  0  0  0  0  0  0  0  0  0  0  0
    0.7003   -0.9991   -4.2375 H   0  0  0  0  0  0  0  0  0  0  0  0
    0.7206   -0.2174    1.4205 C   0  0  0  0  0  0  0  0  0  0  0  0
    1.9249   -0.1644    1.6346 O   0  0  0  0  0  0  0  0  0  0  0  0
   -0.1517    0.3293    2.3443 N   0  0  0  0  0  0  0  0  0  0  0  0
   -1.1380    0.1693    2.1654 H   0  0  0  0  0  0  0  0  0  0  0  0
    0.2628    0.7087    3.6890 C   0  0  0  0  0  0  0  0  0  0  0  0
    1.0599    1.4585    3.6480 H   0  0  0  0  0  0  0  0  0  0  0  0
   -0.5814    1.1354    4.2386 H   0  0  0  0  0  0  0  0  0  0  0  0
    0.6293   -0.1657    4.2372 H   0  0  0  0  0  0  0  0  0  0  0  0
  1  2  1  0  0  0  0
  2  3  1  0  0  0  0
  2  4  1  0  0  0  0
  2  5  1  0  0  0  0
  5  6  2  0  0  0  0
  5  7  1  0  0  0  0
  7  8  1  0  0  0  0
  7  9  1  0  0  0  0
  9 10  1  0  0  0  0
  9 11  1  0  0  0  0
  9 22  1  0  0  0  0
 11 12  1  0  0  0  0
 11 13  1  0  0  0  0
 11 14  1  0  0  0  0
 14 15  1  0  0  0  0
 14 16  1  0  0  0  0
 14 17  1  0  0  0  0
 17 18  1  0  0  0  0
 18 19  1  0  0  0  0
 18 20  1  0  0  0  0
 18 21  1  0  0  0  0
 22 23  2  0  0  0  0
 22 24  1  0  0  0  0
 24 25  1  0  0  0  0
 24 26  1  0  0  0  0
 26 27  1  0  0  0  0
 26 28  1  0  0  0  0
 26 29  1  0  0  0  0
M  END
$$$$

  -OEChem-04042216023D

 29 28  0     1  0  0  0  0  0999 V2000
   -2.5467   -4.2477    0.9000 H   0  0  0  0  0  0  0  0  0  0  0  0
   -2.5651   -3.2808    0.3892 C   0  0  0  0  0  0  0  0  0  0  0  0
   -3.4165   -2.7038    0.7573 H   0  0  0  0  0  0  0  0  0  0  0  0
   -2.6862   -3.4520   -0.6832 H   0  0  0  0  0  0  0  0  0  0  0  0
   -1.2753   -2.5272    0.6519 C   0  0  0  0  0  0  0  0  0  0  0  0
   -0.4385   -2.9952    1.4029 O   0  0  0  0  0  0  0  0  0  0  0  0
   -1.0541   -1.3165    0.0284 N   0  0  0  0  0  0  0  0  0  0  0  0
   -1.7276   -1.0546   -0.6885 H   0  0  0  0  0  0  0  0  0  0  0  0
    0.2255   -0.5893    0.0473 C   0  0  1  0  0  0  0  0  0  0  0  0
    0.9723   -1.2917   -0.3386 H   0  0  0  0  0  0  0  0  0  0  0  0
    0.2759    0.6573   -0.8796 C   0  0  0  0  0  0  0  0  0  0  0  0
   -0.0388    1.5135   -0.2731 H   0  0  0  0  0  0  0  0  0  0  0  0
    1.3305    0.8274   -1.1228 H   0  0  0  0  0  0  0  0  0  0  0  0
   -0.5330    0.7682   -2.2047 C   0  0  0  0  0  0  0  0  0  0  0  0
   -1.1689    1.6562   -2.1243 H   0  0  0  0  0  0  0  0  0  0  0  0
    0.1781    0.9681   -3.0128 H   0  0  0  0  0  0  0  0  0  0  0  0
   -1.6205   -0.6154   -2.7601 S   0  0  0  0  0  0  0  0  0  0  0  0
   -0.3931   -1.8628   -3.3222 C   0  0  0  0  0  0  0  0  0  0  0  0
    0.2553   -2.1659   -2.4953 H   0  0  0  0  0  0  0  0  0  0  0  0
   -0.9072   -2.7498   -3.7044 H   0  0  0  0  0  0  0  0  0  0  0  0
    0.2288   -1.4490   -4.1216 H   0  0  0  0  0  0  0  0  0  0  0  0
    0.7173   -0.1982    1.4593 C   0  0  0  0  0  0  0  0  0  0  0  0
    1.9192   -0.1193    1.6792 O   0  0  0  0  0  0  0  0  0  0  0  0
   -0.1698    0.3458    2.3704 N   0  0  0  0  0  0  0  0  0  0  0  0
   -1.1526    0.1711    2.1862 H   0  0  0  0  0  0  0  0  0  0  0  0
    0.2292    0.7517    3.7121 C   0  0  0  0  0  0  0  0  0  0  0  0
    1.0193    1.5087    3.6661 H   0  0  0  0  0  0  0  0  0  0  0  0
   -0.6239    1.1787    4.2478 H   0  0  0  0  0  0  0  0  0  0  0  0
    0.5997   -0.1102    4.2772 H   0  0  0  0  0  0  0  0  0  0  0  0
  1  2  1  0  0  0  0
  2  3  1  0  0  0  0
  2  4  1  0  0  0  0
  2  5  1  0  0  0  0
  5  6  2  0  0  0  0
  5  7  1  0  0  0  0
  7  8  1  0  0  0  0
  7  9  1  0  0  0  0
  9 10  1  0  0  0  0
  9 11  1  0  0  0  0
  9 22  1  0  0  0  0
 11 12  1  0  0  0  0
 11 13  1  0  0  0  0
 11 14  1  0  0  0  0
 14 15  1  0  0  0  0
 14 16  1  0  0  0  0
 14 17  1  0  0  0  0
 17 18  1  0  0  0  0
 18 19  1  0  0  0  0
 18 20  1  0  0  0  0
 18 21  1  0  0  0  0
 22 23  2  0  0  0  0
 22 24  1  0  0  0  0
 24 25  1  0  0  0  0
 24 26  1  0  0  0  0
 26 27  1  0  0  0  0
 26 28  1  0  0  0  0
 26 29  1  0  0  0  0
M  END
$$$$

  -OEChem-04042216023D

 29 28  0     1  0  0  0  0  0999 V2000
   -2.5216   -4.2543    1.0932 H   0  0  0  0  0  0  0  0  0  0  0  0
   -2.5514   -3.2958    0.5672 C   0  0  0  0  0  0  0  0  0  0  0  0
   -3.3773   -2.7012    0.9645 H   0  0  0  0  0  0  0  0  0  0  0  0
   -2.7239   -3.4829   -0.4954 H   0  0  0  0  0  0  0  0  0  0  0  0
   -1.2415   -2.5554    0.7577 C   0  0  0  0  0  0  0  0  0  0  0  0
   -0.3763   -3.0232    1.4757 O   0  0  0  0  0  0  0  0  0  0  0  0
   -1.0338   -1.3570    0.1065 N   0  0  0  0  0  0  0  0  0  0  0  0
   -1.7517   -1.0699   -0.5552 H   0  0  0  0  0  0  0  0  0  0  0  0
    0.2344   -0.6116    0.1024 C   0  0  1  0  0  0  0  0  0  0  0  0
    0.9870   -1.3185   -0.2644 H   0  0  0  0  0  0  0  0  0  0  0  0
    0.2891    0.6101   -0.8586 C   0  0  0  0  0  0  0  0  0  0  0  0
   -0.0622    1.4657   -0.2716 H   0  0  0  0  0  0  0  0  0  0  0  0
    1.3438    0.8046   -1.0821 H   0  0  0  0  0  0  0  0  0  0  0  0
   -0.5026    0.6947   -2.1958 C   0  0  0  0  0  0  0  0  0  0  0  0
   -0.9046    1.7103   -2.2747 H   0  0  0  0  0  0  0  0  0  0  0  0
    0.2213    0.5848   -3.0099 H   0  0  0  0  0  0  0  0  0  0  0  0
   -1.8858   -0.4715   -2.5544 S   0  0  0  0  0  0  0  0  0  0  0  0
   -0.9773   -1.9352   -3.1964 C   0  0  0  0  0  0  0  0  0  0  0  0
   -0.2566   -2.2962   -2.4568 H   0  0  0  0  0  0  0  0  0  0  0  0
   -1.6788   -2.7433   -3.4244 H   0  0  0  0  0  0  0  0  0  0  0  0
   -0.4375   -1.6739   -4.1116 H   0  0  0  0  0  0  0  0  0  0  0  0
    0.7207   -0.1819    1.5049 C   0  0  0  0  0  0  0  0  0  0  0  0
    1.9211   -0.0892    1.7268 O   0  0  0  0  0  0  0  0  0  0  0  0
   -0.1737    0.3693    2.4045 N   0  0  0  0  0  0  0  0  0  0  0  0
   -1.1558    0.1959    2.2162 H   0  0  0  0  0  0  0  0  0  0  0  0
    0.2185    0.8082    3.7377 C   0  0  0  0  0  0  0  0  0  0  0  0
    0.9971    1.5759    3.6764 H   0  0  0  0  0  0  0  0  0  0  0  0
   -0.6413    1.2328    4.2647 H   0  0  0  0  0  0  0  0  0  0  0  0
    0.6016   -0.0365    4.3197 H   0  0  0  0  0  0  0  0  0  0  0  0
  1  2  1  0  0  0  0
  2  3  1  0  0  0  0
  2  4  1  0  0  0  0
  2  5  1  0  0  0  0
  5  6  2  0  0  0  0
  5  7  1  0  0  0  0
  7  8  1  0  0  0  0
  7  9  1  0  0  0  0
  9 10  1  0  0  0  0
  9 11  1  0  0  0  0
  9 22  1  0  0  0  0
 11 12  1  0  0  0  0
 11 13  1  0  0  0  0
 11 14  1  0  0  0  0
 14 15  1  0  0  0  0
 14 16  1  0  0  0  0
 14 17  1  0  0  0  0
 17 18  1  0  0  0  0
 18 19  1  0  0  0  0
 18 20  1  0  0  0  0
 18 21  1  0  0  0  0
 22 23  2  0  0  0  0
 22 24  1  0  0  0  0
 24 25  1  0  0  0  0
 24 26  1  0  0  0  0
 26 27  1  0  0  0  0
 26 28  1  0  0  0  0
 26 29  1  0  0  0  0
M  END
$$$$

  -OEChem-04042216023D

 29 28  0     1  0  0  0  0  0999 V2000
   -2.5029   -4.2560    1.2518 H   0  0  0  0  0  0  0  0  0  0  0  0
   -2.5410   -3.2978    0.7260 C   0  0  0  0  0  0  0  0  0  0  0  0
   -3.3425   -2.6917    1.1548 H   0  0  0  0  0  0  0  0  0  0  0  0
   -2.7587   -3.4842   -0.3284 H   0  0  0  0  0  0  0  0  0  0  0  0
   -1.2147   -2.5746    0.8630 C   0  0  0  0  0  0  0  0  0  0  0  0
   -0.3342   -3.0423    1.5622 O   0  0  0  0  0  0  0  0  0  0  0  0
   -1.0118   -1.3884    0.1891 N   0  0  0  0  0  0  0  0  0  0  0  0
   -1.7599   -1.0774   -0.4261 H   0  0  0  0  0  0  0  0  0  0  0  0
    0.2493   -0.6326    0.1717 C   0  0  1  0  0  0  0  0  0  0  0  0
    1.0075   -1.3418   -0.1785 H   0  0  0  0  0  0  0  0  0  0  0  0
    0.3025    0.5686   -0.8156 C   0  0  0  0  0  0  0  0  0  0  0  0
   -0.0652    1.4325   -0.2515 H   0  0  0  0  0  0  0  0  0  0  0  0
    1.3557    0.7713   -1.0391 H   0  0  0  0  0  0  0  0  0  0  0  0
   -0.4867    0.6069   -2.1531 C   0  0  0  0  0  0  0  0  0  0  0  0
   -0.6643    1.6588   -2.4008 H   0  0  0  0  0  0  0  0  0  0  0  0
    0.1736    0.2104   -2.9311 H   0  0  0  0  0  0  0  0  0  0  0  0
   -2.0956   -0.2816   -2.3086 S   0  0  0  0  0  0  0  0  0  0  0  0
   -1.5720   -1.8483   -3.1158 C   0  0  0  0  0  0  0  0  0  0  0  0
   -0.8166   -2.3584   -2.5103 H   0  0  0  0  0  0  0  0  0  0  0  0
   -2.4313   -2.5141   -3.2388 H   0  0  0  0  0  0  0  0  0  0  0  0
   -1.1476   -1.6419   -4.1031 H   0  0  0  0  0  0  0  0  0  0  0  0
    0.7291   -0.1697    1.5659 C   0  0  0  0  0  0  0  0  0  0  0  0
    1.9282   -0.0600    1.7869 O   0  0  0  0  0  0  0  0  0  0  0  0
   -0.1706    0.3926    2.4534 N   0  0  0  0  0  0  0  0  0  0  0  0
   -1.1528    0.2210    2.2641 H   0  0  0  0  0  0  0  0  0  0  0  0
    0.2182    0.8855    3.7686 C   0  0  0  0  0  0  0  0  0  0  0  0
    0.9790    1.6679    3.6756 H   0  0  0  0  0  0  0  0  0  0  0  0
   -0.6481    1.3089    4.2857 H   0  0  0  0  0  0  0  0  0  0  0  0
    0.6236    0.0705    4.3775 H   0  0  0  0  0  0  0  0  0  0  0  0
  1  2  1  0  0  0  0
  2  3  1  0  0  0  0
  2  4  1  0  0  0  0
  2  5  1  0  0  0  0
  5  6  2  0  0  0  0
  5  7  1  0  0  0  0
  7  8  1  0  0  0  0
  7  9  1  0  0  0  0
  9 10  1  0  0  0  0
  9 11  1  0  0  0  0
  9 22  1  0  0  0  0
 11 12  1  0  0  0  0
 11 13  1  0  0  0  0
 11 14  1  0  0  0  0
 14 15  1  0  0  0  0
 14 16  1  0  0  0  0
 14 17  1  0  0  0  0
 17 18  1  0  0  0  0
 18 19  1  0  0  0  0
 18 20  1  0  0  0  0
 18 21  1  0  0  0  0
 22 23  2  0  0  0  0
 22 24  1  0  0  0  0
 24 25  1  0  0  0  0
 24 26  1  0  0  0  0
 26 27  1  0  0  0  0
 26 28  1  0  0  0  0
 26 29  1  0  0  0  0
M  END
$$$$

  -OEChem-04042216023D

 29 28  0     1  0  0  0  0  0999 V2000
   -2.2323   -4.2322    2.2744 H   0  0  0  0  0  0  0  0  0  0  0  0
   -2.2750   -3.4780    1.4836 C   0  0  0  0  0  0  0  0  0  0  0  0
   -3.1311   -2.8243    1.6665 H   0  0  0  0  0  0  0  0  0  0  0  0
   -2.4091   -3.9822    0.5236 H   0  0  0  0  0  0  0  0  0  0  0  0
   -0.9938   -2.6655    1.4666 C   0  0  0  0  0  0  0  0  0  0  0  0
   -0.1002   -2.9204    2.2541 O   0  0  0  0  0  0  0  0  0  0  0  0
   -0.8508   -1.6369    0.5584 N   0  0  0  0  0  0  0  0  0  0  0  0
   -1.6022   -1.5191   -0.1164 H   0  0  0  0  0  0  0  0  0  0  0  0
    0.3753   -0.8467    0.3662 C   0  0  1  0  0  0  0  0  0  0  0  0
    1.1646   -1.5756    0.1515 H   0  0  0  0  0  0  0  0  0  0  0  0
    0.3573    0.1392   -0.8367 C   0  0  0  0  0  0  0  0  0  0  0  0
   -0.0295    1.0904   -0.4557 H   0  0  0  0  0  0  0  0  0  0  0  0
    1.3955    0.3207   -1.1351 H   0  0  0  0  0  0  0  0  0  0  0  0
   -0.4663   -0.1512   -2.1156 C   0  0  0  0  0  0  0  0  0  0  0  0
   -0.4836    0.7606   -2.7213 H   0  0  0  0  0  0  0  0  0  0  0  0
    0.0771   -0.9093   -2.6888 H   0  0  0  0  0  0  0  0  0  0  0  0
   -2.1989   -0.7521   -1.9239 S   0  0  0  0  0  0  0  0  0  0  0  0
   -2.7172   -0.9076   -3.6785 C   0  0  0  0  0  0  0  0  0  0  0  0
   -2.6629    0.0648   -4.1775 H   0  0  0  0  0  0  0  0  0  0  0  0
   -3.7470   -1.2728   -3.7359 H   0  0  0  0  0  0  0  0  0  0  0  0
   -2.0666   -1.6114   -4.2065 H   0  0  0  0  0  0  0  0  0  0  0  0
    0.8376   -0.0868    1.6302 C   0  0  0  0  0  0  0  0  0  0  0  0
    2.0303    0.1239    1.8094 O   0  0  0  0  0  0  0  0  0  0  0  0
   -0.0876    0.6036    2.3918 N   0  0  0  0  0  0  0  0  0  0  0  0
   -1.0594    0.3460    2.2521 H   0  0  0  0  0  0  0  0  0  0  0  0
    0.2756    1.3660    3.5792 C   0  0  0  0  0  0  0  0  0  0  0  0
    0.9760    2.1673    3.3213 H   0  0  0  0  0  0  0  0  0  0  0  0
   -0.6152    1.8183    4.0254 H   0  0  0  0  0  0  0  0  0  0  0  0
    0.7445    0.7134    4.3233 H   0  0  0  0  0  0  0  0  0  0  0  0
  1  2  1  0  0  0  0
  2  3  1  0  0  0  0
  2  4  1  0  0  0  0
  2  5  1  0  0  0  0
  5  6  2  0  0  0  0
  5  7  1  0  0  0  0
  7  8  1  0  0  0  0
  7  9  1  0  0  0  0
  9 10  1  0  0  0  0
  9 11  1  0  0  0  0
  9 22  1  0  0  0  0
 11 12  1  0  0  0  0
 11 13  1  0  0  0  0
 11 14  1  0  0  0  0
 14 15  1  0  0  0  0
 14 16  1  0  0  0  0
 14 17  1  0  0  0  0
 17 18  1  0  0  0  0
 18 19  1  0  0  0  0
 18 20  1  0  0  0  0
 18 21  1  0  0  0  0
 22 23  2  0  0  0  0
 22 24  1  0  0  0  0
 24 25  1  0  0  0  0
 24 26  1  0  0  0  0
 26 27  1  0  0  0  0
 26 28  1  0  0  0  0
 26 29  1  0  0  0  0
M  END
$$$$

  -OEChem-04042216023D

 29 28  0     1  0  0  0  0  0999 V2000
   -1.5928   -4.6280    1.4694 H   0  0  0  0  0  0  0  0  0  0  0  0
   -1.8494   -3.7102    0.9328 C   0  0  0  0  0  0  0  0  0  0  0  0
   -2.6527   -3.2014    1.4707 H   0  0  0  0  0  0  0  0  0  0  0  0
   -2.1995   -3.9733   -0.0682 H   0  0  0  0  0  0  0  0  0  0  0  0
   -0.6354   -2.8065    0.8346 C   0  0  0  0  0  0  0  0  0  0  0  0
    0.4434   -3.1854    1.2536 O   0  0  0  0  0  0  0  0  0  0  0  0
   -0.7617   -1.5540    0.2713 N   0  0  0  0  0  0  0  0  0  0  0  0
   -1.6852   -1.2863   -0.0633 H   0  0  0  0  0  0  0  0  0  0  0  0
    0.3388   -0.5894    0.1020 C   0  0  1  0  0  0  0  0  0  0  0  0
    1.1096   -1.1011   -0.4856 H   0  0  0  0  0  0  0  0  0  0  0  0
   -0.0883    0.6640   -0.7014 C   0  0  0  0  0  0  0  0  0  0  0  0
   -0.4354    1.4362   -0.0063 H   0  0  0  0  0  0  0  0  0  0  0  0
    0.8025    1.0605   -1.2001 H   0  0  0  0  0  0  0  0  0  0  0  0
   -1.1925    0.4557   -1.7524 C   0  0  0  0  0  0  0  0  0  0  0  0
   -1.2089    1.3251   -2.4176 H   0  0  0  0  0  0  0  0  0  0  0  0
   -0.9592   -0.4227   -2.3631 H   0  0  0  0  0  0  0  0  0  0  0  0
   -2.8633    0.2725   -0.9957 S   0  0  0  0  0  0  0  0  0  0  0  0
   -3.9223    0.1604   -2.4914 C   0  0  0  0  0  0  0  0  0  0  0  0
   -3.8430    1.0783   -3.0819 H   0  0  0  0  0  0  0  0  0  0  0  0
   -4.9683    0.0212   -2.2018 H   0  0  0  0  0  0  0  0  0  0  0  0
   -3.6152   -0.6858   -3.1133 H   0  0  0  0  0  0  0  0  0  0  0  0
    1.0217   -0.1547    1.4174 C   0  0  0  0  0  0  0  0  0  0  0  0
    2.2114    0.1336    1.4172 O   0  0  0  0  0  0  0  0  0  0  0  0
    0.2510    0.1755    2.5175 N   0  0  0  0  0  0  0  0  0  0  0  0
   -0.7206   -0.1166    2.4925 H   0  0  0  0  0  0  0  0  0  0  0  0
    0.8183    0.6450    3.7751 C   0  0  0  0  0  0  0  0  0  0  0  0
    1.3873    1.5675    3.6186 H   0  0  0  0  0  0  0  0  0  0  0  0
    0.0215    0.8506    4.4963 H   0  0  0  0  0  0  0  0  0  0  0  0
    1.4852   -0.1126    4.2000 H   0  0  0  0  0  0  0  0  0  0  0  0
  1  2  1  0  0  0  0
  2  3  1  0  0  0  0
  2  4  1  0  0  0  0
  2  5  1  0  0  0  0
  5  6  2  0  0  0  0
  5  7  1  0  0  0  0
  7  8  1  0  0  0  0
  7  9  1  0  0  0  0
  9 10  1  0  0  0  0
  9 11  1  0  0  0  0
  9 22  1  0  0  0  0
 11 12  1  0  0  0  0
 11 13  1  0  0  0  0
 11 14  1  0  0  0  0
 14 15  1  0  0  0  0
 14 16  1  0  0  0  0
 14 17  1  0  0  0  0
 17 18  1  0  0  0  0
 18 19  1  0  0  0  0
 18 20  1  0  0  0  0
 18 21  1  0  0  0  0
 22 23  2  0  0  0  0
 22 24  1  0  0  0  0
 24 25  1  0  0  0  0
 24 26  1  0  0  0  0
 26 27  1  0  0  0  0
 26 28  1  0  0  0  0
 26 29  1  0  0  0  0
M  END
$$$$

  -OEChem-04042216023D

 29 28  0     1  0  0  0  0  0999 V2000
   -1.6358   -4.9837    0.5698 H   0  0  0  0  0  0  0  0  0  0  0  0
   -1.8854   -4.0008    0.1599 C   0  0  0  0  0  0  0  0  0  0  0  0
   -2.7628   -3.6135    0.6831 H   0  0  0  0  0  0  0  0  0  0  0  0
   -2.1218   -4.1120   -0.9011 H   0  0  0  0  0  0  0  0  0  0  0  0
   -0.7155   -3.0509    0.3326 C   0  0  0  0  0  0  0  0  0  0  0  0
    0.3112   -3.4361    0.8617 O   0  0  0  0  0  0  0  0  0  0  0  0
   -0.8212   -1.7476   -0.1068 N   0  0  0  0  0  0  0  0  0  0  0  0
   -1.7050   -1.4684   -0.5295 H   0  0  0  0  0  0  0  0  0  0  0  0
    0.2470   -0.7344   -0.0065 C   0  0  1  0  0  0  0  0  0  0  0  0
    1.1185   -1.1419   -0.5314 H   0  0  0  0  0  0  0  0  0  0  0  0
   -0.1560    0.5749   -0.7219 C   0  0  0  0  0  0  0  0  0  0  0  0
   -0.6251    1.2574   -0.0071 H   0  0  0  0  0  0  0  0  0  0  0  0
    0.7620    1.0607   -1.0698 H   0  0  0  0  0  0  0  0  0  0  0  0
   -1.0997    0.3766   -1.9207 C   0  0  0  0  0  0  0  0  0  0  0  0
   -0.9299    1.1805   -2.6443 H   0  0  0  0  0  0  0  0  0  0  0  0
   -0.8794   -0.5655   -2.4338 H   0  0  0  0  0  0  0  0  0  0  0  0
   -2.8642    0.4363   -1.3969 S   0  0  0  0  0  0  0  0  0  0  0  0
   -3.1484    2.2287   -1.1034 C   0  0  0  0  0  0  0  0  0  0  0  0
   -2.9305    2.8007   -2.0102 H   0  0  0  0  0  0  0  0  0  0  0  0
   -4.1923    2.4014   -0.8245 H   0  0  0  0  0  0  0  0  0  0  0  0
   -2.5092    2.5949   -0.2951 H   0  0  0  0  0  0  0  0  0  0  0  0
    0.7141   -0.4280    1.4329 C   0  0  0  0  0  0  0  0  0  0  0  0
    1.8743   -0.0966    1.6378 O   0  0  0  0  0  0  0  0  0  0  0  0
   -0.2234   -0.2479    2.4339 N   0  0  0  0  0  0  0  0  0  0  0  0
   -1.1584   -0.5903    2.2379 H   0  0  0  0  0  0  0  0  0  0  0  0
    0.1384    0.0651    3.8104 C   0  0  0  0  0  0  0  0  0  0  0  0
    0.7096    0.9983    3.8552 H   0  0  0  0  0  0  0  0  0  0  0  0
   -0.7619    0.1842    4.4202 H   0  0  0  0  0  0  0  0  0  0  0  0
    0.7447   -0.7402    4.2382 H   0  0  0  0  0  0  0  0  0  0  0  0
  1  2  1  0  0  0  0
  2  3  1  0  0  0  0
  2  4  1  0  0  0  0
  2  5  1  0  0  0  0
  5  6  2  0  0  0  0
  5  7  1  0  0  0  0
  7  8  1  0  0  0  0
  7  9  1  0  0  0  0
  9 10  1  0  0  0  0
  9 11  1  0  0  0  0
  9 22  1  0  0  0  0
 11 12  1  0  0  0  0
 11 13  1  0  0  0  0
 11 14  1  0  0  0  0
 14 15  1  0  0  0  0
 14 16  1  0  0  0  0
 14 17  1  0  0  0  0
 17 18  1  0  0  0  0
 18 19  1  0  0  0  0
 18 20  1  0  0  0  0
 18 21  1  0  0  0  0
 22 23  2  0  0  0  0
 22 24  1  0  0  0  0
 24 25  1  0  0  0  0
 24 26  1  0  0  0  0
 26 27  1  0  0  0  0
 26 28  1  0  0  0  0
 26 29  1  0  0  0  0
M  END
$$$$

  -OEChem-04042216023D

 29 28  0     1  0  0  0  0  0999 V2000
   -2.4566   -4.3391    0.6576 H   0  0  0  0  0  0  0  0  0  0  0  0
   -2.4845   -3.3685    0.1541 C   0  0  0  0  0  0  0  0  0  0  0  0
   -3.3302   -2.7957    0.5419 H   0  0  0  0  0  0  0  0  0  0  0  0
   -2.6238   -3.5334   -0.9171 H   0  0  0  0  0  0  0  0  0  0  0  0
   -1.1901   -2.6167    0.3993 C   0  0  0  0  0  0  0  0  0  0  0  0
   -0.3205   -3.1089    1.0938 O   0  0  0  0  0  0  0  0  0  0  0  0
   -1.0098   -1.3665   -0.1569 N   0  0  0  0  0  0  0  0  0  0  0  0
   -1.7397   -1.0319   -0.7797 H   0  0  0  0  0  0  0  0  0  0  0  0
    0.2432   -0.5909   -0.0867 C   0  0  1  0  0  0  0  0  0  0  0  0
    1.0237   -1.2262   -0.5207 H   0  0  0  0  0  0  0  0  0  0  0  0
    0.1805    0.6979   -0.9409 C   0  0  0  0  0  0  0  0  0  0  0  0
   -0.1504    1.5373   -0.3206 H   0  0  0  0  0  0  0  0  0  0  0  0
    1.2020    0.9325   -1.2588 H   0  0  0  0  0  0  0  0  0  0  0  0
   -0.7192    0.6255   -2.1900 C   0  0  0  0  0  0  0  0  0  0  0  0
   -0.1850    1.0953   -3.0223 H   0  0  0  0  0  0  0  0  0  0  0  0
   -0.9036   -0.4104   -2.4894 H   0  0  0  0  0  0  0  0  0  0  0  0
   -2.3127    1.5338   -1.9821 S   0  0  0  0  0  0  0  0  0  0  0  0
   -3.0770    1.0235   -0.3897 C   0  0  0  0  0  0  0  0  0  0  0  0
   -2.3813    1.1760    0.4400 H   0  0  0  0  0  0  0  0  0  0  0  0
   -3.9720    1.6247   -0.2027 H   0  0  0  0  0  0  0  0  0  0  0  0
   -3.3729   -0.0281   -0.4241 H   0  0  0  0  0  0  0  0  0  0  0  0
    0.7219   -0.2488    1.3419 C   0  0  0  0  0  0  0  0  0  0  0  0
    1.9199   -0.1385    1.5658 O   0  0  0  0  0  0  0  0  0  0  0  0
   -0.1817    0.2172    2.2802 N   0  0  0  0  0  0  0  0  0  0  0  0
   -1.1579    0.0125    2.0973 H   0  0  0  0  0  0  0  0  0  0  0  0
    0.2130    0.5976    3.6309 C   0  0  0  0  0  0  0  0  0  0  0  0
    0.9378    1.4182    3.6025 H   0  0  0  0  0  0  0  0  0  0  0  0
   -0.6597    0.9298    4.2009 H   0  0  0  0  0  0  0  0  0  0  0  0
    0.6652   -0.2535    4.1511 H   0  0  0  0  0  0  0  0  0  0  0  0
  1  2  1  0  0  0  0
  2  3  1  0  0  0  0
  2  4  1  0  0  0  0
  2  5  1  0  0  0  0
  5  6  2  0  0  0  0
  5  7  1  0  0  0  0
  7  8  1  0  0  0  0
  7  9  1  0  0  0  0
  9 10  1  0  0  0  0
  9 11  1  0  0  0  0
  9 22  1  0  0  0  0
 11 12  1  0  0  0  0
 11 13  1  0  0  0  0
 11 14  1  0  0  0  0
 14 15  1  0  0  0  0
 14 16  1  0  0  0  0
 14 17  1  0  0  0  0
 17 18  1  0  0  0  0
 18 19  1  0  0  0  0
 18 20  1  0  0  0  0
 18 21  1  0  0  0  0
 22 23  2  0  0  0  0
 22 24  1  0  0  0  0
 24 25  1  0  0  0  0
 24 26  1  0  0  0  0
 26 27  1  0  0  0  0
 26 28  1  0  0  0  0
 26 29  1  0  0  0  0
M  END
$$$$

  -OEChem-04042216023D

 29 28  0     1  0  0  0  0  0999 V2000
   -2.5557   -4.2247    0.7323 H   0  0  0  0  0  0  0  0  0  0  0  0
   -2.5770   -3.2436    0.2489 C   0  0  0  0  0  0  0  0  0  0  0  0
   -3.3706   -2.6452    0.7029 H   0  0  0  0  0  0  0  0  0  0  0  0
   -2.7935   -3.3808   -0.8133 H   0  0  0  0  0  0  0  0  0  0  0  0
   -1.2391   -2.5498    0.4204 C   0  0  0  0  0  0  0  0  0  0  0  0
   -0.3503   -3.0892    1.0529 O   0  0  0  0  0  0  0  0  0  0  0  0
   -1.0410   -1.2982   -0.1274 N   0  0  0  0  0  0  0  0  0  0  0  0
   -1.8022   -0.9087   -0.6746 H   0  0  0  0  0  0  0  0  0  0  0  0
    0.2349   -0.5563   -0.0755 C   0  0  1  0  0  0  0  0  0  0  0  0
    0.9886   -1.2107   -0.5284 H   0  0  0  0  0  0  0  0  0  0  0  0
    0.2020    0.7403   -0.9192 C   0  0  0  0  0  0  0  0  0  0  0  0
   -0.1059    1.5705   -0.2752 H   0  0  0  0  0  0  0  0  0  0  0  0
    1.2260    0.9629   -1.2382 H   0  0  0  0  0  0  0  0  0  0  0  0
   -0.7121    0.7221   -2.1633 C   0  0  0  0  0  0  0  0  0  0  0  0
   -0.0938    0.9337   -3.0420 H   0  0  0  0  0  0  0  0  0  0  0  0
   -1.1695   -0.2539   -2.3412 H   0  0  0  0  0  0  0  0  0  0  0  0
   -2.0095    2.0224   -2.0617 S   0  0  0  0  0  0  0  0  0  0  0  0
   -3.0611    1.4876   -0.6534 C   0  0  0  0  0  0  0  0  0  0  0  0
   -2.4721    1.4311    0.2664 H   0  0  0  0  0  0  0  0  0  0  0  0
   -3.8720    2.2067   -0.5024 H   0  0  0  0  0  0  0  0  0  0  0  0
   -3.4997    0.5068   -0.8569 H   0  0  0  0  0  0  0  0  0  0  0  0
    0.7477   -0.2460    1.3488 C   0  0  0  0  0  0  0  0  0  0  0  0
    1.9516   -0.1847    1.5583 O   0  0  0  0  0  0  0  0  0  0  0  0
   -0.1271    0.2314    2.3083 N   0  0  0  0  0  0  0  0  0  0  0  0
   -1.1129    0.0761    2.1295 H   0  0  0  0  0  0  0  0  0  0  0  0
    0.2952    0.5579    3.6646 C   0  0  0  0  0  0  0  0  0  0  0  0
    1.0757    1.3262    3.6500 H   0  0  0  0  0  0  0  0  0  0  0  0
   -0.5513    0.9399    4.2429 H   0  0  0  0  0  0  0  0  0  0  0  0
    0.6871   -0.3326    4.1674 H   0  0  0  0  0  0  0  0  0  0  0  0
  1  2  1  0  0  0  0
  2  3  1  0  0  0  0
  2  4  1  0  0  0  0
  2  5  1  0  0  0  0
  5  6  2  0  0  0  0
  5  7  1  0  0  0  0
  7  8  1  0  0  0  0
  7  9  1  0  0  0  0
  9 10  1  0  0  0  0
  9 11  1  0  0  0  0
  9 22  1  0  0  0  0
 11 12  1  0  0  0  0
 11 13  1  0  0  0  0
 11 14  1  0  0  0  0
 14 15  1  0  0  0  0
 14 16  1  0  0  0  0
 14 17  1  0  0  0  0
 17 18  1  0  0  0  0
 18 19  1  0  0  0  0
 18 20  1  0  0  0  0
 18 21  1  0  0  0  0
 22 23  2  0  0  0  0
 22 24  1  0  0  0  0
 24 25  1  0  0  0  0
 24 26  1  0  0  0  0
 26 27  1  0  0  0  0
 26 28  1  0  0  0  0
 26 29  1  0  0  0  0
M  END
$$$$

  -OEChem-04042216023D

 29 28  0     1  0  0  0  0  0999 V2000
   -2.5605   -4.2223    0.7588 H   0  0  0  0  0  0  0  0  0  0  0  0
   -2.5875   -3.2404    0.2775 C   0  0  0  0  0  0  0  0  0  0  0  0
   -3.3718   -2.6411    0.7458 H   0  0  0  0  0  0  0  0  0  0  0  0
   -2.8220   -3.3751   -0.7811 H   0  0  0  0  0  0  0  0  0  0  0  0
   -1.2451   -2.5500    0.4275 C   0  0  0  0  0  0  0  0  0  0  0  0
   -0.3438   -3.0975    1.0347 O   0  0  0  0  0  0  0  0  0  0  0  0
   -1.0550   -1.2949   -0.1160 N   0  0  0  0  0  0  0  0  0  0  0  0
   -1.8361   -0.8897   -0.6214 H   0  0  0  0  0  0  0  0  0  0  0  0
    0.2215   -0.5523   -0.0742 C   0  0  1  0  0  0  0  0  0  0  0  0
    0.9690   -1.2091   -0.5340 H   0  0  0  0  0  0  0  0  0  0  0  0
    0.2013    0.7483   -0.9141 C   0  0  0  0  0  0  0  0  0  0  0  0
   -0.1174    1.5622   -0.2557 H   0  0  0  0  0  0  0  0  0  0  0  0
    1.2258    0.9858   -1.2203 H   0  0  0  0  0  0  0  0  0  0  0  0
   -0.7095    0.7597   -2.1614 C   0  0  0  0  0  0  0  0  0  0  0  0
   -0.0792    0.6710   -3.0523 H   0  0  0  0  0  0  0  0  0  0  0  0
   -1.4077   -0.0777   -2.1899 H   0  0  0  0  0  0  0  0  0  0  0  0
   -1.6699    2.3249   -2.2600 S   0  0  0  0  0  0  0  0  0  0  0  0
   -2.8928    2.1544   -0.8988 C   0  0  0  0  0  0  0  0  0  0  0  0
   -2.3863    2.0666    0.0666 H   0  0  0  0  0  0  0  0  0  0  0  0
   -3.5423    3.0346   -0.8704 H   0  0  0  0  0  0  0  0  0  0  0  0
   -3.5137    1.2678   -1.0554 H   0  0  0  0  0  0  0  0  0  0  0  0
    0.7465   -0.2516    1.3478 C   0  0  0  0  0  0  0  0  0  0  0  0
    1.9520   -0.1911    1.5483 O   0  0  0  0  0  0  0  0  0  0  0  0
   -0.1203    0.2187    2.3181 N   0  0  0  0  0  0  0  0  0  0  0  0
   -1.1080    0.0673    2.1458 H   0  0  0  0  0  0  0  0  0  0  0  0
    0.3135    0.5354    3.6731 C   0  0  0  0  0  0  0  0  0  0  0  0
    1.0857    1.3117    3.6577 H   0  0  0  0  0  0  0  0  0  0  0  0
   -0.5305    0.9023    4.2648 H   0  0  0  0  0  0  0  0  0  0  0  0
    0.7200   -0.3563    4.1618 H   0  0  0  0  0  0  0  0  0  0  0  0
  1  2  1  0  0  0  0
  2  3  1  0  0  0  0
  2  4  1  0  0  0  0
  2  5  1  0  0  0  0
  5  6  2  0  0  0  0
  5  7  1  0  0  0  0
  7  8  1  0  0  0  0
  7  9  1  0  0  0  0
  9 10  1  0  0  0  0
  9 11  1  0  0  0  0
  9 22  1  0  0  0  0
 11 12  1  0  0  0  0
 11 13  1  0  0  0  0
 11 14  1  0  0  0  0
 14 15  1  0  0  0  0
 14 16  1  0  0  0  0
 14 17  1  0  0  0  0
 17 18  1  0  0  0  0
 18 19  1  0  0  0  0
 18 20  1  0  0  0  0
 18 21  1  0  0  0  0
 22 23  2  0  0  0  0
 22 24  1  0  0  0  0
 24 25  1  0  0  0  0
 24 26  1  0  0  0  0
 26 27  1  0  0  0  0
 26 28  1  0  0  0  0
 26 29  1  0  0  0  0
M  END
$$$$

  -OEChem-04042216023D

 29 28  0     1  0  0  0  0  0999 V2000
   -2.5623   -4.2236    0.7577 H   0  0  0  0  0  0  0  0  0  0  0  0
   -2.5930   -3.2404    0.2792 C   0  0  0  0  0  0  0  0  0  0  0  0
   -3.3772   -2.6441    0.7517 H   0  0  0  0  0  0  0  0  0  0  0  0
   -2.8307   -3.3731   -0.7790 H   0  0  0  0  0  0  0  0  0  0  0  0
   -1.2519   -2.5474    0.4272 C   0  0  0  0  0  0  0  0  0  0  0  0
   -0.3487   -3.0947    1.0318 O   0  0  0  0  0  0  0  0  0  0  0  0
   -1.0648   -1.2911   -0.1149 N   0  0  0  0  0  0  0  0  0  0  0  0
   -1.8473   -0.8885   -0.6193 H   0  0  0  0  0  0  0  0  0  0  0  0
    0.2127   -0.5500   -0.0761 C   0  0  1  0  0  0  0  0  0  0  0  0
    0.9576   -1.2077   -0.5387 H   0  0  0  0  0  0  0  0  0  0  0  0
    0.1999    0.7528   -0.9130 C   0  0  0  0  0  0  0  0  0  0  0  0
   -0.1274    1.5597   -0.2509 H   0  0  0  0  0  0  0  0  0  0  0  0
    1.2240    0.9953   -1.2167 H   0  0  0  0  0  0  0  0  0  0  0  0
   -0.7113    0.7681   -2.1569 C   0  0  0  0  0  0  0  0  0  0  0  0
   -0.1466    0.3928   -3.0168 H   0  0  0  0  0  0  0  0  0  0  0  0
   -1.5894    0.1314   -2.0422 H   0  0  0  0  0  0  0  0  0  0  0  0
   -1.3094    2.4727   -2.4994 S   0  0  0  0  0  0  0  0  0  0  0  0
   -2.5822    2.7500   -1.2027 C   0  0  0  0  0  0  0  0  0  0  0  0
   -2.1341    2.7103   -0.2059 H   0  0  0  0  0  0  0  0  0  0  0  0
   -3.0404    3.7346   -1.3369 H   0  0  0  0  0  0  0  0  0  0  0  0
   -3.3650    1.9891   -1.2692 H   0  0  0  0  0  0  0  0  0  0  0  0
    0.7412   -0.2543    1.3461 C   0  0  0  0  0  0  0  0  0  0  0  0
    1.9471   -0.1963    1.5443 O   0  0  0  0  0  0  0  0  0  0  0  0
   -0.1226    0.2139    2.3202 N   0  0  0  0  0  0  0  0  0  0  0  0
   -1.1110    0.0637    2.1500 H   0  0  0  0  0  0  0  0  0  0  0  0
    0.3148    0.5242    3.6757 C   0  0  0  0  0  0  0  0  0  0  0  0
    1.0841    1.3035    3.6624 H   0  0  0  0  0  0  0  0  0  0  0  0
   -0.5285    0.8844    4.2724 H   0  0  0  0  0  0  0  0  0  0  0  0
    0.7263   -0.3687    4.1581 H   0  0  0  0  0  0  0  0  0  0  0  0
  1  2  1  0  0  0  0
  2  3  1  0  0  0  0
  2  4  1  0  0  0  0
  2  5  1  0  0  0  0
  5  6  2  0  0  0  0
  5  7  1  0  0  0  0
  7  8  1  0  0  0  0
  7  9  1  0  0  0  0
  9 10  1  0  0  0  0
  9 11  1  0  0  0  0
  9 22  1  0  0  0  0
 11 12  1  0  0  0  0
 11 13  1  0  0  0  0
 11 14  1  0  0  0  0
 14 15  1  0  0  0  0
 14 16  1  0  0  0  0
 14 17  1  0  0  0  0
 17 18  1  0  0  0  0
 18 19  1  0  0  0  0
 18 20  1  0  0  0  0
 18 21  1  0  0  0  0
 22 23  2  0  0  0  0
 22 24  1  0  0  0  0
 24 25  1  0  0  0  0
 24 26  1  0  0  0  0
 26 27  1  0  0  0  0
 26 28  1  0  0  0  0
 26 29  1  0  0  0  0
M  END
$$$$

  -OEChem-04042216023D

 29 28  0     1  0  0  0  0  0999 V2000
   -2.5748   -4.2201    0.7325 H   0  0  0  0  0  0  0  0  0  0  0  0
   -2.6013   -3.2370    0.2534 C   0  0  0  0  0  0  0  0  0  0  0  0
   -3.3989   -2.6456    0.7091 H   0  0  0  0  0  0  0  0  0  0  0  0
   -2.8155   -3.3716   -0.8095 H   0  0  0  0  0  0  0  0  0  0  0  0
   -1.2682   -2.5352    0.4305 C   0  0  0  0  0  0  0  0  0  0  0  0
   -0.3795   -3.0708    1.0662 O   0  0  0  0  0  0  0  0  0  0  0  0
   -1.0746   -1.2824   -0.1178 N   0  0  0  0  0  0  0  0  0  0  0  0
   -1.8338   -0.9085   -0.6767 H   0  0  0  0  0  0  0  0  0  0  0  0
    0.2071   -0.5478   -0.0788 C   0  0  1  0  0  0  0  0  0  0  0  0
    0.9509   -1.2078   -0.5400 H   0  0  0  0  0  0  0  0  0  0  0  0
    0.1916    0.7546   -0.9151 C   0  0  0  0  0  0  0  0  0  0  0  0
   -0.1337    1.5666   -0.2584 H   0  0  0  0  0  0  0  0  0  0  0  0
    1.2139    0.9911   -1.2297 H   0  0  0  0  0  0  0  0  0  0  0  0
   -0.7298    0.7498   -2.1474 C   0  0  0  0  0  0  0  0  0  0  0  0
   -0.2820    0.1313   -2.9321 H   0  0  0  0  0  0  0  0  0  0  0  0
   -1.7147    0.3395   -1.9164 H   0  0  0  0  0  0  0  0  0  0  0  0
   -0.9805    2.4618   -2.7676 S   0  0  0  0  0  0  0  0  0  0  0  0
   -2.1358    3.2023   -1.5449 C   0  0  0  0  0  0  0  0  0  0  0  0
   -1.6668    3.2656   -0.5590 H   0  0  0  0  0  0  0  0  0  0  0  0
   -2.4139    4.2125   -1.8606 H   0  0  0  0  0  0  0  0  0  0  0  0
   -3.0445    2.5985   -1.4667 H   0  0  0  0  0  0  0  0  0  0  0  0
    0.7343   -0.2477    1.3430 C   0  0  0  0  0  0  0  0  0  0  0  0
    1.9401   -0.1957    1.5443 O   0  0  0  0  0  0  0  0  0  0  0  0
   -0.1298    0.2301    2.3122 N   0  0  0  0  0  0  0  0  0  0  0  0
   -1.1179    0.0789    2.1404 H   0  0  0  0  0  0  0  0  0  0  0  0
    0.3042    0.5405    3.6687 C   0  0  0  0  0  0  0  0  0  0  0  0
    1.0740    1.3194    3.6575 H   0  0  0  0  0  0  0  0  0  0  0  0
   -0.5408    0.9011    4.2628 H   0  0  0  0  0  0  0  0  0  0  0  0
    0.7137   -0.3526    4.1526 H   0  0  0  0  0  0  0  0  0  0  0  0
  1  2  1  0  0  0  0
  2  3  1  0  0  0  0
  2  4  1  0  0  0  0
  2  5  1  0  0  0  0
  5  6  2  0  0  0  0
  5  7  1  0  0  0  0
  7  8  1  0  0  0  0
  7  9  1  0  0  0  0
  9 10  1  0  0  0  0
  9 11  1  0  0  0  0
  9 22  1  0  0  0  0
 11 12  1  0  0  0  0
 11 13  1  0  0  0  0
 11 14  1  0  0  0  0
 14 15  1  0  0  0  0
 14 16  1  0  0  0  0
 14 17  1  0  0  0  0
 17 18  1  0  0  0  0
 18 19  1  0  0  0  0
 18 20  1  0  0  0  0
 18 21  1  0  0  0  0
 22 23  2  0  0  0  0
 22 24  1  0  0  0  0
 24 25  1  0  0  0  0
 24 26  1  0  0  0  0
 26 27  1  0  0  0  0
 26 28  1  0  0  0  0
 26 29  1  0  0  0  0
M  END
$$$$

  -OEChem-04042216023D

 29 28  0     1  0  0  0  0  0999 V2000
   -2.5619   -4.2485    0.7034 H   0  0  0  0  0  0  0  0  0  0  0  0
   -2.5855   -3.2788    0.1979 C   0  0  0  0  0  0  0  0  0  0  0  0
   -3.4294   -2.7020    0.5837 H   0  0  0  0  0  0  0  0  0  0  0  0
   -2.7241   -3.4449   -0.8731 H   0  0  0  0  0  0  0  0  0  0  0  0
   -1.2882   -2.5315    0.4431 C   0  0  0  0  0  0  0  0  0  0  0  0
   -0.4174   -3.0343    1.1285 O   0  0  0  0  0  0  0  0  0  0  0  0
   -1.1057   -1.2790   -0.1095 N   0  0  0  0  0  0  0  0  0  0  0  0
   -1.8272   -0.9639   -0.7491 H   0  0  0  0  0  0  0  0  0  0  0  0
    0.1732   -0.5369   -0.0761 C   0  0  1  0  0  0  0  0  0  0  0  0
    0.9196   -1.1931   -0.5382 H   0  0  0  0  0  0  0  0  0  0  0  0
    0.1378    0.7657   -0.9164 C   0  0  0  0  0  0  0  0  0  0  0  0
    0.0861    1.6205   -0.2354 H   0  0  0  0  0  0  0  0  0  0  0  0
    1.0811    0.8526   -1.4662 H   0  0  0  0  0  0  0  0  0  0  0  0
   -1.0332    0.8809   -1.9031 C   0  0  0  0  0  0  0  0  0  0  0  0
   -0.9961    0.0491   -2.6144 H   0  0  0  0  0  0  0  0  0  0  0  0
   -1.9885    0.8408   -1.3717 H   0  0  0  0  0  0  0  0  0  0  0  0
   -0.9499    2.4659   -2.8297 S   0  0  0  0  0  0  0  0  0  0  0  0
   -1.3222    3.7381   -1.5568 C   0  0  0  0  0  0  0  0  0  0  0  0
   -0.5246    3.7807   -0.8097 H   0  0  0  0  0  0  0  0  0  0  0  0
   -1.4064    4.7220   -2.0278 H   0  0  0  0  0  0  0  0  0  0  0  0
   -2.2666    3.5087   -1.0548 H   0  0  0  0  0  0  0  0  0  0  0  0
    0.7070   -0.2288    1.3419 C   0  0  0  0  0  0  0  0  0  0  0  0
    1.9138   -0.1557    1.5305 O   0  0  0  0  0  0  0  0  0  0  0  0
   -0.1536    0.2479    2.3144 N   0  0  0  0  0  0  0  0  0  0  0  0
   -1.1411    0.0790    2.1549 H   0  0  0  0  0  0  0  0  0  0  0  0
    0.2910    0.5859    3.6609 C   0  0  0  0  0  0  0  0  0  0  0  0
    1.0506    1.3743    3.6278 H   0  0  0  0  0  0  0  0  0  0  0  0
   -0.5516    0.9457    4.2587 H   0  0  0  0  0  0  0  0  0  0  0  0
    0.7177   -0.2936    4.1548 H   0  0  0  0  0  0  0  0  0  0  0  0
  1  2  1  0  0  0  0
  2  3  1  0  0  0  0
  2  4  1  0  0  0  0
  2  5  1  0  0  0  0
  5  6  2  0  0  0  0
  5  7  1  0  0  0  0
  7  8  1  0  0  0  0
  7  9  1  0  0  0  0
  9 10  1  0  0  0  0
  9 11  1  0  0  0  0
  9 22  1  0  0  0  0
 11 12  1  0  0  0  0
 11 13  1  0  0  0  0
 11 14  1  0  0  0  0
 14 15  1  0  0  0  0
 14 16  1  0  0  0  0
 14 17  1  0  0  0  0
 17 18  1  0  0  0  0
 18 19  1  0  0  0  0
 18 20  1  0  0  0  0
 18 21  1  0  0  0  0
 22 23  2  0  0  0  0
 22 24  1  0  0  0  0
 24 25  1  0  0  0  0
 24 26  1  0  0  0  0
 26 27  1  0  0  0  0
 26 28  1  0  0  0  0
 26 29  1  0  0  0  0
M  END
$$$$

  -OEChem-04042216023D

 29 28  0     1  0  0  0  0  0999 V2000
   -2.5179   -4.2728    0.7212 H   0  0  0  0  0  0  0  0  0  0  0  0
   -2.5615   -3.3069    0.2096 C   0  0  0  0  0  0  0  0  0  0  0  0
   -3.4114   -2.7413    0.5989 H   0  0  0  0  0  0  0  0  0  0  0  0
   -2.7073   -3.4833   -0.8589 H   0  0  0  0  0  0  0  0  0  0  0  0
   -1.2742   -2.5369    0.4386 C   0  0  0  0  0  0  0  0  0  0  0  0
   -0.3862   -3.0241    1.1132 O   0  0  0  0  0  0  0  0  0  0  0  0
   -1.1209   -1.2803   -0.1138 N   0  0  0  0  0  0  0  0  0  0  0  0
   -1.8628   -0.9687   -0.7316 H   0  0  0  0  0  0  0  0  0  0  0  0
    0.1421   -0.5105   -0.0913 C   0  0  1  0  0  0  0  0  0  0  0  0
    0.8990   -1.1489   -0.5615 H   0  0  0  0  0  0  0  0  0  0  0  0
    0.0661    0.7913   -0.9292 C   0  0  0  0  0  0  0  0  0  0  0  0
    0.0104    1.6527   -0.2558 H   0  0  0  0  0  0  0  0  0  0  0  0
    1.0008    0.8856   -1.4925 H   0  0  0  0  0  0  0  0  0  0  0  0
   -1.1183    0.8782   -1.9032 C   0  0  0  0  0  0  0  0  0  0  0  0
   -1.2114   -0.0610   -2.4582 H   0  0  0  0  0  0  0  0  0  0  0  0
   -2.0492    1.0511   -1.3539 H   0  0  0  0  0  0  0  0  0  0  0  0
   -0.8612    2.2245   -3.1276 S   0  0  0  0  0  0  0  0  0  0  0  0
   -0.7684    3.7389   -2.0907 C   0  0  0  0  0  0  0  0  0  0  0  0
    0.1289    3.7208   -1.4652 H   0  0  0  0  0  0  0  0  0  0  0  0
   -0.7271    4.6265   -2.7289 H   0  0  0  0  0  0  0  0  0  0  0  0
   -1.6487    3.8126   -1.4455 H   0  0  0  0  0  0  0  0  0  0  0  0
    0.6837   -0.1905    1.3209 C   0  0  0  0  0  0  0  0  0  0  0  0
    1.8903   -0.0819    1.4948 O   0  0  0  0  0  0  0  0  0  0  0  0
   -0.1777    0.2676    2.3017 N   0  0  0  0  0  0  0  0  0  0  0  0
   -1.1622    0.0707    2.1555 H   0  0  0  0  0  0  0  0  0  0  0  0
    0.2743    0.6227    3.6413 C   0  0  0  0  0  0  0  0  0  0  0  0
    1.0088    1.4338    3.5963 H   0  0  0  0  0  0  0  0  0  0  0  0
   -0.5708    0.9582    4.2498 H   0  0  0  0  0  0  0  0  0  0  0  0
    0.7343   -0.2421    4.1311 H   0  0  0  0  0  0  0  0  0  0  0  0
  1  2  1  0  0  0  0
  2  3  1  0  0  0  0
  2  4  1  0  0  0  0
  2  5  1  0  0  0  0
  5  6  2  0  0  0  0
  5  7  1  0  0  0  0
  7  8  1  0  0  0  0
  7  9  1  0  0  0  0
  9 10  1  0  0  0  0
  9 11  1  0  0  0  0
  9 22  1  0  0  0  0
 11 12  1  0  0  0  0
 11 13  1  0  0  0  0
 11 14  1  0  0  0  0
 14 15  1  0  0  0  0
 14 16  1  0  0  0  0
 14 17  1  0  0  0  0
 17 18  1  0  0  0  0
 18 19  1  0  0  0  0
 18 20  1  0  0  0  0
 18 21  1  0  0  0  0
 22 23  2  0  0  0  0
 22 24  1  0  0  0  0
 24 25  1  0  0  0  0
 24 26  1  0  0  0  0
 26 27  1  0  0  0  0
 26 28  1  0  0  0  0
 26 29  1  0  0  0  0
M  END
$$$$

  -OEChem-04042216023D

 29 28  0     1  0  0  0  0  0999 V2000
   -2.4925   -4.2822    0.7470 H   0  0  0  0  0  0  0  0  0  0  0  0
   -2.5572   -3.3129    0.2444 C   0  0  0  0  0  0  0  0  0  0  0  0
   -3.4008   -2.7571    0.6605 H   0  0  0  0  0  0  0  0  0  0  0  0
   -2.7293   -3.4815   -0.8215 H   0  0  0  0  0  0  0  0  0  0  0  0
   -1.2702   -2.5349    0.4454 C   0  0  0  0  0  0  0  0  0  0  0  0
   -0.3641   -3.0164    1.0998 O   0  0  0  0  0  0  0  0  0  0  0  0
   -1.1364   -1.2777   -0.1103 N   0  0  0  0  0  0  0  0  0  0  0  0
   -1.8995   -0.9614   -0.6992 H   0  0  0  0  0  0  0  0  0  0  0  0
    0.1198   -0.4972   -0.1070 C   0  0  1  0  0  0  0  0  0  0  0  0
    0.8735   -1.1339   -0.5847 H   0  0  0  0  0  0  0  0  0  0  0  0
    0.0342    0.8031   -0.9474 C   0  0  0  0  0  0  0  0  0  0  0  0
   -0.0054    1.6719   -0.2817 H   0  0  0  0  0  0  0  0  0  0  0  0
    0.9677    0.8816   -1.5153 H   0  0  0  0  0  0  0  0  0  0  0  0
   -1.1529    0.9049   -1.9206 C   0  0  0  0  0  0  0  0  0  0  0  0
   -1.4152   -0.0838   -2.3078 H   0  0  0  0  0  0  0  0  0  0  0  0
   -2.0283    1.3199   -1.4108 H   0  0  0  0  0  0  0  0  0  0  0  0
   -0.7091    1.9287   -3.3807 S   0  0  0  0  0  0  0  0  0  0  0  0
   -0.3153    3.5622   -2.6366 C   0  0  0  0  0  0  0  0  0  0  0  0
    0.5567    3.4849   -1.9806 H   0  0  0  0  0  0  0  0  0  0  0  0
   -0.0931    4.2879   -3.4247 H   0  0  0  0  0  0  0  0  0  0  0  0
   -1.1652    3.9286   -2.0534 H   0  0  0  0  0  0  0  0  0  0  0  0
    0.6771   -0.1724    1.2979 C   0  0  0  0  0  0  0  0  0  0  0  0
    1.8847   -0.0540    1.4568 O   0  0  0  0  0  0  0  0  0  0  0  0
   -0.1759    0.2783    2.2894 N   0  0  0  0  0  0  0  0  0  0  0  0
   -1.1599    0.0713    2.1556 H   0  0  0  0  0  0  0  0  0  0  0  0
    0.2889    0.6308    3.6253 C   0  0  0  0  0  0  0  0  0  0  0  0
    1.0201    1.4447    3.5750 H   0  0  0  0  0  0  0  0  0  0  0  0
   -0.5511    0.9613    4.2437 H   0  0  0  0  0  0  0  0  0  0  0  0
    0.7571   -0.2339    4.1077 H   0  0  0  0  0  0  0  0  0  0  0  0
  1  2  1  0  0  0  0
  2  3  1  0  0  0  0
  2  4  1  0  0  0  0
  2  5  1  0  0  0  0
  5  6  2  0  0  0  0
  5  7  1  0  0  0  0
  7  8  1  0  0  0  0
  7  9  1  0  0  0  0
  9 10  1  0  0  0  0
  9 11  1  0  0  0  0
  9 22  1  0  0  0  0
 11 12  1  0  0  0  0
 11 13  1  0  0  0  0
 11 14  1  0  0  0  0
 14 15  1  0  0  0  0
 14 16  1  0  0  0  0
 14 17  1  0  0  0  0
 17 18  1  0  0  0  0
 18 19  1  0  0  0  0
 18 20  1  0  0  0  0
 18 21  1  0  0  0  0
 22 23  2  0  0  0  0
 22 24  1  0  0  0  0
 24 25  1  0  0  0  0
 24 26  1  0  0  0  0
 26 27  1  0  0  0  0
 26 28  1  0  0  0  0
 26 29  1  0  0  0  0
M  END
$$$$

  -OEChem-04042216023D

 29 28  0     1  0  0  0  0  0999 V2000
   -2.5010   -4.2778    0.7895 H   0  0  0  0  0  0  0  0  0  0  0  0
   -2.5729   -3.3068    0.2910 C   0  0  0  0  0  0  0  0  0  0  0  0
   -3.4026   -2.7474    0.7295 H   0  0  0  0  0  0  0  0  0  0  0  0
   -2.7721   -3.4721   -0.7705 H   0  0  0  0  0  0  0  0  0  0  0  0
   -1.2776   -2.5359    0.4620 C   0  0  0  0  0  0  0  0  0  0  0  0
   -0.3637   -3.0191    1.1044 O   0  0  0  0  0  0  0  0  0  0  0  0
   -1.1470   -1.2816   -0.1016 N   0  0  0  0  0  0  0  0  0  0  0  0
   -1.9191   -0.9636   -0.6774 H   0  0  0  0  0  0  0  0  0  0  0  0
    0.1114   -0.5051   -0.1178 C   0  0  1  0  0  0  0  0  0  0  0  0
    0.8566   -1.1505   -0.5973 H   0  0  0  0  0  0  0  0  0  0  0  0
    0.0409    0.7945   -0.9645 C   0  0  0  0  0  0  0  0  0  0  0  0
    0.0172    1.6631   -0.2976 H   0  0  0  0  0  0  0  0  0  0  0  0
    0.9810    0.8584   -1.5229 H   0  0  0  0  0  0  0  0  0  0  0  0
   -1.1399    0.9399   -1.9468 C   0  0  0  0  0  0  0  0  0  0  0  0
   -1.6157   -0.0219   -2.1473 H   0  0  0  0  0  0  0  0  0  0  0  0
   -1.8964    1.6118   -1.5288 H   0  0  0  0  0  0  0  0  0  0  0  0
   -0.5571    1.5619   -3.5748 S   0  0  0  0  0  0  0  0  0  0  0  0
    0.0433    3.2502   -3.1681 C   0  0  0  0  0  0  0  0  0  0  0  0
    0.8698    3.2026   -2.4530 H   0  0  0  0  0  0  0  0  0  0  0  0
    0.3972    3.7493   -4.0751 H   0  0  0  0  0  0  0  0  0  0  0  0
   -0.7652    3.8457   -2.7341 H   0  0  0  0  0  0  0  0  0  0  0  0
    0.6805   -0.1795    1.2821 C   0  0  0  0  0  0  0  0  0  0  0  0
    1.8897   -0.0661    1.4328 O   0  0  0  0  0  0  0  0  0  0  0  0
   -0.1644    0.2756    2.2786 N   0  0  0  0  0  0  0  0  0  0  0  0
   -1.1495    0.0699    2.1508 H   0  0  0  0  0  0  0  0  0  0  0  0
    0.3098    0.6157    3.6142 C   0  0  0  0  0  0  0  0  0  0  0  0
    1.0543    1.4174    3.5652 H   0  0  0  0  0  0  0  0  0  0  0  0
   -0.5228    0.9579    4.2359 H   0  0  0  0  0  0  0  0  0  0  0  0
    0.7648   -0.2586    4.0919 H   0  0  0  0  0  0  0  0  0  0  0  0
  1  2  1  0  0  0  0
  2  3  1  0  0  0  0
  2  4  1  0  0  0  0
  2  5  1  0  0  0  0
  5  6  2  0  0  0  0
  5  7  1  0  0  0  0
  7  8  1  0  0  0  0
  7  9  1  0  0  0  0
  9 10  1  0  0  0  0
  9 11  1  0  0  0  0
  9 22  1  0  0  0  0
 11 12  1  0  0  0  0
 11 13  1  0  0  0  0
 11 14  1  0  0  0  0
 14 15  1  0  0  0  0
 14 16  1  0  0  0  0
 14 17  1  0  0  0  0
 17 18  1  0  0  0  0
 18 19  1  0  0  0  0
 18 20  1  0  0  0  0
 18 21  1  0  0  0  0
 22 23  2  0  0  0  0
 22 24  1  0  0  0  0
 24 25  1  0  0  0  0
 24 26  1  0  0  0  0
 26 27  1  0  0  0  0
 26 28  1  0  0  0  0
 26 29  1  0  0  0  0
M  END
$$$$

  -OEChem-04042216023D

 29 28  0     1  0  0  0  0  0999 V2000
   -2.5206   -4.2856    0.7897 H   0  0  0  0  0  0  0  0  0  0  0  0
   -2.5917   -3.3152    0.2895 C   0  0  0  0  0  0  0  0  0  0  0  0
   -3.4385   -2.7656    0.7072 H   0  0  0  0  0  0  0  0  0  0  0  0
   -2.7632   -3.4826   -0.7766 H   0  0  0  0  0  0  0  0  0  0  0  0
   -1.3099   -2.5292    0.4916 C   0  0  0  0  0  0  0  0  0  0  0  0
   -0.4093   -2.9999    1.1616 O   0  0  0  0  0  0  0  0  0  0  0  0
   -1.1777   -1.2779   -0.0788 N   0  0  0  0  0  0  0  0  0  0  0  0
   -1.9245   -0.9962   -0.7038 H   0  0  0  0  0  0  0  0  0  0  0  0
    0.0893   -0.5161   -0.1131 C   0  0  1  0  0  0  0  0  0  0  0  0
    0.8190   -1.1757   -0.5969 H   0  0  0  0  0  0  0  0  0  0  0  0
    0.0438    0.7837   -0.9642 C   0  0  0  0  0  0  0  0  0  0  0  0
    0.0222    1.6429   -0.2848 H   0  0  0  0  0  0  0  0  0  0  0  0
    0.9926    0.8483   -1.5069 H   0  0  0  0  0  0  0  0  0  0  0  0
   -1.1299    0.9763   -1.9511 C   0  0  0  0  0  0  0  0  0  0  0  0
   -1.8335    0.1445   -1.9382 H   0  0  0  0  0  0  0  0  0  0  0  0
   -1.6891    1.8773   -1.6789 H   0  0  0  0  0  0  0  0  0  0  0  0
   -0.5119    1.1454   -3.6738 S   0  0  0  0  0  0  0  0  0  0  0  0
    0.3418    2.7729   -3.6368 C   0  0  0  0  0  0  0  0  0  0  0  0
    1.1731    2.7563   -2.9259 H   0  0  0  0  0  0  0  0  0  0  0  0
    0.7381    3.0094   -4.6288 H   0  0  0  0  0  0  0  0  0  0  0  0
   -0.3572    3.5612   -3.3422 H   0  0  0  0  0  0  0  0  0  0  0  0
    0.6807   -0.1930    1.2788 C   0  0  0  0  0  0  0  0  0  0  0  0
    1.8931   -0.0890    1.4109 O   0  0  0  0  0  0  0  0  0  0  0  0
   -0.1444    0.2749    2.2859 N   0  0  0  0  0  0  0  0  0  0  0  0
   -1.1334    0.0776    2.1737 H   0  0  0  0  0  0  0  0  0  0  0  0
    0.3539    0.6156    3.6126 C   0  0  0  0  0  0  0  0  0  0  0  0
    1.0981    1.4167    3.5492 H   0  0  0  0  0  0  0  0  0  0  0  0
   -0.4672    0.9590    4.2487 H   0  0  0  0  0  0  0  0  0  0  0  0
    0.8168   -0.2585    4.0827 H   0  0  0  0  0  0  0  0  0  0  0  0
  1  2  1  0  0  0  0
  2  3  1  0  0  0  0
  2  4  1  0  0  0  0
  2  5  1  0  0  0  0
  5  6  2  0  0  0  0
  5  7  1  0  0  0  0
  7  8  1  0  0  0  0
  7  9  1  0  0  0  0
  9 10  1  0  0  0  0
  9 11  1  0  0  0  0
  9 22  1  0  0  0  0
 11 12  1  0  0  0  0
 11 13  1  0  0  0  0
 11 14  1  0  0  0  0
 14 15  1  0  0  0  0
 14 16  1  0  0  0  0
 14 17  1  0  0  0  0
 17 18  1  0  0  0  0
 18 19  1  0  0  0  0
 18 20  1  0  0  0  0
 18 21  1  0  0  0  0
 22 23  2  0  0  0  0
 22 24  1  0  0  0  0
 24 25  1  0  0  0  0
 24 26  1  0  0  0  0
 26 27  1  0  0  0  0
 26 28  1  0  0  0  0
 26 29  1  0  0  0  0
M  END
$$$$

  -OEChem-04042216023D

 29 28  0     1  0  0  0  0  0999 V2000
   -2.5746   -4.2543    0.7598 H   0  0  0  0  0  0  0  0  0  0  0  0
   -2.6158   -3.2896    0.2458 C   0  0  0  0  0  0  0  0  0  0  0  0
   -3.4857   -2.7359    0.6069 H   0  0  0  0  0  0  0  0  0  0  0  0
   -2.7239   -3.4682   -0.8268 H   0  0  0  0  0  0  0  0  0  0  0  0
   -1.3485   -2.5008    0.5156 C   0  0  0  0  0  0  0  0  0  0  0  0
   -0.4917   -2.9627    1.2466 O   0  0  0  0  0  0  0  0  0  0  0  0
   -1.1835   -1.2574   -0.0634 N   0  0  0  0  0  0  0  0  0  0  0  0
   -1.8667   -1.0234   -0.7753 H   0  0  0  0  0  0  0  0  0  0  0  0
    0.1055   -0.5336   -0.0925 C   0  0  1  0  0  0  0  0  0  0  0  0
    0.8202   -1.2116   -0.5730 H   0  0  0  0  0  0  0  0  0  0  0  0
    0.0920    0.7688   -0.9418 C   0  0  0  0  0  0  0  0  0  0  0  0
    0.0684    1.6177   -0.2496 H   0  0  0  0  0  0  0  0  0  0  0  0
    1.0446    0.8381   -1.4762 H   0  0  0  0  0  0  0  0  0  0  0  0
   -1.0802    0.9874   -1.9232 C   0  0  0  0  0  0  0  0  0  0  0  0
   -1.9528    0.3754   -1.6967 H   0  0  0  0  0  0  0  0  0  0  0  0
   -1.4083    2.0291   -1.8453 H   0  0  0  0  0  0  0  0  0  0  0  0
   -0.5496    0.6935   -3.6576 S   0  0  0  0  0  0  0  0  0  0  0  0
    0.4886    2.1645   -4.0263 C   0  0  0  0  0  0  0  0  0  0  0  0
    1.3643    2.1929   -3.3717 H   0  0  0  0  0  0  0  0  0  0  0  0
    0.8322    2.1282   -5.0644 H   0  0  0  0  0  0  0  0  0  0  0  0
   -0.0892    3.0819   -3.8815 H   0  0  0  0  0  0  0  0  0  0  0  0
    0.6963   -0.2198    1.3024 C   0  0  0  0  0  0  0  0  0  0  0  0
    1.9104   -0.1479    1.4413 O   0  0  0  0  0  0  0  0  0  0  0  0
   -0.1230    0.2780    2.2998 N   0  0  0  0  0  0  0  0  0  0  0  0
   -1.1147    0.0961    2.1840 H   0  0  0  0  0  0  0  0  0  0  0  0
    0.3738    0.6098    3.6294 C   0  0  0  0  0  0  0  0  0  0  0  0
    1.1480    1.3820    3.5688 H   0  0  0  0  0  0  0  0  0  0  0  0
   -0.4406    0.9886    4.2542 H   0  0  0  0  0  0  0  0  0  0  0  0
    0.7984   -0.2776    4.1109 H   0  0  0  0  0  0  0  0  0  0  0  0
  1  2  1  0  0  0  0
  2  3  1  0  0  0  0
  2  4  1  0  0  0  0
  2  5  1  0  0  0  0
  5  6  2  0  0  0  0
  5  7  1  0  0  0  0
  7  8  1  0  0  0  0
  7  9  1  0  0  0  0
  9 10  1  0  0  0  0
  9 11  1  0  0  0  0
  9 22  1  0  0  0  0
 11 12  1  0  0  0  0
 11 13  1  0  0  0  0
 11 14  1  0  0  0  0
 14 15  1  0  0  0  0
 14 16  1  0  0  0  0
 14 17  1  0  0  0  0
 17 18  1  0  0  0  0
 18 19  1  0  0  0  0
 18 20  1  0  0  0  0
 18 21  1  0  0  0  0
 22 23  2  0  0  0  0
 22 24  1  0  0  0  0
 24 25  1  0  0  0  0
 24 26  1  0  0  0  0
 26 27  1  0  0  0  0
 26 28  1  0  0  0  0
 26 29  1  0  0  0  0
M  END
$$$$

  -OEChem-04042216023D

 29 28  0     1  0  0  0  0  0999 V2000
   -2.6159   -4.2141    0.7094 H   0  0  0  0  0  0  0  0  0  0  0  0
   -2.6278   -3.2523    0.1887 C   0  0  0  0  0  0  0  0  0  0  0  0
   -3.5102   -2.6914    0.5062 H   0  0  0  0  0  0  0  0  0  0  0  0
   -2.6877   -3.4364   -0.8869 H   0  0  0  0  0  0  0  0  0  0  0  0
   -1.3696   -2.4686    0.5114 C   0  0  0  0  0  0  0  0  0  0  0  0
   -0.5492   -2.9313    1.2827 O   0  0  0  0  0  0  0  0  0  0  0  0
   -1.1729   -1.2294   -0.0663 N   0  0  0  0  0  0  0  0  0  0  0  0
   -1.8096   -1.0141   -0.8272 H   0  0  0  0  0  0  0  0  0  0  0  0
    0.1311   -0.5339   -0.0758 C   0  0  1  0  0  0  0  0  0  0  0  0
    0.8396   -1.2206   -0.5532 H   0  0  0  0  0  0  0  0  0  0  0  0
    0.1319    0.7712   -0.9187 C   0  0  0  0  0  0  0  0  0  0  0  0
    0.1057    1.6183   -0.2248 H   0  0  0  0  0  0  0  0  0  0  0  0
    1.0824    0.8426   -1.4553 H   0  0  0  0  0  0  0  0  0  0  0  0
   -1.0453    0.9802   -1.8906 C   0  0  0  0  0  0  0  0  0  0  0  0
   -1.9879    0.5932   -1.4986 H   0  0  0  0  0  0  0  0  0  0  0  0
   -1.1920    2.0567   -2.0254 H   0  0  0  0  0  0  0  0  0  0  0  0
   -0.6763    0.2632   -3.5415 S   0  0  0  0  0  0  0  0  0  0  0  0
    0.5409    1.4440   -4.2505 C   0  0  0  0  0  0  0  0  0  0  0  0
    1.4595    1.4555   -3.6572 H   0  0  0  0  0  0  0  0  0  0  0  0
    0.7936    1.1498   -5.2737 H   0  0  0  0  0  0  0  0  0  0  0  0
    0.1219    2.4544   -4.2711 H   0  0  0  0  0  0  0  0  0  0  0  0
    0.7121   -0.2299    1.3249 C   0  0  0  0  0  0  0  0  0  0  0  0
    1.9259   -0.1839    1.4773 O   0  0  0  0  0  0  0  0  0  0  0  0
   -0.1087    0.2874    2.3109 N   0  0  0  0  0  0  0  0  0  0  0  0
   -1.1017    0.1198    2.1842 H   0  0  0  0  0  0  0  0  0  0  0  0
    0.3783    0.6091    3.6464 C   0  0  0  0  0  0  0  0  0  0  0  0
    1.1692    1.3650    3.5951 H   0  0  0  0  0  0  0  0  0  0  0  0
   -0.4357    1.0050    4.2608 H   0  0  0  0  0  0  0  0  0  0  0  0
    0.7782   -0.2868    4.1329 H   0  0  0  0  0  0  0  0  0  0  0  0
  1  2  1  0  0  0  0
  2  3  1  0  0  0  0
  2  4  1  0  0  0  0
  2  5  1  0  0  0  0
  5  6  2  0  0  0  0
  5  7  1  0  0  0  0
  7  8  1  0  0  0  0
  7  9  1  0  0  0  0
  9 10  1  0  0  0  0
  9 11  1  0  0  0  0
  9 22  1  0  0  0  0
 11 12  1  0  0  0  0
 11 13  1  0  0  0  0
 11 14  1  0  0  0  0
 14 15  1  0  0  0  0
 14 16  1  0  0  0  0
 14 17  1  0  0  0  0
 17 18  1  0  0  0  0
 18 19  1  0  0  0  0
 18 20  1  0  0  0  0
 18 21  1  0  0  0  0
 22 23  2  0  0  0  0
 22 24  1  0  0  0  0
 24 25  1  0  0  0  0
 24 26  1  0  0  0  0
 26 27  1  0  0  0  0
 26 28  1  0  0  0  0
 26 29  1  0  0  0  0
M  END
$$$$

  -OEChem-04042216023D

 29 28  0     1  0  0  0  0  0999 V2000
   -2.6367   -4.1796    0.6538 H   0  0  0  0  0  0  0  0  0  0  0  0
   -2.6229   -3.2260    0.1183 C   0  0  0  0  0  0  0  0  0  0  0  0
   -3.5170   -2.6584    0.3868 H   0  0  0  0  0  0  0  0  0  0  0  0
   -2.6353   -3.4270   -0.9557 H   0  0  0  0  0  0  0  0  0  0  0  0
   -1.3782   -2.4399    0.4840 C   0  0  0  0  0  0  0  0  0  0  0  0
   -0.5805   -2.9033    1.2786 O   0  0  0  0  0  0  0  0  0  0  0  0
   -1.1672   -1.1982   -0.0822 N   0  0  0  0  0  0  0  0  0  0  0  0
   -1.7773   -0.9875   -0.8675 H   0  0  0  0  0  0  0  0  0  0  0  0
    0.1424   -0.5138   -0.0745 C   0  0  1  0  0  0  0  0  0  0  0  0
    0.8502   -1.1974   -0.5568 H   0  0  0  0  0  0  0  0  0  0  0  0
    0.1359    0.7974   -0.9050 C   0  0  0  0  0  0  0  0  0  0  0  0
    0.1103    1.6448   -0.2113 H   0  0  0  0  0  0  0  0  0  0  0  0
    1.0792    0.8746   -1.4532 H   0  0  0  0  0  0  0  0  0  0  0  0
   -1.0530    0.9853   -1.8631 C   0  0  0  0  0  0  0  0  0  0  0  0
   -2.0052    0.8070   -1.3552 H   0  0  0  0  0  0  0  0  0  0  0  0
   -1.0691    2.0282   -2.1963 H   0  0  0  0  0  0  0  0  0  0  0  0
   -0.8978   -0.0832   -3.3514 S   0  0  0  0  0  0  0  0  0  0  0  0
    0.5203    0.6482   -4.2646 C   0  0  0  0  0  0  0  0  0  0  0  0
    1.4485    0.5240   -3.6999 H   0  0  0  0  0  0  0  0  0  0  0  0
    0.6362    0.1521   -5.2329 H   0  0  0  0  0  0  0  0  0  0  0  0
    0.3522    1.7152   -4.4377 H   0  0  0  0  0  0  0  0  0  0  0  0
    0.7218   -0.2217    1.3291 C   0  0  0  0  0  0  0  0  0  0  0  0
    1.9360   -0.1831    1.4817 O   0  0  0  0  0  0  0  0  0  0  0  0
   -0.0951    0.2976    2.3172 N   0  0  0  0  0  0  0  0  0  0  0  0
   -1.0889    0.1327    2.1930 H   0  0  0  0  0  0  0  0  0  0  0  0
    0.3970    0.6156    3.6518 C   0  0  0  0  0  0  0  0  0  0  0  0
    1.1895    1.3695    3.5989 H   0  0  0  0  0  0  0  0  0  0  0  0
   -0.4136    1.0126    4.2702 H   0  0  0  0  0  0  0  0  0  0  0  0
    0.7968   -0.2820    4.1354 H   0  0  0  0  0  0  0  0  0  0  0  0
  1  2  1  0  0  0  0
  2  3  1  0  0  0  0
  2  4  1  0  0  0  0
  2  5  1  0  0  0  0
  5  6  2  0  0  0  0
  5  7  1  0  0  0  0
  7  8  1  0  0  0  0
  7  9  1  0  0  0  0
  9 10  1  0  0  0  0
  9 11  1  0  0  0  0
  9 22  1  0  0  0  0
 11 12  1  0  0  0  0
 11 13  1  0  0  0  0
 11 14  1  0  0  0  0
 14 15  1  0  0  0  0
 14 16  1  0  0  0  0
 14 17  1  0  0  0  0
 17 18  1  0  0  0  0
 18 19  1  0  0  0  0
 18 20  1  0  0  0  0
 18 21  1  0  0  0  0
 22 23  2  0  0  0  0
 22 24  1  0  0  0  0
 24 25  1  0  0  0  0
 24 26  1  0  0  0  0
 26 27  1  0  0  0  0
 26 28  1  0  0  0  0
 26 29  1  0  0  0  0
M  END
$$$$

  -OEChem-04042216023D

 29 28  0     1  0  0  0  0  0999 V2000
   -2.6196   -4.1536    0.6106 H   0  0  0  0  0  0  0  0  0  0  0  0
   -2.6037   -3.2017    0.0721 C   0  0  0  0  0  0  0  0  0  0  0  0
   -3.4952   -2.6302    0.3413 H   0  0  0  0  0  0  0  0  0  0  0  0
   -2.6190   -3.4052   -1.0015 H   0  0  0  0  0  0  0  0  0  0  0  0
   -1.3552   -2.4189    0.4319 C   0  0  0  0  0  0  0  0  0  0  0  0
   -0.5430   -2.8941    1.2050 O   0  0  0  0  0  0  0  0  0  0  0  0
   -1.1558   -1.1673   -0.1158 N   0  0  0  0  0  0  0  0  0  0  0  0
   -1.7750   -0.9446   -0.8921 H   0  0  0  0  0  0  0  0  0  0  0  0
    0.1475   -0.4720   -0.1089 C   0  0  1  0  0  0  0  0  0  0  0  0
    0.8577   -1.1408   -0.6079 H   0  0  0  0  0  0  0  0  0  0  0  0
    0.1132    0.8500   -0.9206 C   0  0  0  0  0  0  0  0  0  0  0  0
    0.0984    1.6929   -0.2212 H   0  0  0  0  0  0  0  0  0  0  0  0
    1.0448    0.9352   -1.4880 H   0  0  0  0  0  0  0  0  0  0  0  0
   -1.0872    1.0387   -1.8650 C   0  0  0  0  0  0  0  0  0  0  0  0
   -2.0154    1.0675   -1.2855 H   0  0  0  0  0  0  0  0  0  0  0  0
   -0.9905    2.0082   -2.3644 H   0  0  0  0  0  0  0  0  0  0  0  0
   -1.2039   -0.2749   -3.1526 S   0  0  0  0  0  0  0  0  0  0  0  0
    0.4070   -0.1753   -4.0314 C   0  0  0  0  0  0  0  0  0  0  0  0
    1.2242   -0.4821   -3.3721 H   0  0  0  0  0  0  0  0  0  0  0  0
    0.3987   -0.8374   -4.9024 H   0  0  0  0  0  0  0  0  0  0  0  0
    0.5917    0.8479   -4.3720 H   0  0  0  0  0  0  0  0  0  0  0  0
    0.7350   -0.1968    1.2943 C   0  0  0  0  0  0  0  0  0  0  0  0
    1.9499   -0.1513    1.4390 O   0  0  0  0  0  0  0  0  0  0  0  0
   -0.0807    0.2999    2.2949 N   0  0  0  0  0  0  0  0  0  0  0  0
   -1.0736    0.1294    2.1705 H   0  0  0  0  0  0  0  0  0  0  0  0
    0.4128    0.5894    3.6353 C   0  0  0  0  0  0  0  0  0  0  0  0
    1.1990    1.3509    3.5990 H   0  0  0  0  0  0  0  0  0  0  0  0
   -0.3999    0.9642    4.2648 H   0  0  0  0  0  0  0  0  0  0  0  0
    0.8206   -0.3166    4.0961 H   0  0  0  0  0  0  0  0  0  0  0  0
  1  2  1  0  0  0  0
  2  3  1  0  0  0  0
  2  4  1  0  0  0  0
  2  5  1  0  0  0  0
  5  6  2  0  0  0  0
  5  7  1  0  0  0  0
  7  8  1  0  0  0  0
  7  9  1  0  0  0  0
  9 10  1  0  0  0  0
  9 11  1  0  0  0  0
  9 22  1  0  0  0  0
 11 12  1  0  0  0  0
 11 13  1  0  0  0  0
 11 14  1  0  0  0  0
 14 15  1  0  0  0  0
 14 16  1  0  0  0  0
 14 17  1  0  0  0  0
 17 18  1  0  0  0  0
 18 19  1  0  0  0  0
 18 20  1  0  0  0  0
 18 21  1  0  0  0  0
 22 23  2  0  0  0  0
 22 24  1  0  0  0  0
 24 25  1  0  0  0  0
 24 26  1  0  0  0  0
 26 27  1  0  0  0  0
 26 28  1  0  0  0  0
 26 29  1  0  0  0  0
M  END
$$$$

  -OEChem-04042216023D

 29 28  0     1  0  0  0  0  0999 V2000
   -2.6053   -4.1860    0.6214 H   0  0  0  0  0  0  0  0  0  0  0  0
   -2.6073   -3.2165    0.1151 C   0  0  0  0  0  0  0  0  0  0  0  0
   -3.4860   -2.6527    0.4372 H   0  0  0  0  0  0  0  0  0  0  0  0
   -2.6653   -3.3831   -0.9633 H   0  0  0  0  0  0  0  0  0  0  0  0
   -1.3439   -2.4479    0.4533 C   0  0  0  0  0  0  0  0  0  0  0  0
   -0.5258   -2.9294    1.2162 O   0  0  0  0  0  0  0  0  0  0  0  0
   -1.1354   -1.2028   -0.1044 N   0  0  0  0  0  0  0  0  0  0  0  0
   -1.7697   -0.9619   -0.8634 H   0  0  0  0  0  0  0  0  0  0  0  0
    0.1634   -0.5033   -0.0912 C   0  0  1  0  0  0  0  0  0  0  0  0
    0.8802   -1.1824   -0.5661 H   0  0  0  0  0  0  0  0  0  0  0  0
    0.1540    0.8078   -0.9251 C   0  0  0  0  0  0  0  0  0  0  0  0
    0.1586    1.6627   -0.2400 H   0  0  0  0  0  0  0  0  0  0  0  0
    1.0985    0.8488   -1.4775 H   0  0  0  0  0  0  0  0  0  0  0  0
   -1.0010    1.0470   -1.9218 C   0  0  0  0  0  0  0  0  0  0  0  0
   -1.8923    1.3357   -1.3555 H   0  0  0  0  0  0  0  0  0  0  0  0
   -0.7397    1.8926   -2.5667 H   0  0  0  0  0  0  0  0  0  0  0  0
   -1.4436   -0.3971   -2.9829 S   0  0  0  0  0  0  0  0  0  0  0  0
    0.1402   -0.7632   -3.8390 C   0  0  0  0  0  0  0  0  0  0  0  0
    0.9042   -1.0696   -3.1185 H   0  0  0  0  0  0  0  0  0  0  0  0
   -0.0015   -1.5740   -4.5599 H   0  0  0  0  0  0  0  0  0  0  0  0
    0.4951    0.1225   -4.3742 H   0  0  0  0  0  0  0  0  0  0  0  0
    0.7303   -0.2108    1.3165 C   0  0  0  0  0  0  0  0  0  0  0  0
    1.9429   -0.1603    1.4777 O   0  0  0  0  0  0  0  0  0  0  0  0
   -0.1006    0.2934    2.3003 N   0  0  0  0  0  0  0  0  0  0  0  0
   -1.0923    0.1253    2.1624 H   0  0  0  0  0  0  0  0  0  0  0  0
    0.3739    0.6054    3.6425 C   0  0  0  0  0  0  0  0  0  0  0  0
    1.1620    1.3648    3.6046 H   0  0  0  0  0  0  0  0  0  0  0  0
   -0.4470    0.9927    4.2535 H   0  0  0  0  0  0  0  0  0  0  0  0
    0.7734   -0.2932    4.1244 H   0  0  0  0  0  0  0  0  0  0  0  0
  1  2  1  0  0  0  0
  2  3  1  0  0  0  0
  2  4  1  0  0  0  0
  2  5  1  0  0  0  0
  5  6  2  0  0  0  0
  5  7  1  0  0  0  0
  7  8  1  0  0  0  0
  7  9  1  0  0  0  0
  9 10  1  0  0  0  0
  9 11  1  0  0  0  0
  9 22  1  0  0  0  0
 11 12  1  0  0  0  0
 11 13  1  0  0  0  0
 11 14  1  0  0  0  0
 14 15  1  0  0  0  0
 14 16  1  0  0  0  0
 14 17  1  0  0  0  0
 17 18  1  0  0  0  0
 18 19  1  0  0  0  0
 18 20  1  0  0  0  0
 18 21  1  0  0  0  0
 22 23  2  0  0  0  0
 22 24  1  0  0  0  0
 24 25  1  0  0  0  0
 24 26  1  0  0  0  0
 26 27  1  0  0  0  0
 26 28  1  0  0  0  0
 26 29  1  0  0  0  0
M  END
$$$$

  -OEChem-04042216023D

 29 28  0     1  0  0  0  0  0999 V2000
   -2.5672   -4.2346    0.7080 H   0  0  0  0  0  0  0  0  0  0  0  0
   -2.5891   -3.2556    0.2209 C   0  0  0  0  0  0  0  0  0  0  0  0
   -3.4486   -2.6946    0.5950 H   0  0  0  0  0  0  0  0  0  0  0  0
   -2.6989   -3.4016   -0.8565 H   0  0  0  0  0  0  0  0  0  0  0  0
   -1.3081   -2.4978    0.5135 C   0  0  0  0  0  0  0  0  0  0  0  0
   -0.4690   -2.9829    1.2509 O   0  0  0  0  0  0  0  0  0  0  0  0
   -1.1013   -1.2620   -0.0644 N   0  0  0  0  0  0  0  0  0  0  0  0
   -1.7713   -0.9948   -0.7828 H   0  0  0  0  0  0  0  0  0  0  0  0
    0.1843   -0.5431   -0.0493 C   0  0  1  0  0  0  0  0  0  0  0  0
    0.9163   -1.2311   -0.4868 H   0  0  0  0  0  0  0  0  0  0  0  0
    0.2064    0.7465   -0.9204 C   0  0  0  0  0  0  0  0  0  0  0  0
    0.2176    1.6162   -0.2545 H   0  0  0  0  0  0  0  0  0  0  0  0
    1.1712    0.7468   -1.4384 H   0  0  0  0  0  0  0  0  0  0  0  0
   -0.8840    1.0296   -1.9854 C   0  0  0  0  0  0  0  0  0  0  0  0
   -1.6853    1.5899   -1.4928 H   0  0  0  0  0  0  0  0  0  0  0  0
   -0.4579    1.6883   -2.7492 H   0  0  0  0  0  0  0  0  0  0  0  0
   -1.6818   -0.4067   -2.8265 S   0  0  0  0  0  0  0  0  0  0  0  0
   -0.2496   -1.2088   -3.6508 C   0  0  0  0  0  0  0  0  0  0  0  0
    0.4767   -1.5534   -2.9091 H   0  0  0  0  0  0  0  0  0  0  0  0
   -0.5871   -2.0708   -4.2341 H   0  0  0  0  0  0  0  0  0  0  0  0
    0.2443   -0.5024   -4.3247 H   0  0  0  0  0  0  0  0  0  0  0  0
    0.7183   -0.2165    1.3640 C   0  0  0  0  0  0  0  0  0  0  0  0
    1.9265   -0.1490    1.5505 O   0  0  0  0  0  0  0  0  0  0  0  0
   -0.1392    0.2924    2.3225 N   0  0  0  0  0  0  0  0  0  0  0  0
   -1.1271    0.1229    2.1629 H   0  0  0  0  0  0  0  0  0  0  0  0
    0.3027    0.6399    3.6672 C   0  0  0  0  0  0  0  0  0  0  0  0
    1.0886    1.4017    3.6287 H   0  0  0  0  0  0  0  0  0  0  0  0
   -0.5333    1.0388    4.2494 H   0  0  0  0  0  0  0  0  0  0  0  0
    0.6947   -0.2446    4.1805 H   0  0  0  0  0  0  0  0  0  0  0  0
  1  2  1  0  0  0  0
  2  3  1  0  0  0  0
  2  4  1  0  0  0  0
  2  5  1  0  0  0  0
  5  6  2  0  0  0  0
  5  7  1  0  0  0  0
  7  8  1  0  0  0  0
  7  9  1  0  0  0  0
  9 10  1  0  0  0  0
  9 11  1  0  0  0  0
  9 22  1  0  0  0  0
 11 12  1  0  0  0  0
 11 13  1  0  0  0  0
 11 14  1  0  0  0  0
 14 15  1  0  0  0  0
 14 16  1  0  0  0  0
 14 17  1  0  0  0  0
 17 18  1  0  0  0  0
 18 19  1  0  0  0  0
 18 20  1  0  0  0  0
 18 21  1  0  0  0  0
 22 23  2  0  0  0  0
 22 24  1  0  0  0  0
 24 25  1  0  0  0  0
 24 26  1  0  0  0  0
 26 27  1  0  0  0  0
 26 28  1  0  0  0  0
 26 29  1  0  0  0  0
M  END
$$$$

  -OEChem-04042216023D

 29 28  0     1  0  0  0  0  0999 V2000
   -2.5228   -4.2703    0.8689 H   0  0  0  0  0  0  0  0  0  0  0  0
   -2.5557   -3.2981    0.3690 C   0  0  0  0  0  0  0  0  0  0  0  0
   -3.3932   -2.7231    0.7712 H   0  0  0  0  0  0  0  0  0  0  0  0
   -2.7121   -3.4580   -0.7007 H   0  0  0  0  0  0  0  0  0  0  0  0
   -1.2560   -2.5498    0.5956 C   0  0  0  0  0  0  0  0  0  0  0  0
   -0.3876   -3.0357    1.2977 O   0  0  0  0  0  0  0  0  0  0  0  0
   -1.0620   -1.3234   -0.0057 N   0  0  0  0  0  0  0  0  0  0  0  0
   -1.7775   -1.0286   -0.6667 H   0  0  0  0  0  0  0  0  0  0  0  0
    0.2060   -0.5767    0.0018 C   0  0  1  0  0  0  0  0  0  0  0  0
    0.9532   -1.2683   -0.4037 H   0  0  0  0  0  0  0  0  0  0  0  0
    0.2441    0.6868   -0.9103 C   0  0  0  0  0  0  0  0  0  0  0  0
    0.2332    1.5687   -0.2602 H   0  0  0  0  0  0  0  0  0  0  0  0
    1.2292    0.6794   -1.3890 H   0  0  0  0  0  0  0  0  0  0  0  0
   -0.7963    0.9762   -2.0300 C   0  0  0  0  0  0  0  0  0  0  0  0
   -1.4501    1.7730   -1.6603 H   0  0  0  0  0  0  0  0  0  0  0  0
   -0.2602    1.3867   -2.8920 H   0  0  0  0  0  0  0  0  0  0  0  0
   -1.9119   -0.3617   -2.6379 S   0  0  0  0  0  0  0  0  0  0  0  0
   -0.7165   -1.5035   -3.4410 C   0  0  0  0  0  0  0  0  0  0  0  0
    0.0089   -1.8759   -2.7119 H   0  0  0  0  0  0  0  0  0  0  0  0
   -1.2456   -2.3579   -3.8741 H   0  0  0  0  0  0  0  0  0  0  0  0
   -0.1765   -0.9865   -4.2400 H   0  0  0  0  0  0  0  0  0  0  0  0
    0.7141   -0.2103    1.4149 C   0  0  0  0  0  0  0  0  0  0  0  0
    1.9177   -0.1212    1.6204 O   0  0  0  0  0  0  0  0  0  0  0  0
   -0.1674    0.2983    2.3515 N   0  0  0  0  0  0  0  0  0  0  0  0
   -1.1511    0.1240    2.1729 H   0  0  0  0  0  0  0  0  0  0  0  0
    0.2440    0.6821    3.6960 C   0  0  0  0  0  0  0  0  0  0  0  0
    1.0162    1.4575    3.6555 H   0  0  0  0  0  0  0  0  0  0  0  0
   -0.6102    1.0771    4.2543 H   0  0  0  0  0  0  0  0  0  0  0  0
    0.6421   -0.1840    4.2353 H   0  0  0  0  0  0  0  0  0  0  0  0
  1  2  1  0  0  0  0
  2  3  1  0  0  0  0
  2  4  1  0  0  0  0
  2  5  1  0  0  0  0
  5  6  2  0  0  0  0
  5  7  1  0  0  0  0
  7  8  1  0  0  0  0
  7  9  1  0  0  0  0
  9 10  1  0  0  0  0
  9 11  1  0  0  0  0
  9 22  1  0  0  0  0
 11 12  1  0  0  0  0
 11 13  1  0  0  0  0
 11 14  1  0  0  0  0
 14 15  1  0  0  0  0
 14 16  1  0  0  0  0
 14 17  1  0  0  0  0
 17 18  1  0  0  0  0
 18 19  1  0  0  0  0
 18 20  1  0  0  0  0
 18 21  1  0  0  0  0
 22 23  2  0  0  0  0
 22 24  1  0  0  0  0
 24 25  1  0  0  0  0
 24 26  1  0  0  0  0
 26 27  1  0  0  0  0
 26 28  1  0  0  0  0
 26 29  1  0  0  0  0
M  END
$$$$

  -OEChem-04042216023D

 29 28  0     1  0  0  0  0  0999 V2000
   -2.4627   -4.2966    1.0747 H   0  0  0  0  0  0  0  0  0  0  0  0
   -2.5111   -3.3353    0.5551 C   0  0  0  0  0  0  0  0  0  0  0  0
   -3.3250   -2.7443    0.9819 H   0  0  0  0  0  0  0  0  0  0  0  0
   -2.7178   -3.5169   -0.5024 H   0  0  0  0  0  0  0  0  0  0  0  0
   -1.1970   -2.5934    0.7071 C   0  0  0  0  0  0  0  0  0  0  0  0
   -0.3017   -3.0689    1.3818 O   0  0  0  0  0  0  0  0  0  0  0  0
   -1.0227   -1.3795    0.0755 N   0  0  0  0  0  0  0  0  0  0  0  0
   -1.7795   -1.0673   -0.5282 H   0  0  0  0  0  0  0  0  0  0  0  0
    0.2273   -0.6050    0.0642 C   0  0  1  0  0  0  0  0  0  0  0  0
    0.9879   -1.2974   -0.3141 H   0  0  0  0  0  0  0  0  0  0  0  0
    0.2680    0.6291   -0.8895 C   0  0  0  0  0  0  0  0  0  0  0  0
    0.2109    1.5198   -0.2537 H   0  0  0  0  0  0  0  0  0  0  0  0
    1.2701    0.6434   -1.3315 H   0  0  0  0  0  0  0  0  0  0  0  0
   -0.7442    0.8940   -2.0443 C   0  0  0  0  0  0  0  0  0  0  0  0
   -1.2050    1.8678   -1.8479 H   0  0  0  0  0  0  0  0  0  0  0  0
   -0.1690    1.0055   -2.9695 H   0  0  0  0  0  0  0  0  0  0  0  0
   -2.1268   -0.2742   -2.3984 S   0  0  0  0  0  0  0  0  0  0  0  0
   -1.2410   -1.6362   -3.2587 C   0  0  0  0  0  0  0  0  0  0  0  0
   -0.4572   -2.0517   -2.6183 H   0  0  0  0  0  0  0  0  0  0  0  0
   -1.9419   -2.4356   -3.5173 H   0  0  0  0  0  0  0  0  0  0  0  0
   -0.7800   -1.2658   -4.1793 H   0  0  0  0  0  0  0  0  0  0  0  0
    0.7190   -0.1922    1.4706 C   0  0  0  0  0  0  0  0  0  0  0  0
    1.9190   -0.0730    1.6816 O   0  0  0  0  0  0  0  0  0  0  0  0
   -0.1788    0.3192    2.3902 N   0  0  0  0  0  0  0  0  0  0  0  0
   -1.1585    0.1285    2.2064 H   0  0  0  0  0  0  0  0  0  0  0  0
    0.2159    0.7333    3.7307 C   0  0  0  0  0  0  0  0  0  0  0  0
    0.9833    1.5131    3.6824 H   0  0  0  0  0  0  0  0  0  0  0  0
   -0.6463    1.1337    4.2724 H   0  0  0  0  0  0  0  0  0  0  0  0
    0.6148   -0.1188    4.2911 H   0  0  0  0  0  0  0  0  0  0  0  0
  1  2  1  0  0  0  0
  2  3  1  0  0  0  0
  2  4  1  0  0  0  0
  2  5  1  0  0  0  0
  5  6  2  0  0  0  0
  5  7  1  0  0  0  0
  7  8  1  0  0  0  0
  7  9  1  0  0  0  0
  9 10  1  0  0  0  0
  9 11  1  0  0  0  0
  9 22  1  0  0  0  0
 11 12  1  0  0  0  0
 11 13  1  0  0  0  0
 11 14  1  0  0  0  0
 14 15  1  0  0  0  0
 14 16  1  0  0  0  0
 14 17  1  0  0  0  0
 17 18  1  0  0  0  0
 18 19  1  0  0  0  0
 18 20  1  0  0  0  0
 18 21  1  0  0  0  0
 22 23  2  0  0  0  0
 22 24  1  0  0  0  0
 24 25  1  0  0  0  0
 24 26  1  0  0  0  0
 26 27  1  0  0  0  0
 26 28  1  0  0  0  0
 26 29  1  0  0  0  0
M  END
$$$$

  -OEChem-04042216023D

 29 28  0     1  0  0  0  0  0999 V2000
   -2.3778   -4.3274    1.2670 H   0  0  0  0  0  0  0  0  0  0  0  0
   -2.4469   -3.3758    0.7322 C   0  0  0  0  0  0  0  0  0  0  0  0
   -3.2404   -2.7751    1.1831 H   0  0  0  0  0  0  0  0  0  0  0  0
   -2.6991   -3.5765   -0.3119 H   0  0  0  0  0  0  0  0  0  0  0  0
   -1.1260   -2.6345    0.8133 C   0  0  0  0  0  0  0  0  0  0  0  0
   -0.2020   -3.1035    1.4528 O   0  0  0  0  0  0  0  0  0  0  0  0
   -0.9786   -1.4286    0.1598 N   0  0  0  0  0  0  0  0  0  0  0  0
   -1.7738   -1.1005   -0.3822 H   0  0  0  0  0  0  0  0  0  0  0  0
    0.2565   -0.6320    0.1253 C   0  0  1  0  0  0  0  0  0  0  0  0
    1.0259   -1.3185   -0.2458 H   0  0  0  0  0  0  0  0  0  0  0  0
    0.2775    0.5858   -0.8506 C   0  0  0  0  0  0  0  0  0  0  0  0
    0.1780    1.4768   -0.2206 H   0  0  0  0  0  0  0  0  0  0  0  0
    1.2830    0.6359   -1.2820 H   0  0  0  0  0  0  0  0  0  0  0  0
   -0.7405    0.8185   -2.0058 C   0  0  0  0  0  0  0  0  0  0  0  0
   -0.9943    1.8838   -2.0056 H   0  0  0  0  0  0  0  0  0  0  0  0
   -0.2126    0.6278   -2.9458 H   0  0  0  0  0  0  0  0  0  0  0  0
   -2.3281   -0.1163   -2.0888 S   0  0  0  0  0  0  0  0  0  0  0  0
   -1.8355   -1.5884   -3.0738 C   0  0  0  0  0  0  0  0  0  0  0  0
   -1.0089   -2.1171   -2.5893 H   0  0  0  0  0  0  0  0  0  0  0  0
   -2.6813   -2.2754   -3.1724 H   0  0  0  0  0  0  0  0  0  0  0  0
   -1.5162   -1.2837   -4.0751 H   0  0  0  0  0  0  0  0  0  0  0  0
    0.7490   -0.1877    1.5216 C   0  0  0  0  0  0  0  0  0  0  0  0
    1.9478   -0.0475    1.7254 O   0  0  0  0  0  0  0  0  0  0  0  0
   -0.1516    0.3222    2.4393 N   0  0  0  0  0  0  0  0  0  0  0  0
   -1.1318    0.1319    2.2585 H   0  0  0  0  0  0  0  0  0  0  0  0
    0.2440    0.7881    3.7621 C   0  0  0  0  0  0  0  0  0  0  0  0
    0.9813    1.5938    3.6805 H   0  0  0  0  0  0  0  0  0  0  0  0
   -0.6254    1.1721    4.3040 H   0  0  0  0  0  0  0  0  0  0  0  0
    0.6812   -0.0321    4.3411 H   0  0  0  0  0  0  0  0  0  0  0  0
  1  2  1  0  0  0  0
  2  3  1  0  0  0  0
  2  4  1  0  0  0  0
  2  5  1  0  0  0  0
  5  6  2  0  0  0  0
  5  7  1  0  0  0  0
  7  8  1  0  0  0  0
  7  9  1  0  0  0  0
  9 10  1  0  0  0  0
  9 11  1  0  0  0  0
  9 22  1  0  0  0  0
 11 12  1  0  0  0  0
 11 13  1  0  0  0  0
 11 14  1  0  0  0  0
 14 15  1  0  0  0  0
 14 16  1  0  0  0  0
 14 17  1  0  0  0  0
 17 18  1  0  0  0  0
 18 19  1  0  0  0  0
 18 20  1  0  0  0  0
 18 21  1  0  0  0  0
 22 23  2  0  0  0  0
 22 24  1  0  0  0  0
 24 25  1  0  0  0  0
 24 26  1  0  0  0  0
 26 27  1  0  0  0  0
 26 28  1  0  0  0  0
 26 29  1  0  0  0  0
M  END
$$$$

  -OEChem-04042216023D

 29 28  0     1  0  0  0  0  0999 V2000
   -2.2193   -4.4750    1.0368 H   0  0  0  0  0  0  0  0  0  0  0  0
   -2.2641   -3.5322    0.4843 C   0  0  0  0  0  0  0  0  0  0  0  0
   -3.1360   -2.9675    0.8225 H   0  0  0  0  0  0  0  0  0  0  0  0
   -2.3720   -3.7525   -0.5803 H   0  0  0  0  0  0  0  0  0  0  0  0
   -0.9998   -2.7283    0.7201 C   0  0  0  0  0  0  0  0  0  0  0  0
   -0.0937   -3.1969    1.3850 O   0  0  0  0  0  0  0  0  0  0  0  0
   -0.8810   -1.4695    0.1690 N   0  0  0  0  0  0  0  0  0  0  0  0
   -1.6675   -1.1325   -0.3789 H   0  0  0  0  0  0  0  0  0  0  0  0
    0.2954   -0.5973    0.2982 C   0  0  1  0  0  0  0  0  0  0  0  0
    1.1384   -1.2021   -0.0546 H   0  0  0  0  0  0  0  0  0  0  0  0
    0.3036    0.6899   -0.5828 C   0  0  0  0  0  0  0  0  0  0  0  0
    0.0813    1.5206    0.0960 H   0  0  0  0  0  0  0  0  0  0  0  0
    1.3309    0.8470   -0.9289 H   0  0  0  0  0  0  0  0  0  0  0  0
   -0.6471    0.9193   -1.7899 C   0  0  0  0  0  0  0  0  0  0  0  0
   -0.7664    2.0002   -1.9191 H   0  0  0  0  0  0  0  0  0  0  0  0
   -0.1265    0.5547   -2.6811 H   0  0  0  0  0  0  0  0  0  0  0  0
   -2.3305    0.1627   -1.8003 S   0  0  0  0  0  0  0  0  0  0  0  0
   -2.1500   -1.1463   -3.0775 C   0  0  0  0  0  0  0  0  0  0  0  0
   -1.3522   -1.8426   -2.8012 H   0  0  0  0  0  0  0  0  0  0  0  0
   -1.9063   -0.6994   -4.0463 H   0  0  0  0  0  0  0  0  0  0  0  0
   -3.0851   -1.7057   -3.1775 H   0  0  0  0  0  0  0  0  0  0  0  0
    0.6421   -0.2292    1.7591 C   0  0  0  0  0  0  0  0  0  0  0  0
    1.8082   -0.0303    2.0742 O   0  0  0  0  0  0  0  0  0  0  0  0
   -0.3615    0.1536    2.6307 N   0  0  0  0  0  0  0  0  0  0  0  0
   -1.3116   -0.0655    2.3493 H   0  0  0  0  0  0  0  0  0  0  0  0
   -0.1068    0.5609    4.0066 C   0  0  0  0  0  0  0  0  0  0  0  0
    0.5540    1.4338    4.0322 H   0  0  0  0  0  0  0  0  0  0  0  0
   -1.0451    0.8254    4.5034 H   0  0  0  0  0  0  0  0  0  0  0  0
    0.3649   -0.2543    4.5654 H   0  0  0  0  0  0  0  0  0  0  0  0
  1  2  1  0  0  0  0
  2  3  1  0  0  0  0
  2  4  1  0  0  0  0
  2  5  1  0  0  0  0
  5  6  2  0  0  0  0
  5  7  1  0  0  0  0
  7  8  1  0  0  0  0
  7  9  1  0  0  0  0
  9 10  1  0  0  0  0
  9 11  1  0  0  0  0
  9 22  1  0  0  0  0
 11 12  1  0  0  0  0
 11 13  1  0  0  0  0
 11 14  1  0  0  0  0
 14 15  1  0  0  0  0
 14 16  1  0  0  0  0
 14 17  1  0  0  0  0
 17 18  1  0  0  0  0
 18 19  1  0  0  0  0
 18 20  1  0  0  0  0
 18 21  1  0  0  0  0
 22 23  2  0  0  0  0
 22 24  1  0  0  0  0
 24 25  1  0  0  0  0
 24 26  1  0  0  0  0
 26 27  1  0  0  0  0
 26 28  1  0  0  0  0
 26 29  1  0  0  0  0
M  END
$$$$

  -OEChem-04042216023D

 29 28  0     1  0  0  0  0  0999 V2000
   -1.3723   -4.6192    2.0406 H   0  0  0  0  0  0  0  0  0  0  0  0
   -1.6561   -3.7863    1.3912 C   0  0  0  0  0  0  0  0  0  0  0  0
   -2.5135   -3.2719    1.8315 H   0  0  0  0  0  0  0  0  0  0  0  0
   -1.9404   -4.1838    0.4139 H   0  0  0  0  0  0  0  0  0  0  0  0
   -0.4945   -2.8224    1.2416 C   0  0  0  0  0  0  0  0  0  0  0  0
    0.5494   -3.0308    1.8333 O   0  0  0  0  0  0  0  0  0  0  0  0
   -0.6299   -1.7082    0.4397 N   0  0  0  0  0  0  0  0  0  0  0  0
   -1.5144   -1.5989   -0.0492 H   0  0  0  0  0  0  0  0  0  0  0  0
    0.4281   -0.7172    0.1876 C   0  0  1  0  0  0  0  0  0  0  0  0
    1.2823   -1.2900   -0.1912 H   0  0  0  0  0  0  0  0  0  0  0  0
    0.1072    0.3517   -0.8999 C   0  0  0  0  0  0  0  0  0  0  0  0
   -0.1018    1.2901   -0.3747 H   0  0  0  0  0  0  0  0  0  0  0  0
    1.0210    0.5199   -1.4795 H   0  0  0  0  0  0  0  0  0  0  0  0
   -1.0665    0.1785   -1.8942 C   0  0  0  0  0  0  0  0  0  0  0  0
   -1.2170    1.1307   -2.4136 H   0  0  0  0  0  0  0  0  0  0  0  0
   -0.7562   -0.5549   -2.6457 H   0  0  0  0  0  0  0  0  0  0  0  0
   -2.6892   -0.3798   -1.2169 S   0  0  0  0  0  0  0  0  0  0  0  0
   -3.7271   -0.3791   -2.7315 C   0  0  0  0  0  0  0  0  0  0  0  0
   -3.7734    0.6268   -3.1594 H   0  0  0  0  0  0  0  0  0  0  0  0
   -4.7439   -0.7030   -2.4909 H   0  0  0  0  0  0  0  0  0  0  0  0
   -3.3103   -1.0607   -3.4790 H   0  0  0  0  0  0  0  0  0  0  0  0
    0.9338   -0.0128    1.4670 C   0  0  0  0  0  0  0  0  0  0  0  0
    2.0977    0.3604    1.5363 O   0  0  0  0  0  0  0  0  0  0  0  0
    0.0245    0.4454    2.4031 N   0  0  0  0  0  0  0  0  0  0  0  0
   -0.9176    0.0744    2.3317 H   0  0  0  0  0  0  0  0  0  0  0  0
    0.4201    1.1417    3.6203 C   0  0  0  0  0  0  0  0  0  0  0  0
    0.9716    2.0559    3.3778 H   0  0  0  0  0  0  0  0  0  0  0  0
   -0.4640    1.4178    4.2026 H   0  0  0  0  0  0  0  0  0  0  0  0
    1.0571    0.4998    4.2379 H   0  0  0  0  0  0  0  0  0  0  0  0
  1  2  1  0  0  0  0
  2  3  1  0  0  0  0
  2  4  1  0  0  0  0
  2  5  1  0  0  0  0
  5  6  2  0  0  0  0
  5  7  1  0  0  0  0
  7  8  1  0  0  0  0
  7  9  1  0  0  0  0
  9 10  1  0  0  0  0
  9 11  1  0  0  0  0
  9 22  1  0  0  0  0
 11 12  1  0  0  0  0
 11 13  1  0  0  0  0
 11 14  1  0  0  0  0
 14 15  1  0  0  0  0
 14 16  1  0  0  0  0
 14 17  1  0  0  0  0
 17 18  1  0  0  0  0
 18 19  1  0  0  0  0
 18 20  1  0  0  0  0
 18 21  1  0  0  0  0
 22 23  2  0  0  0  0
 22 24  1  0  0  0  0
 24 25  1  0  0  0  0
 24 26  1  0  0  0  0
 26 27  1  0  0  0  0
 26 28  1  0  0  0  0
 26 29  1  0  0  0  0
M  END
$$$$

  -OEChem-04042216023D

 29 28  0     1  0  0  0  0  0999 V2000
   -0.9618   -4.8429    1.1358 H   0  0  0  0  0  0  0  0  0  0  0  0
   -1.3843   -3.9068    0.7599 C   0  0  0  0  0  0  0  0  0  0  0  0
   -2.1183   -3.5375    1.4800 H   0  0  0  0  0  0  0  0  0  0  0  0
   -1.8837   -4.1029   -0.1919 H   0  0  0  0  0  0  0  0  0  0  0  0
   -0.2856   -2.8794    0.5658 C   0  0  0  0  0  0  0  0  0  0  0  0
    0.8719   -3.1705    0.8082 O   0  0  0  0  0  0  0  0  0  0  0  0
   -0.6058   -1.6149    0.1177 N   0  0  0  0  0  0  0  0  0  0  0  0
   -1.5903   -1.4176   -0.0460 H   0  0  0  0  0  0  0  0  0  0  0  0
    0.3591   -0.5183   -0.0683 C   0  0  1  0  0  0  0  0  0  0  0  0
    1.1278   -0.9038   -0.7479 H   0  0  0  0  0  0  0  0  0  0  0  0
   -0.2398    0.7475   -0.7440 C   0  0  0  0  0  0  0  0  0  0  0  0
   -0.3548    1.5238    0.0204 H   0  0  0  0  0  0  0  0  0  0  0  0
    0.4970    1.1225   -1.4622 H   0  0  0  0  0  0  0  0  0  0  0  0
   -1.6032    0.6388   -1.4563 C   0  0  0  0  0  0  0  0  0  0  0  0
   -1.8451    1.6133   -1.8928 H   0  0  0  0  0  0  0  0  0  0  0  0
   -1.5139   -0.0774   -2.2797 H   0  0  0  0  0  0  0  0  0  0  0  0
   -2.9985    0.1220   -0.3649 S   0  0  0  0  0  0  0  0  0  0  0  0
   -4.4184    0.2296   -1.5241 C   0  0  0  0  0  0  0  0  0  0  0  0
   -5.3407   -0.0713   -1.0179 H   0  0  0  0  0  0  0  0  0  0  0  0
   -4.5366    1.2563   -1.8839 H   0  0  0  0  0  0  0  0  0  0  0  0
   -4.2598   -0.4288   -2.3836 H   0  0  0  0  0  0  0  0  0  0  0  0
    1.1022   -0.1124    1.2241 C   0  0  0  0  0  0  0  0  0  0  0  0
    2.2502    0.3078    1.1610 O   0  0  0  0  0  0  0  0  0  0  0  0
    0.3961    0.0381    2.4040 N   0  0  0  0  0  0  0  0  0  0  0  0
   -0.5524   -0.3228    2.4168 H   0  0  0  0  0  0  0  0  0  0  0  0
    1.0031    0.4936    3.6477 C   0  0  0  0  0  0  0  0  0  0  0  0
    1.4059    1.5049    3.5288 H   0  0  0  0  0  0  0  0  0  0  0  0
    0.2576    0.5108    4.4483 H   0  0  0  0  0  0  0  0  0  0  0  0
    1.8163   -0.1770    3.9447 H   0  0  0  0  0  0  0  0  0  0  0  0
  1  2  1  0  0  0  0
  2  3  1  0  0  0  0
  2  4  1  0  0  0  0
  2  5  1  0  0  0  0
  5  6  2  0  0  0  0
  5  7  1  0  0  0  0
  7  8  1  0  0  0  0
  7  9  1  0  0  0  0
  9 10  1  0  0  0  0
  9 11  1  0  0  0  0
  9 22  1  0  0  0  0
 11 12  1  0  0  0  0
 11 13  1  0  0  0  0
 11 14  1  0  0  0  0
 14 15  1  0  0  0  0
 14 16  1  0  0  0  0
 14 17  1  0  0  0  0
 17 18  1  0  0  0  0
 18 19  1  0  0  0  0
 18 20  1  0  0  0  0
 18 21  1  0  0  0  0
 22 23  2  0  0  0  0
 22 24  1  0  0  0  0
 24 25  1  0  0  0  0
 24 26  1  0  0  0  0
 26 27  1  0  0  0  0
 26 28  1  0  0  0  0
 26 29  1  0  0  0  0
M  END
$$$$

  -OEChem-04042216023D

 29 28  0     1  0  0  0  0  0999 V2000
   -1.8059   -4.5815    1.4230 H   0  0  0  0  0  0  0  0  0  0  0  0
   -2.0204   -3.6062    0.9769 C   0  0  0  0  0  0  0  0  0  0  0  0
   -2.6903   -3.0548    1.6410 H   0  0  0  0  0  0  0  0  0  0  0  0
   -2.5162   -3.7610    0.0155 H   0  0  0  0  0  0  0  0  0  0  0  0
   -0.7329   -2.8293    0.7777 C   0  0  0  0  0  0  0  0  0  0  0  0
    0.3307   -3.3117    1.1223 O   0  0  0  0  0  0  0  0  0  0  0  0
   -0.7746   -1.5728    0.2102 N   0  0  0  0  0  0  0  0  0  0  0  0
   -1.6945   -1.1891    0.0038 H   0  0  0  0  0  0  0  0  0  0  0  0
    0.3892   -0.6778    0.0705 C   0  0  1  0  0  0  0  0  0  0  0  0
    1.1449   -1.2367   -0.4935 H   0  0  0  0  0  0  0  0  0  0  0  0
    0.0609    0.5981   -0.7482 C   0  0  0  0  0  0  0  0  0  0  0  0
    0.0074    1.4619   -0.0764 H   0  0  0  0  0  0  0  0  0  0  0  0
    0.8971    0.7809   -1.4312 H   0  0  0  0  0  0  0  0  0  0  0  0
   -1.2425    0.5613   -1.5629 C   0  0  0  0  0  0  0  0  0  0  0  0
   -1.2309    1.3888   -2.2798 H   0  0  0  0  0  0  0  0  0  0  0  0
   -1.3037   -0.3692   -2.1372 H   0  0  0  0  0  0  0  0  0  0  0  0
   -2.7194    0.7509   -0.4780 S   0  0  0  0  0  0  0  0  0  0  0  0
   -4.0727    0.7893   -1.7184 C   0  0  0  0  0  0  0  0  0  0  0  0
   -4.0673   -0.1267   -2.3169 H   0  0  0  0  0  0  0  0  0  0  0  0
   -5.0411    0.8734   -1.2162 H   0  0  0  0  0  0  0  0  0  0  0  0
   -3.9502    1.6475   -2.3862 H   0  0  0  0  0  0  0  0  0  0  0  0
    1.0564   -0.2893    1.4082 C   0  0  0  0  0  0  0  0  0  0  0  0
    2.2639   -0.0955    1.4543 O   0  0  0  0  0  0  0  0  0  0  0  0
    0.2737    0.0872    2.4849 N   0  0  0  0  0  0  0  0  0  0  0  0
   -0.7253   -0.0724    2.4043 H   0  0  0  0  0  0  0  0  0  0  0  0
    0.8245    0.5338    3.7579 C   0  0  0  0  0  0  0  0  0  0  0  0
    1.4466    1.4237    3.6156 H   0  0  0  0  0  0  0  0  0  0  0  0
    0.0172    0.7853    4.4523 H   0  0  0  0  0  0  0  0  0  0  0  0
    1.4362   -0.2555    4.2074 H   0  0  0  0  0  0  0  0  0  0  0  0
  1  2  1  0  0  0  0
  2  3  1  0  0  0  0
  2  4  1  0  0  0  0
  2  5  1  0  0  0  0
  5  6  2  0  0  0  0
  5  7  1  0  0  0  0
  7  8  1  0  0  0  0
  7  9  1  0  0  0  0
  9 10  1  0  0  0  0
  9 11  1  0  0  0  0
  9 22  1  0  0  0  0
 11 12  1  0  0  0  0
 11 13  1  0  0  0  0
 11 14  1  0  0  0  0
 14 15  1  0  0  0  0
 14 16  1  0  0  0  0
 14 17  1  0  0  0  0
 17 18  1  0  0  0  0
 18 19  1  0  0  0  0
 18 20  1  0  0  0  0
 18 21  1  0  0  0  0
 22 23  2  0  0  0  0
 22 24  1  0  0  0  0
 24 25  1  0  0  0  0
 24 26  1  0  0  0  0
 26 27  1  0  0  0  0
 26 28  1  0  0  0  0
 26 29  1  0  0  0  0
M  END
$$$$

  -OEChem-04042216023D

 29 28  0     1  0  0  0  0  0999 V2000
   -2.4217   -4.3097    0.6570 H   0  0  0  0  0  0  0  0  0  0  0  0
   -2.4843   -3.2916    0.2622 C   0  0  0  0  0  0  0  0  0  0  0  0
   -3.2709   -2.7544    0.7970 H   0  0  0  0  0  0  0  0  0  0  0  0
   -2.7413   -3.3430   -0.7986 H   0  0  0  0  0  0  0  0  0  0  0  0
   -1.1559   -2.5819    0.4417 C   0  0  0  0  0  0  0  0  0  0  0  0
   -0.2594   -3.1179    1.0661 O   0  0  0  0  0  0  0  0  0  0  0  0
   -0.9741   -1.3239   -0.0965 N   0  0  0  0  0  0  0  0  0  0  0  0
   -1.7361   -0.9412   -0.6479 H   0  0  0  0  0  0  0  0  0  0  0  0
    0.2919   -0.5733   -0.0617 C   0  0  1  0  0  0  0  0  0  0  0  0
    1.0414   -1.2233   -0.5280 H   0  0  0  0  0  0  0  0  0  0  0  0
    0.2475    0.7300   -0.9000 C   0  0  0  0  0  0  0  0  0  0  0  0
    0.2222    1.5953   -0.2284 H   0  0  0  0  0  0  0  0  0  0  0  0
    1.1927    0.7918   -1.4498 H   0  0  0  0  0  0  0  0  0  0  0  0
   -0.9077    0.8936   -1.9078 C   0  0  0  0  0  0  0  0  0  0  0  0
   -0.5495    1.5330   -2.7214 H   0  0  0  0  0  0  0  0  0  0  0  0
   -1.1726   -0.0672   -2.3596 H   0  0  0  0  0  0  0  0  0  0  0  0
   -2.4040    1.7169   -1.1961 S   0  0  0  0  0  0  0  0  0  0  0  0
   -3.2999    0.6211   -0.0266 C   0  0  0  0  0  0  0  0  0  0  0  0
   -2.6907    0.4255    0.8596 H   0  0  0  0  0  0  0  0  0  0  0  0
   -4.2239    1.1095    0.2984 H   0  0  0  0  0  0  0  0  0  0  0  0
   -3.5633   -0.3241   -0.5090 H   0  0  0  0  0  0  0  0  0  0  0  0
    0.8290   -0.2708    1.3557 C   0  0  0  0  0  0  0  0  0  0  0  0
    2.0366   -0.2136    1.5452 O   0  0  0  0  0  0  0  0  0  0  0  0
   -0.0272    0.1910    2.3390 N   0  0  0  0  0  0  0  0  0  0  0  0
   -1.0188    0.0741    2.1645 H   0  0  0  0  0  0  0  0  0  0  0  0
    0.4178    0.5184    3.6877 C   0  0  0  0  0  0  0  0  0  0  0  0
    1.1785    1.3059    3.6611 H   0  0  0  0  0  0  0  0  0  0  0  0
   -0.4247    0.8748    4.2881 H   0  0  0  0  0  0  0  0  0  0  0  0
    0.8431   -0.3656    4.1746 H   0  0  0  0  0  0  0  0  0  0  0  0
  1  2  1  0  0  0  0
  2  3  1  0  0  0  0
  2  4  1  0  0  0  0
  2  5  1  0  0  0  0
  5  6  2  0  0  0  0
  5  7  1  0  0  0  0
  7  8  1  0  0  0  0
  7  9  1  0  0  0  0
  9 10  1  0  0  0  0
  9 11  1  0  0  0  0
  9 22  1  0  0  0  0
 11 12  1  0  0  0  0
 11 13  1  0  0  0  0
 11 14  1  0  0  0  0
 14 15  1  0  0  0  0
 14 16  1  0  0  0  0
 14 17  1  0  0  0  0
 17 18  1  0  0  0  0
 18 19  1  0  0  0  0
 18 20  1  0  0  0  0
 18 21  1  0  0  0  0
 22 23  2  0  0  0  0
 22 24  1  0  0  0  0
 24 25  1  0  0  0  0
 24 26  1  0  0  0  0
 26 27  1  0  0  0  0
 26 28  1  0  0  0  0
 26 29  1  0  0  0  0
M  END
$$$$

  -OEChem-04042216023D

 29 28  0     1  0  0  0  0  0999 V2000
   -2.4925   -4.3061    0.6950 H   0  0  0  0  0  0  0  0  0  0  0  0
   -2.5328   -3.3240    0.2150 C   0  0  0  0  0  0  0  0  0  0  0  0
   -3.3480   -2.7485    0.6599 H   0  0  0  0  0  0  0  0  0  0  0  0
   -2.7311   -3.4625   -0.8506 H   0  0  0  0  0  0  0  0  0  0  0  0
   -1.2160   -2.5962    0.4064 C   0  0  0  0  0  0  0  0  0  0  0  0
   -0.3137   -3.1220    1.0312 O   0  0  0  0  0  0  0  0  0  0  0  0
   -1.0507   -1.3305   -0.1191 N   0  0  0  0  0  0  0  0  0  0  0  0
   -1.8265   -0.9470   -0.6501 H   0  0  0  0  0  0  0  0  0  0  0  0
    0.2074   -0.5596   -0.0647 C   0  0  1  0  0  0  0  0  0  0  0  0
    0.9671   -1.2079   -0.5173 H   0  0  0  0  0  0  0  0  0  0  0  0
    0.1783    0.7345   -0.9208 C   0  0  0  0  0  0  0  0  0  0  0  0
    0.1328    1.6076   -0.2607 H   0  0  0  0  0  0  0  0  0  0  0  0
    1.1376    0.7980   -1.4454 H   0  0  0  0  0  0  0  0  0  0  0  0
   -0.9517    0.8618   -1.9639 C   0  0  0  0  0  0  0  0  0  0  0  0
   -0.5133    1.2686   -2.8811 H   0  0  0  0  0  0  0  0  0  0  0  0
   -1.3763   -0.1070   -2.2373 H   0  0  0  0  0  0  0  0  0  0  0  0
   -2.2730    2.0328   -1.4384 S   0  0  0  0  0  0  0  0  0  0  0  0
   -2.9246    1.3894    0.1529 C   0  0  0  0  0  0  0  0  0  0  0  0
   -2.1359    1.3765    0.9088 H   0  0  0  0  0  0  0  0  0  0  0  0
   -3.7336    2.0340    0.5102 H   0  0  0  0  0  0  0  0  0  0  0  0
   -3.3187    0.3779    0.0252 H   0  0  0  0  0  0  0  0  0  0  0  0
    0.7325   -0.2595    1.3580 C   0  0  0  0  0  0  0  0  0  0  0  0
    1.9376   -0.1580    1.5449 O   0  0  0  0  0  0  0  0  0  0  0  0
   -0.1350    0.1815    2.3410 N   0  0  0  0  0  0  0  0  0  0  0  0
   -1.1174   -0.0168    2.1882 H   0  0  0  0  0  0  0  0  0  0  0  0
    0.3079    0.5267    3.6861 C   0  0  0  0  0  0  0  0  0  0  0  0
    1.0262    1.3528    3.6533 H   0  0  0  0  0  0  0  0  0  0  0  0
   -0.5450    0.8370    4.2971 H   0  0  0  0  0  0  0  0  0  0  0  0
    0.7842   -0.3351    4.1656 H   0  0  0  0  0  0  0  0  0  0  0  0
  1  2  1  0  0  0  0
  2  3  1  0  0  0  0
  2  4  1  0  0  0  0
  2  5  1  0  0  0  0
  5  6  2  0  0  0  0
  5  7  1  0  0  0  0
  7  8  1  0  0  0  0
  7  9  1  0  0  0  0
  9 10  1  0  0  0  0
  9 11  1  0  0  0  0
  9 22  1  0  0  0  0
 11 12  1  0  0  0  0
 11 13  1  0  0  0  0
 11 14  1  0  0  0  0
 14 15  1  0  0  0  0
 14 16  1  0  0  0  0
 14 17  1  0  0  0  0
 17 18  1  0  0  0  0
 18 19  1  0  0  0  0
 18 20  1  0  0  0  0
 18 21  1  0  0  0  0
 22 23  2  0  0  0  0
 22 24  1  0  0  0  0
 24 25  1  0  0  0  0
 24 26  1  0  0  0  0
 26 27  1  0  0  0  0
 26 28  1  0  0  0  0
 26 29  1  0  0  0  0
M  END
$$$$

  -OEChem-04042216023D

 29 28  0     1  0  0  0  0  0999 V2000
   -2.5133   -4.2654    0.7598 H   0  0  0  0  0  0  0  0  0  0  0  0
   -2.5596   -3.2817    0.2837 C   0  0  0  0  0  0  0  0  0  0  0  0
   -3.3420   -2.6930    0.7684 H   0  0  0  0  0  0  0  0  0  0  0  0
   -2.8119   -3.4147   -0.7711 H   0  0  0  0  0  0  0  0  0  0  0  0
   -1.2220   -2.5781    0.4135 C   0  0  0  0  0  0  0  0  0  0  0  0
   -0.3037   -3.1195    1.0007 O   0  0  0  0  0  0  0  0  0  0  0  0
   -1.0578   -1.3151   -0.1195 N   0  0  0  0  0  0  0  0  0  0  0  0
   -1.8565   -0.9107   -0.5969 H   0  0  0  0  0  0  0  0  0  0  0  0
    0.2049   -0.5491   -0.0787 C   0  0  1  0  0  0  0  0  0  0  0  0
    0.9602   -1.1989   -0.5363 H   0  0  0  0  0  0  0  0  0  0  0  0
    0.1851    0.7552   -0.9215 C   0  0  0  0  0  0  0  0  0  0  0  0
    0.1552    1.6133   -0.2419 H   0  0  0  0  0  0  0  0  0  0  0  0
    1.1437    0.8240   -1.4466 H   0  0  0  0  0  0  0  0  0  0  0  0
   -0.9479    0.9240   -1.9593 C   0  0  0  0  0  0  0  0  0  0  0  0
   -0.4875    1.0637   -2.9429 H   0  0  0  0  0  0  0  0  0  0  0  0
   -1.5912    0.0479   -2.0487 H   0  0  0  0  0  0  0  0  0  0  0  0
   -1.9688    2.4107   -1.5996 S   0  0  0  0  0  0  0  0  0  0  0  0
   -2.7645    1.9997    0.0043 C   0  0  0  0  0  0  0  0  0  0  0  0
   -2.0099    1.8673    0.7847 H   0  0  0  0  0  0  0  0  0  0  0  0
   -3.4350    2.8105    0.3052 H   0  0  0  0  0  0  0  0  0  0  0  0
   -3.3478    1.0792   -0.0860 H   0  0  0  0  0  0  0  0  0  0  0  0
    0.7263   -0.2551    1.3465 C   0  0  0  0  0  0  0  0  0  0  0  0
    1.9306   -0.1671    1.5441 O   0  0  0  0  0  0  0  0  0  0  0  0
   -0.1483    0.1874    2.3232 N   0  0  0  0  0  0  0  0  0  0  0  0
   -1.1307   -0.0001    2.1572 H   0  0  0  0  0  0  0  0  0  0  0  0
    0.2829    0.5015    3.6796 C   0  0  0  0  0  0  0  0  0  0  0  0
    1.0437    1.2892    3.6687 H   0  0  0  0  0  0  0  0  0  0  0  0
   -0.5655    0.8524    4.2747 H   0  0  0  0  0  0  0  0  0  0  0  0
    0.7031   -0.3872    4.1621 H   0  0  0  0  0  0  0  0  0  0  0  0
  1  2  1  0  0  0  0
  2  3  1  0  0  0  0
  2  4  1  0  0  0  0
  2  5  1  0  0  0  0
  5  6  2  0  0  0  0
  5  7  1  0  0  0  0
  7  8  1  0  0  0  0
  7  9  1  0  0  0  0
  9 10  1  0  0  0  0
  9 11  1  0  0  0  0
  9 22  1  0  0  0  0
 11 12  1  0  0  0  0
 11 13  1  0  0  0  0
 11 14  1  0  0  0  0
 14 15  1  0  0  0  0
 14 16  1  0  0  0  0
 14 17  1  0  0  0  0
 17 18  1  0  0  0  0
 18 19  1  0  0  0  0
 18 20  1  0  0  0  0
 18 21  1  0  0  0  0
 22 23  2  0  0  0  0
 22 24  1  0  0  0  0
 24 25  1  0  0  0  0
 24 26  1  0  0  0  0
 26 27  1  0  0  0  0
 26 28  1  0  0  0  0
 26 29  1  0  0  0  0
M  END
$$$$

  -OEChem-04042216023D

 29 28  0     1  0  0  0  0  0999 V2000
   -2.5200   -4.2664    0.7689 H   0  0  0  0  0  0  0  0  0  0  0  0
   -2.5665   -3.2825    0.2931 C   0  0  0  0  0  0  0  0  0  0  0  0
   -3.3513   -2.6956    0.7761 H   0  0  0  0  0  0  0  0  0  0  0  0
   -2.8154   -3.4151   -0.7625 H   0  0  0  0  0  0  0  0  0  0  0  0
   -1.2310   -2.5755    0.4265 C   0  0  0  0  0  0  0  0  0  0  0  0
   -0.3154   -3.1131    1.0210 O   0  0  0  0  0  0  0  0  0  0  0  0
   -1.0657   -1.3151   -0.1137 N   0  0  0  0  0  0  0  0  0  0  0  0
   -1.8608   -0.9219   -0.6050 H   0  0  0  0  0  0  0  0  0  0  0  0
    0.2009   -0.5539   -0.0830 C   0  0  1  0  0  0  0  0  0  0  0  0
    0.9520   -1.2060   -0.5436 H   0  0  0  0  0  0  0  0  0  0  0  0
    0.1900    0.7557   -0.9196 C   0  0  0  0  0  0  0  0  0  0  0  0
    0.1534    1.5978   -0.2215 H   0  0  0  0  0  0  0  0  0  0  0  0
    1.1505    0.8414   -1.4389 H   0  0  0  0  0  0  0  0  0  0  0  0
   -0.9436    0.9511   -1.9515 C   0  0  0  0  0  0  0  0  0  0  0  0
   -0.5358    0.7889   -2.9547 H   0  0  0  0  0  0  0  0  0  0  0  0
   -1.7666    0.2481   -1.8276 H   0  0  0  0  0  0  0  0  0  0  0  0
   -1.6381    2.6507   -1.8478 S   0  0  0  0  0  0  0  0  0  0  0  0
   -2.5460    2.6331   -0.2493 C   0  0  0  0  0  0  0  0  0  0  0  0
   -1.8588    2.4571    0.5833 H   0  0  0  0  0  0  0  0  0  0  0  0
   -3.0408    3.5963   -0.0919 H   0  0  0  0  0  0  0  0  0  0  0  0
   -3.3063    1.8469   -0.2527 H   0  0  0  0  0  0  0  0  0  0  0  0
    0.7260   -0.2590    1.3407 C   0  0  0  0  0  0  0  0  0  0  0  0
    1.9307   -0.1797    1.5391 O   0  0  0  0  0  0  0  0  0  0  0  0
   -0.1468    0.1897    2.3159 N   0  0  0  0  0  0  0  0  0  0  0  0
   -1.1314    0.0183    2.1450 H   0  0  0  0  0  0  0  0  0  0  0  0
    0.2845    0.5000    3.6731 C   0  0  0  0  0  0  0  0  0  0  0  0
    1.0410    1.2917    3.6642 H   0  0  0  0  0  0  0  0  0  0  0  0
   -0.5649    0.8431    4.2712 H   0  0  0  0  0  0  0  0  0  0  0  0
    0.7105   -0.3887    4.1506 H   0  0  0  0  0  0  0  0  0  0  0  0
  1  2  1  0  0  0  0
  2  3  1  0  0  0  0
  2  4  1  0  0  0  0
  2  5  1  0  0  0  0
  5  6  2  0  0  0  0
  5  7  1  0  0  0  0
  7  8  1  0  0  0  0
  7  9  1  0  0  0  0
  9 10  1  0  0  0  0
  9 11  1  0  0  0  0
  9 22  1  0  0  0  0
 11 12  1  0  0  0  0
 11 13  1  0  0  0  0
 11 14  1  0  0  0  0
 14 15  1  0  0  0  0
 14 16  1  0  0  0  0
 14 17  1  0  0  0  0
 17 18  1  0  0  0  0
 18 19  1  0  0  0  0
 18 20  1  0  0  0  0
 18 21  1  0  0  0  0
 22 23  2  0  0  0  0
 22 24  1  0  0  0  0
 24 25  1  0  0  0  0
 24 26  1  0  0  0  0
 26 27  1  0  0  0  0
 26 28  1  0  0  0  0
 26 29  1  0  0  0  0
M  END
$$$$

  -OEChem-04042216023D

 29 28  0     1  0  0  0  0  0999 V2000
   -2.5300   -4.2746    0.7239 H   0  0  0  0  0  0  0  0  0  0  0  0
   -2.5739   -3.2897    0.2499 C   0  0  0  0  0  0  0  0  0  0  0  0
   -3.3958   -2.7230    0.6939 H   0  0  0  0  0  0  0  0  0  0  0  0
   -2.7647   -3.4232   -0.8177 H   0  0  0  0  0  0  0  0  0  0  0  0
   -1.2637   -2.5533    0.4559 C   0  0  0  0  0  0  0  0  0  0  0  0
   -0.3771   -3.0647    1.1143 O   0  0  0  0  0  0  0  0  0  0  0  0
   -1.0901   -1.2981   -0.0946 N   0  0  0  0  0  0  0  0  0  0  0  0
   -1.8325   -0.9688   -0.7010 H   0  0  0  0  0  0  0  0  0  0  0  0
    0.1870   -0.5534   -0.0726 C   0  0  1  0  0  0  0  0  0  0  0  0
    0.9280   -1.2162   -0.5340 H   0  0  0  0  0  0  0  0  0  0  0  0
    0.1833    0.7521   -0.9149 C   0  0  0  0  0  0  0  0  0  0  0  0
    0.1410    1.5929   -0.2161 H   0  0  0  0  0  0  0  0  0  0  0  0
    1.1411    0.8391   -1.4387 H   0  0  0  0  0  0  0  0  0  0  0  0
   -0.9597    0.9410   -1.9326 C   0  0  0  0  0  0  0  0  0  0  0  0
   -0.6709    0.4930   -2.8891 H   0  0  0  0  0  0  0  0  0  0  0  0
   -1.8864    0.4668   -1.6076 H   0  0  0  0  0  0  0  0  0  0  0  0
   -1.3358    2.7266   -2.1576 S   0  0  0  0  0  0  0  0  0  0  0  0
   -2.2328    3.1743   -0.6169 C   0  0  0  0  0  0  0  0  0  0  0  0
   -1.5904    3.0406    0.2580 H   0  0  0  0  0  0  0  0  0  0  0  0
   -2.5450    4.2222   -0.6599 H   0  0  0  0  0  0  0  0  0  0  0  0
   -3.1230    2.5496   -0.5004 H   0  0  0  0  0  0  0  0  0  0  0  0
    0.7252   -0.2549    1.3461 C   0  0  0  0  0  0  0  0  0  0  0  0
    1.9326   -0.1874    1.5337 O   0  0  0  0  0  0  0  0  0  0  0  0
   -0.1338    0.2122    2.3248 N   0  0  0  0  0  0  0  0  0  0  0  0
   -1.1208    0.0423    2.1647 H   0  0  0  0  0  0  0  0  0  0  0  0
    0.3123    0.5137    3.6792 C   0  0  0  0  0  0  0  0  0  0  0  0
    1.0724    1.3020    3.6665 H   0  0  0  0  0  0  0  0  0  0  0  0
   -0.5297    0.8576    4.2874 H   0  0  0  0  0  0  0  0  0  0  0  0
    0.7390   -0.3792    4.1483 H   0  0  0  0  0  0  0  0  0  0  0  0
  1  2  1  0  0  0  0
  2  3  1  0  0  0  0
  2  4  1  0  0  0  0
  2  5  1  0  0  0  0
  5  6  2  0  0  0  0
  5  7  1  0  0  0  0
  7  8  1  0  0  0  0
  7  9  1  0  0  0  0
  9 10  1  0  0  0  0
  9 11  1  0  0  0  0
  9 22  1  0  0  0  0
 11 12  1  0  0  0  0
 11 13  1  0  0  0  0
 11 14  1  0  0  0  0
 14 15  1  0  0  0  0
 14 16  1  0  0  0  0
 14 17  1  0  0  0  0
 17 18  1  0  0  0  0
 18 19  1  0  0  0  0
 18 20  1  0  0  0  0
 18 21  1  0  0  0  0
 22 23  2  0  0  0  0
 22 24  1  0  0  0  0
 24 25  1  0  0  0  0
 24 26  1  0  0  0  0
 26 27  1  0  0  0  0
 26 28  1  0  0  0  0
 26 29  1  0  0  0  0
M  END
$$$$

  -OEChem-04042216023D

 29 28  0     1  0  0  0  0  0999 V2000
   -2.5516   -4.2522    0.7128 H   0  0  0  0  0  0  0  0  0  0  0  0
   -2.5865   -3.2715    0.2294 C   0  0  0  0  0  0  0  0  0  0  0  0
   -3.4152   -2.7000    0.6541 H   0  0  0  0  0  0  0  0  0  0  0  0
   -2.7586   -3.4141   -0.8401 H   0  0  0  0  0  0  0  0  0  0  0  0
   -1.2792   -2.5348    0.4522 C   0  0  0  0  0  0  0  0  0  0  0  0
   -0.4054   -3.0428    1.1299 O   0  0  0  0  0  0  0  0  0  0  0  0
   -1.0931   -1.2836   -0.1033 N   0  0  0  0  0  0  0  0  0  0  0  0
   -1.8157   -0.9667   -0.7402 H   0  0  0  0  0  0  0  0  0  0  0  0
    0.1905   -0.5491   -0.0760 C   0  0  1  0  0  0  0  0  0  0  0  0
    0.9313   -1.2133   -0.5362 H   0  0  0  0  0  0  0  0  0  0  0  0
    0.1793    0.7558   -0.9160 C   0  0  0  0  0  0  0  0  0  0  0  0
    0.1368    1.6028   -0.2248 H   0  0  0  0  0  0  0  0  0  0  0  0
    1.1293    0.8397   -1.4544 H   0  0  0  0  0  0  0  0  0  0  0  0
   -0.9792    0.9137   -1.9151 C   0  0  0  0  0  0  0  0  0  0  0  0
   -0.8204    0.2463   -2.7685 H   0  0  0  0  0  0  0  0  0  0  0  0
   -1.9375    0.6617   -1.4543 H   0  0  0  0  0  0  0  0  0  0  0  0
   -1.0980    2.6547   -2.4928 S   0  0  0  0  0  0  0  0  0  0  0  0
   -1.8277    3.5424   -1.0580 C   0  0  0  0  0  0  0  0  0  0  0  0
   -1.1502    3.5140   -0.1999 H   0  0  0  0  0  0  0  0  0  0  0  0
   -2.0082    4.5891   -1.3209 H   0  0  0  0  0  0  0  0  0  0  0  0
   -2.7796    3.0855   -0.7723 H   0  0  0  0  0  0  0  0  0  0  0  0
    0.7236   -0.2474    1.3438 C   0  0  0  0  0  0  0  0  0  0  0  0
    1.9303   -0.1888    1.5380 O   0  0  0  0  0  0  0  0  0  0  0  0
   -0.1376    0.2321    2.3146 N   0  0  0  0  0  0  0  0  0  0  0  0
   -1.1248    0.0671    2.1494 H   0  0  0  0  0  0  0  0  0  0  0  0
    0.3017    0.5359    3.6706 C   0  0  0  0  0  0  0  0  0  0  0  0
    1.0806    1.3056    3.6586 H   0  0  0  0  0  0  0  0  0  0  0  0
   -0.5379    0.9059    4.2664 H   0  0  0  0  0  0  0  0  0  0  0  0
    0.7017   -0.3627    4.1522 H   0  0  0  0  0  0  0  0  0  0  0  0
  1  2  1  0  0  0  0
  2  3  1  0  0  0  0
  2  4  1  0  0  0  0
  2  5  1  0  0  0  0
  5  6  2  0  0  0  0
  5  7  1  0  0  0  0
  7  8  1  0  0  0  0
  7  9  1  0  0  0  0
  9 10  1  0  0  0  0
  9 11  1  0  0  0  0
  9 22  1  0  0  0  0
 11 12  1  0  0  0  0
 11 13  1  0  0  0  0
 11 14  1  0  0  0  0
 14 15  1  0  0  0  0
 14 16  1  0  0  0  0
 14 17  1  0  0  0  0
 17 18  1  0  0  0  0
 18 19  1  0  0  0  0
 18 20  1  0  0  0  0
 18 21  1  0  0  0  0
 22 23  2  0  0  0  0
 22 24  1  0  0  0  0
 24 25  1  0  0  0  0
 24 26  1  0  0  0  0
 26 27  1  0  0  0  0
 26 28  1  0  0  0  0
 26 29  1  0  0  0  0
M  END
$$$$

  -OEChem-04042216023D

 29 28  0     1  0  0  0  0  0999 V2000
   -2.5635   -4.2413    0.7023 H   0  0  0  0  0  0  0  0  0  0  0  0
   -2.5815   -3.2739    0.1922 C   0  0  0  0  0  0  0  0  0  0  0  0
   -3.4297   -2.6953    0.5658 H   0  0  0  0  0  0  0  0  0  0  0  0
   -2.7085   -3.4449   -0.8795 H   0  0  0  0  0  0  0  0  0  0  0  0
   -1.2868   -2.5254    0.4480 C   0  0  0  0  0  0  0  0  0  0  0  0
   -0.4229   -3.0250    1.1444 O   0  0  0  0  0  0  0  0  0  0  0  0
   -1.0993   -1.2763   -0.1109 N   0  0  0  0  0  0  0  0  0  0  0  0
   -1.8132   -0.9698   -0.7632 H   0  0  0  0  0  0  0  0  0  0  0  0
    0.1825   -0.5381   -0.0826 C   0  0  1  0  0  0  0  0  0  0  0  0
    0.9350   -1.1905   -0.5409 H   0  0  0  0  0  0  0  0  0  0  0  0
    0.1422    0.7722   -0.9153 C   0  0  0  0  0  0  0  0  0  0  0  0
    0.3909    1.6178   -0.2669 H   0  0  0  0  0  0  0  0  0  0  0  0
    0.9265    0.7196   -1.6777 H   0  0  0  0  0  0  0  0  0  0  0  0
   -1.1926    1.0733   -1.6122 C   0  0  0  0  0  0  0  0  0  0  0  0
   -1.4360    0.2655   -2.3098 H   0  0  0  0  0  0  0  0  0  0  0  0
   -1.9968    1.1504   -0.8736 H   0  0  0  0  0  0  0  0  0  0  0  0
   -1.0937    2.6464   -2.5564 S   0  0  0  0  0  0  0  0  0  0  0  0
   -0.9997    3.9320   -1.2462 C   0  0  0  0  0  0  0  0  0  0  0  0
   -0.0651    3.8429   -0.6852 H   0  0  0  0  0  0  0  0  0  0  0  0
   -1.0374    4.9280   -1.6974 H   0  0  0  0  0  0  0  0  0  0  0  0
   -1.8398    3.8303   -0.5530 H   0  0  0  0  0  0  0  0  0  0  0  0
    0.7062   -0.2316    1.3404 C   0  0  0  0  0  0  0  0  0  0  0  0
    1.9118   -0.1601    1.5380 O   0  0  0  0  0  0  0  0  0  0  0  0
   -0.1606    0.2480    2.3061 N   0  0  0  0  0  0  0  0  0  0  0  0
   -1.1466    0.0760    2.1411 H   0  0  0  0  0  0  0  0  0  0  0  0
    0.2751    0.5810    3.6568 C   0  0  0  0  0  0  0  0  0  0  0  0
    1.0366    1.3677    3.6320 H   0  0  0  0  0  0  0  0  0  0  0  0
   -0.5712    0.9411    4.2495 H   0  0  0  0  0  0  0  0  0  0  0  0
    0.6965   -0.3010    4.1510 H   0  0  0  0  0  0  0  0  0  0  0  0
  1  2  1  0  0  0  0
  2  3  1  0  0  0  0
  2  4  1  0  0  0  0
  2  5  1  0  0  0  0
  5  6  2  0  0  0  0
  5  7  1  0  0  0  0
  7  8  1  0  0  0  0
  7  9  1  0  0  0  0
  9 10  1  0  0  0  0
  9 11  1  0  0  0  0
  9 22  1  0  0  0  0
 11 12  1  0  0  0  0
 11 13  1  0  0  0  0
 11 14  1  0  0  0  0
 14 15  1  0  0  0  0
 14 16  1  0  0  0  0
 14 17  1  0  0  0  0
 17 18  1  0  0  0  0
 18 19  1  0  0  0  0
 18 20  1  0  0  0  0
 18 21  1  0  0  0  0
 22 23  2  0  0  0  0
 22 24  1  0  0  0  0
 24 25  1  0  0  0  0
 24 26  1  0  0  0  0
 26 27  1  0  0  0  0
 26 28  1  0  0  0  0
 26 29  1  0  0  0  0
M  END
$$$$

  -OEChem-04042216023D

 29 28  0     1  0  0  0  0  0999 V2000
   -2.5016   -4.2692    0.7518 H   0  0  0  0  0  0  0  0  0  0  0  0
   -2.5478   -3.3089    0.2300 C   0  0  0  0  0  0  0  0  0  0  0  0
   -3.3932   -2.7374    0.6207 H   0  0  0  0  0  0  0  0  0  0  0  0
   -2.7029   -3.4961   -0.8354 H   0  0  0  0  0  0  0  0  0  0  0  0
   -1.2574   -2.5389    0.4396 C   0  0  0  0  0  0  0  0  0  0  0  0
   -0.3593   -3.0266    1.1006 O   0  0  0  0  0  0  0  0  0  0  0  0
   -1.1130   -1.2816   -0.1137 N   0  0  0  0  0  0  0  0  0  0  0  0
   -1.8604   -0.9735   -0.7265 H   0  0  0  0  0  0  0  0  0  0  0  0
    0.1473   -0.5068   -0.0990 C   0  0  1  0  0  0  0  0  0  0  0  0
    0.9109   -1.1372   -0.5696 H   0  0  0  0  0  0  0  0  0  0  0  0
    0.0679    0.8076   -0.9227 C   0  0  0  0  0  0  0  0  0  0  0  0
    0.3128    1.6599   -0.2805 H   0  0  0  0  0  0  0  0  0  0  0  0
    0.8441    0.7608   -1.6936 H   0  0  0  0  0  0  0  0  0  0  0  0
   -1.2758    1.0933   -1.6108 C   0  0  0  0  0  0  0  0  0  0  0  0
   -1.6305    0.1995   -2.1325 H   0  0  0  0  0  0  0  0  0  0  0  0
   -2.0258    1.3849   -0.8687 H   0  0  0  0  0  0  0  0  0  0  0  0
   -1.0905    2.4118   -2.8774 S   0  0  0  0  0  0  0  0  0  0  0  0
   -0.5831    3.8794   -1.8945 C   0  0  0  0  0  0  0  0  0  0  0  0
    0.4078    3.7247   -1.4578 H   0  0  0  0  0  0  0  0  0  0  0  0
   -0.5437    4.7641   -2.5369 H   0  0  0  0  0  0  0  0  0  0  0  0
   -1.3000    4.0638   -1.0891 H   0  0  0  0  0  0  0  0  0  0  0  0
    0.6803   -0.1949    1.3193 C   0  0  0  0  0  0  0  0  0  0  0  0
    1.8855   -0.0854    1.5019 O   0  0  0  0  0  0  0  0  0  0  0  0
   -0.1885    0.2529    2.2985 N   0  0  0  0  0  0  0  0  0  0  0  0
   -1.1708    0.0521    2.1448 H   0  0  0  0  0  0  0  0  0  0  0  0
    0.2524    0.5971    3.6446 C   0  0  0  0  0  0  0  0  0  0  0  0
    0.9905    1.4056    3.6121 H   0  0  0  0  0  0  0  0  0  0  0  0
   -0.5973    0.9321    4.2470 H   0  0  0  0  0  0  0  0  0  0  0  0
    0.7042   -0.2727    4.1331 H   0  0  0  0  0  0  0  0  0  0  0  0
  1  2  1  0  0  0  0
  2  3  1  0  0  0  0
  2  4  1  0  0  0  0
  2  5  1  0  0  0  0
  5  6  2  0  0  0  0
  5  7  1  0  0  0  0
  7  8  1  0  0  0  0
  7  9  1  0  0  0  0
  9 10  1  0  0  0  0
  9 11  1  0  0  0  0
  9 22  1  0  0  0  0
 11 12  1  0  0  0  0
 11 13  1  0  0  0  0
 11 14  1  0  0  0  0
 14 15  1  0  0  0  0
 14 16  1  0  0  0  0
 14 17  1  0  0  0  0
 17 18  1  0  0  0  0
 18 19  1  0  0  0  0
 18 20  1  0  0  0  0
 18 21  1  0  0  0  0
 22 23  2  0  0  0  0
 22 24  1  0  0  0  0
 24 25  1  0  0  0  0
 24 26  1  0  0  0  0
 26 27  1  0  0  0  0
 26 28  1  0  0  0  0
 26 29  1  0  0  0  0
M  END
$$$$

  -OEChem-04042216023D

 29 28  0     1  0  0  0  0  0999 V2000
   -2.4560   -4.2976    0.7822 H   0  0  0  0  0  0  0  0  0  0  0  0
   -2.5300   -3.3363    0.2653 C   0  0  0  0  0  0  0  0  0  0  0  0
   -3.3793   -2.7829    0.6731 H   0  0  0  0  0  0  0  0  0  0  0  0
   -2.6998   -3.5222   -0.7982 H   0  0  0  0  0  0  0  0  0  0  0  0
   -1.2511   -2.5426    0.4562 C   0  0  0  0  0  0  0  0  0  0  0  0
   -0.3377   -3.0115    1.1097 O   0  0  0  0  0  0  0  0  0  0  0  0
   -1.1370   -1.2845   -0.1026 N   0  0  0  0  0  0  0  0  0  0  0  0
   -1.8953   -0.9978   -0.7117 H   0  0  0  0  0  0  0  0  0  0  0  0
    0.1117   -0.4917   -0.1152 C   0  0  1  0  0  0  0  0  0  0  0  0
    0.8736   -1.1161   -0.5968 H   0  0  0  0  0  0  0  0  0  0  0  0
    0.0156    0.8247   -0.9367 C   0  0  0  0  0  0  0  0  0  0  0  0
    0.2809    1.6811   -0.3070 H   0  0  0  0  0  0  0  0  0  0  0  0
    0.7844    0.7625   -1.7142 H   0  0  0  0  0  0  0  0  0  0  0  0
   -1.3289    1.1357   -1.6204 C   0  0  0  0  0  0  0  0  0  0  0  0
   -1.8321    0.2201   -1.9381 H   0  0  0  0  0  0  0  0  0  0  0  0
   -1.9895    1.6686   -0.9292 H   0  0  0  0  0  0  0  0  0  0  0  0
   -1.0610    2.1165   -3.1508 S   0  0  0  0  0  0  0  0  0  0  0  0
   -0.2651    3.6475   -2.5186 C   0  0  0  0  0  0  0  0  0  0  0  0
    0.7132    3.4204   -2.0848 H   0  0  0  0  0  0  0  0  0  0  0  0
   -0.1250    4.3606   -3.3364 H   0  0  0  0  0  0  0  0  0  0  0  0
   -0.8918    4.1127   -1.7521 H   0  0  0  0  0  0  0  0  0  0  0  0
    0.6655   -0.1714    1.2928 C   0  0  0  0  0  0  0  0  0  0  0  0
    1.8719   -0.0408    1.4515 O   0  0  0  0  0  0  0  0  0  0  0  0
   -0.1916    0.2643    2.2876 N   0  0  0  0  0  0  0  0  0  0  0  0
   -1.1730    0.0449    2.1534 H   0  0  0  0  0  0  0  0  0  0  0  0
    0.2710    0.6086    3.6261 C   0  0  0  0  0  0  0  0  0  0  0  0
    0.9972    1.4271    3.5816 H   0  0  0  0  0  0  0  0  0  0  0  0
   -0.5706    0.9292    4.2474 H   0  0  0  0  0  0  0  0  0  0  0  0
    0.7445   -0.2573    4.1009 H   0  0  0  0  0  0  0  0  0  0  0  0
  1  2  1  0  0  0  0
  2  3  1  0  0  0  0
  2  4  1  0  0  0  0
  2  5  1  0  0  0  0
  5  6  2  0  0  0  0
  5  7  1  0  0  0  0
  7  8  1  0  0  0  0
  7  9  1  0  0  0  0
  9 10  1  0  0  0  0
  9 11  1  0  0  0  0
  9 22  1  0  0  0  0
 11 12  1  0  0  0  0
 11 13  1  0  0  0  0
 11 14  1  0  0  0  0
 14 15  1  0  0  0  0
 14 16  1  0  0  0  0
 14 17  1  0  0  0  0
 17 18  1  0  0  0  0
 18 19  1  0  0  0  0
 18 20  1  0  0  0  0
 18 21  1  0  0  0  0
 22 23  2  0  0  0  0
 22 24  1  0  0  0  0
 24 25  1  0  0  0  0
 24 26  1  0  0  0  0
 26 27  1  0  0  0  0
 26 28  1  0  0  0  0
 26 29  1  0  0  0  0
M  END
$$$$

  -OEChem-04042216023D

 29 28  0     1  0  0  0  0  0999 V2000
   -2.4615   -4.3139    0.7833 H   0  0  0  0  0  0  0  0  0  0  0  0
   -2.5425   -3.3489    0.2748 C   0  0  0  0  0  0  0  0  0  0  0  0
   -3.4087   -2.8142    0.6719 H   0  0  0  0  0  0  0  0  0  0  0  0
   -2.6897   -3.5270   -0.7933 H   0  0  0  0  0  0  0  0  0  0  0  0
   -1.2815   -2.5351    0.4965 C   0  0  0  0  0  0  0  0  0  0  0  0
   -0.3811   -2.9872    1.1792 O   0  0  0  0  0  0  0  0  0  0  0  0
   -1.1677   -1.2832   -0.0764 N   0  0  0  0  0  0  0  0  0  0  0  0
   -1.8987   -1.0384   -0.7349 H   0  0  0  0  0  0  0  0  0  0  0  0
    0.0900   -0.5058   -0.1159 C   0  0  1  0  0  0  0  0  0  0  0  0
    0.8352   -1.1460   -0.6022 H   0  0  0  0  0  0  0  0  0  0  0  0
    0.0109    0.8104   -0.9441 C   0  0  0  0  0  0  0  0  0  0  0  0
    0.3061    1.6620   -0.3209 H   0  0  0  0  0  0  0  0  0  0  0  0
    0.7777    0.7244   -1.7213 H   0  0  0  0  0  0  0  0  0  0  0  0
   -1.3258    1.1745   -1.6270 C   0  0  0  0  0  0  0  0  0  0  0  0
   -2.0044    0.3245   -1.6940 H   0  0  0  0  0  0  0  0  0  0  0  0
   -1.8328    1.9557   -1.0514 H   0  0  0  0  0  0  0  0  0  0  0  0
   -1.0409    1.7403   -3.3524 S   0  0  0  0  0  0  0  0  0  0  0  0
   -0.0796    3.2877   -3.1112 C   0  0  0  0  0  0  0  0  0  0  0  0
    0.8723    3.0756   -2.6156 H   0  0  0  0  0  0  0  0  0  0  0  0
    0.1286    3.7534   -4.0791 H   0  0  0  0  0  0  0  0  0  0  0  0
   -0.6465    3.9941   -2.4977 H   0  0  0  0  0  0  0  0  0  0  0  0
    0.6697   -0.1811    1.2814 C   0  0  0  0  0  0  0  0  0  0  0  0
    1.8803   -0.0648    1.4205 O   0  0  0  0  0  0  0  0  0  0  0  0
   -0.1673    0.2727    2.2851 N   0  0  0  0  0  0  0  0  0  0  0  0
   -1.1519    0.0576    2.1672 H   0  0  0  0  0  0  0  0  0  0  0  0
    0.3179    0.6125    3.6168 C   0  0  0  0  0  0  0  0  0  0  0  0
    1.0602    1.4158    3.5619 H   0  0  0  0  0  0  0  0  0  0  0  0
   -0.5100    0.9523    4.2460 H   0  0  0  0  0  0  0  0  0  0  0  0
    0.7788   -0.2613    4.0894 H   0  0  0  0  0  0  0  0  0  0  0  0
  1  2  1  0  0  0  0
  2  3  1  0  0  0  0
  2  4  1  0  0  0  0
  2  5  1  0  0  0  0
  5  6  2  0  0  0  0
  5  7  1  0  0  0  0
  7  8  1  0  0  0  0
  7  9  1  0  0  0  0
  9 10  1  0  0  0  0
  9 11  1  0  0  0  0
  9 22  1  0  0  0  0
 11 12  1  0  0  0  0
 11 13  1  0  0  0  0
 11 14  1  0  0  0  0
 14 15  1  0  0  0  0
 14 16  1  0  0  0  0
 14 17  1  0  0  0  0
 17 18  1  0  0  0  0
 18 19  1  0  0  0  0
 18 20  1  0  0  0  0
 18 21  1  0  0  0  0
 22 23  2  0  0  0  0
 22 24  1  0  0  0  0
 24 25  1  0  0  0  0
 24 26  1  0  0  0  0
 26 27  1  0  0  0  0
 26 28  1  0  0  0  0
 26 29  1  0  0  0  0
M  END
$$$$

  -OEChem-04042216023D

 29 28  0     1  0  0  0  0  0999 V2000
   -2.5137   -4.2933    0.7803 H   0  0  0  0  0  0  0  0  0  0  0  0
   -2.5732   -3.3331    0.2595 C   0  0  0  0  0  0  0  0  0  0  0  0
   -3.4510   -2.7915    0.6198 H   0  0  0  0  0  0  0  0  0  0  0  0
   -2.6826   -3.5219   -0.8112 H   0  0  0  0  0  0  0  0  0  0  0  0
   -1.3183   -2.5206    0.5184 C   0  0  0  0  0  0  0  0  0  0  0  0
   -0.4456   -2.9684    1.2392 O   0  0  0  0  0  0  0  0  0  0  0  0
   -1.1803   -1.2745   -0.0626 N   0  0  0  0  0  0  0  0  0  0  0  0
   -1.8678   -1.0596   -0.7771 H   0  0  0  0  0  0  0  0  0  0  0  0
    0.0952   -0.5272   -0.1045 C   0  0  1  0  0  0  0  0  0  0  0  0
    0.8257   -1.1849   -0.5895 H   0  0  0  0  0  0  0  0  0  0  0  0
    0.0428    0.7885   -0.9377 C   0  0  0  0  0  0  0  0  0  0  0  0
    0.3371    1.6294   -0.2995 H   0  0  0  0  0  0  0  0  0  0  0  0
    0.8213    0.7076   -1.7027 H   0  0  0  0  0  0  0  0  0  0  0  0
   -1.2865    1.1857   -1.6215 C   0  0  0  0  0  0  0  0  0  0  0  0
   -2.1028    0.4955   -1.4124 H   0  0  0  0  0  0  0  0  0  0  0  0
   -1.6018    2.1618   -1.2388 H   0  0  0  0  0  0  0  0  0  0  0  0
   -1.0800    1.3046   -3.4441 S   0  0  0  0  0  0  0  0  0  0  0  0
   -0.0067    2.7850   -3.6327 C   0  0  0  0  0  0  0  0  0  0  0  0
    0.9559    2.6298   -3.1371 H   0  0  0  0  0  0  0  0  0  0  0  0
    0.1766    2.9807   -4.6934 H   0  0  0  0  0  0  0  0  0  0  0  0
   -0.4907    3.6624   -3.1940 H   0  0  0  0  0  0  0  0  0  0  0  0
    0.6833   -0.2078    1.2910 C   0  0  0  0  0  0  0  0  0  0  0  0
    1.8967   -0.1206    1.4281 O   0  0  0  0  0  0  0  0  0  0  0  0
   -0.1410    0.2716    2.2930 N   0  0  0  0  0  0  0  0  0  0  0  0
   -1.1304    0.0771    2.1782 H   0  0  0  0  0  0  0  0  0  0  0  0
    0.3552    0.6070    3.6220 C   0  0  0  0  0  0  0  0  0  0  0  0
    1.1237    1.3850    3.5606 H   0  0  0  0  0  0  0  0  0  0  0  0
   -0.4611    0.9801    4.2476 H   0  0  0  0  0  0  0  0  0  0  0  0
    0.7872   -0.2771    4.1028 H   0  0  0  0  0  0  0  0  0  0  0  0
  1  2  1  0  0  0  0
  2  3  1  0  0  0  0
  2  4  1  0  0  0  0
  2  5  1  0  0  0  0
  5  6  2  0  0  0  0
  5  7  1  0  0  0  0
  7  8  1  0  0  0  0
  7  9  1  0  0  0  0
  9 10  1  0  0  0  0
  9 11  1  0  0  0  0
  9 22  1  0  0  0  0
 11 12  1  0  0  0  0
 11 13  1  0  0  0  0
 11 14  1  0  0  0  0
 14 15  1  0  0  0  0
 14 16  1  0  0  0  0
 14 17  1  0  0  0  0
 17 18  1  0  0  0  0
 18 19  1  0  0  0  0
 18 20  1  0  0  0  0
 18 21  1  0  0  0  0
 22 23  2  0  0  0  0
 22 24  1  0  0  0  0
 24 25  1  0  0  0  0
 24 26  1  0  0  0  0
 26 27  1  0  0  0  0
 26 28  1  0  0  0  0
 26 29  1  0  0  0  0
M  END
$$$$

  -OEChem-04042216023D

 29 28  0     1  0  0  0  0  0999 V2000
   -2.5832   -4.2427    0.7488 H   0  0  0  0  0  0  0  0  0  0  0  0
   -2.6079   -3.2823    0.2261 C   0  0  0  0  0  0  0  0  0  0  0  0
   -3.4848   -2.7225    0.5598 H   0  0  0  0  0  0  0  0  0  0  0  0
   -2.6884   -3.4694   -0.8475 H   0  0  0  0  0  0  0  0  0  0  0  0
   -1.3459   -2.4943    0.5222 C   0  0  0  0  0  0  0  0  0  0  0  0
   -0.5083   -2.9541    1.2764 O   0  0  0  0  0  0  0  0  0  0  0  0
   -1.1645   -1.2550   -0.0606 N   0  0  0  0  0  0  0  0  0  0  0  0
   -1.8180   -1.0382   -0.8076 H   0  0  0  0  0  0  0  0  0  0  0  0
    0.1307   -0.5426   -0.0837 C   0  0  1  0  0  0  0  0  0  0  0  0
    0.8518   -1.2171   -0.5592 H   0  0  0  0  0  0  0  0  0  0  0  0
    0.1061    0.7686   -0.9225 C   0  0  0  0  0  0  0  0  0  0  0  0
    0.3826    1.6041   -0.2698 H   0  0  0  0  0  0  0  0  0  0  0  0
    0.8976    0.7006   -1.6748 H   0  0  0  0  0  0  0  0  0  0  0  0
   -1.2210    1.1627   -1.6072 C   0  0  0  0  0  0  0  0  0  0  0  0
   -2.0948    0.6856   -1.1606 H   0  0  0  0  0  0  0  0  0  0  0  0
   -1.3675    2.2395   -1.4737 H   0  0  0  0  0  0  0  0  0  0  0  0
   -1.1597    0.8337   -3.4140 S   0  0  0  0  0  0  0  0  0  0  0  0
   -0.0412    2.1539   -4.0345 C   0  0  0  0  0  0  0  0  0  0  0  0
    0.9559    2.0532   -3.5967 H   0  0  0  0  0  0  0  0  0  0  0  0
    0.0495    2.0853   -5.1226 H   0  0  0  0  0  0  0  0  0  0  0  0
   -0.4397    3.1401   -3.7790 H   0  0  0  0  0  0  0  0  0  0  0  0
    0.7069   -0.2322    1.3183 C   0  0  0  0  0  0  0  0  0  0  0  0
    1.9200   -0.1730    1.4725 O   0  0  0  0  0  0  0  0  0  0  0  0
   -0.1207    0.2738    2.3042 N   0  0  0  0  0  0  0  0  0  0  0  0
   -1.1117    0.0975    2.1753 H   0  0  0  0  0  0  0  0  0  0  0  0
    0.3613    0.5968    3.6411 C   0  0  0  0  0  0  0  0  0  0  0  0
    1.1449    1.3603    3.5926 H   0  0  0  0  0  0  0  0  0  0  0  0
   -0.4574    0.9833    4.2555 H   0  0  0  0  0  0  0  0  0  0  0  0
    0.7691   -0.2965    4.1260 H   0  0  0  0  0  0  0  0  0  0  0  0
  1  2  1  0  0  0  0
  2  3  1  0  0  0  0
  2  4  1  0  0  0  0
  2  5  1  0  0  0  0
  5  6  2  0  0  0  0
  5  7  1  0  0  0  0
  7  8  1  0  0  0  0
  7  9  1  0  0  0  0
  9 10  1  0  0  0  0
  9 11  1  0  0  0  0
  9 22  1  0  0  0  0
 11 12  1  0  0  0  0
 11 13  1  0  0  0  0
 11 14  1  0  0  0  0
 14 15  1  0  0  0  0
 14 16  1  0  0  0  0
 14 17  1  0  0  0  0
 17 18  1  0  0  0  0
 18 19  1  0  0  0  0
 18 20  1  0  0  0  0
 18 21  1  0  0  0  0
 22 23  2  0  0  0  0
 22 24  1  0  0  0  0
 24 25  1  0  0  0  0
 24 26  1  0  0  0  0
 26 27  1  0  0  0  0
 26 28  1  0  0  0  0
 26 29  1  0  0  0  0
M  END
$$$$

  -OEChem-04042216023D

 29 28  0     1  0  0  0  0  0999 V2000
   -2.6166   -4.2087    0.6834 H   0  0  0  0  0  0  0  0  0  0  0  0
   -2.6282   -3.2334    0.1884 C   0  0  0  0  0  0  0  0  0  0  0  0
   -3.5008   -2.6736    0.5333 H   0  0  0  0  0  0  0  0  0  0  0  0
   -2.7055   -3.3894   -0.8904 H   0  0  0  0  0  0  0  0  0  0  0  0
   -1.3594   -2.4681    0.5129 C   0  0  0  0  0  0  0  0  0  0  0  0
   -0.5476   -2.9415    1.2869 O   0  0  0  0  0  0  0  0  0  0  0  0
   -1.1421   -1.2332   -0.0661 N   0  0  0  0  0  0  0  0  0  0  0  0
   -1.7716   -1.0055   -0.8317 H   0  0  0  0  0  0  0  0  0  0  0  0
    0.1665   -0.5459   -0.0646 C   0  0  1  0  0  0  0  0  0  0  0  0
    0.8848   -1.2297   -0.5309 H   0  0  0  0  0  0  0  0  0  0  0  0
    0.1607    0.7613   -0.9067 C   0  0  0  0  0  0  0  0  0  0  0  0
    0.4249    1.5983   -0.2508 H   0  0  0  0  0  0  0  0  0  0  0  0
    0.9561    0.6978   -1.6550 H   0  0  0  0  0  0  0  0  0  0  0  0
   -1.1678    1.1345   -1.5921 C   0  0  0  0  0  0  0  0  0  0  0  0
   -2.0362    0.8683   -0.9837 H   0  0  0  0  0  0  0  0  0  0  0  0
   -1.2003    2.2227   -1.7084 H   0  0  0  0  0  0  0  0  0  0  0  0
   -1.2793    0.3951   -3.2709 S   0  0  0  0  0  0  0  0  0  0  0  0
   -0.1393    1.4387   -4.2660 C   0  0  0  0  0  0  0  0  0  0  0  0
    0.8837    1.3659   -3.8863 H   0  0  0  0  0  0  0  0  0  0  0  0
   -0.1456    1.1081   -5.3090 H   0  0  0  0  0  0  0  0  0  0  0  0
   -0.4547    2.4856   -4.2300 H   0  0  0  0  0  0  0  0  0  0  0  0
    0.7247   -0.2440    1.3462 C   0  0  0  0  0  0  0  0  0  0  0  0
    1.9359   -0.2065    1.5204 O   0  0  0  0  0  0  0  0  0  0  0  0
   -0.1105    0.2796    2.3166 N   0  0  0  0  0  0  0  0  0  0  0  0
   -1.1019    0.1184    2.1713 H   0  0  0  0  0  0  0  0  0  0  0  0
    0.3532    0.5972    3.6613 C   0  0  0  0  0  0  0  0  0  0  0  0
    1.1613    1.3356    3.6252 H   0  0  0  0  0  0  0  0  0  0  0  0
   -0.4661    1.0139    4.2547 H   0  0  0  0  0  0  0  0  0  0  0  0
    0.7227   -0.3046    4.1612 H   0  0  0  0  0  0  0  0  0  0  0  0
  1  2  1  0  0  0  0
  2  3  1  0  0  0  0
  2  4  1  0  0  0  0
  2  5  1  0  0  0  0
  5  6  2  0  0  0  0
  5  7  1  0  0  0  0
  7  8  1  0  0  0  0
  7  9  1  0  0  0  0
  9 10  1  0  0  0  0
  9 11  1  0  0  0  0
  9 22  1  0  0  0  0
 11 12  1  0  0  0  0
 11 13  1  0  0  0  0
 11 14  1  0  0  0  0
 14 15  1  0  0  0  0
 14 16  1  0  0  0  0
 14 17  1  0  0  0  0
 17 18  1  0  0  0  0
 18 19  1  0  0  0  0
 18 20  1  0  0  0  0
 18 21  1  0  0  0  0
 22 23  2  0  0  0  0
 22 24  1  0  0  0  0
 24 25  1  0  0  0  0
 24 26  1  0  0  0  0
 26 27  1  0  0  0  0
 26 28  1  0  0  0  0
 26 29  1  0  0  0  0
M  END
$$$$

  -OEChem-04042216023D

 29 28  0     1  0  0  0  0  0999 V2000
   -2.6245   -4.1859    0.6460 H   0  0  0  0  0  0  0  0  0  0  0  0
   -2.6291   -3.2052    0.1615 C   0  0  0  0  0  0  0  0  0  0  0  0
   -3.5007   -2.6447    0.5081 H   0  0  0  0  0  0  0  0  0  0  0  0
   -2.7019   -3.3485   -0.9195 H   0  0  0  0  0  0  0  0  0  0  0  0
   -1.3583   -2.4494    0.5003 C   0  0  0  0  0  0  0  0  0  0  0  0
   -0.5579   -2.9293    1.2824 O   0  0  0  0  0  0  0  0  0  0  0  0
   -1.1265   -1.2156   -0.0744 N   0  0  0  0  0  0  0  0  0  0  0  0
   -1.7457   -0.9816   -0.8481 H   0  0  0  0  0  0  0  0  0  0  0  0
    0.1855   -0.5359   -0.0608 C   0  0  1  0  0  0  0  0  0  0  0  0
    0.9051   -1.2205   -0.5239 H   0  0  0  0  0  0  0  0  0  0  0  0
    0.1806    0.7725   -0.9001 C   0  0  0  0  0  0  0  0  0  0  0  0
    0.4459    1.6126   -0.2488 H   0  0  0  0  0  0  0  0  0  0  0  0
    0.9706    0.7067   -1.6536 H   0  0  0  0  0  0  0  0  0  0  0  0
   -1.1509    1.1319   -1.5827 C   0  0  0  0  0  0  0  0  0  0  0  0
   -1.9790    1.0679   -0.8698 H   0  0  0  0  0  0  0  0  0  0  0  0
   -1.1038    2.1726   -1.9194 H   0  0  0  0  0  0  0  0  0  0  0  0
   -1.4760    0.0677   -3.0488 S   0  0  0  0  0  0  0  0  0  0  0  0
   -0.2714    0.6807   -4.2947 C   0  0  0  0  0  0  0  0  0  0  0  0
    0.7546    0.5063   -3.9588 H   0  0  0  0  0  0  0  0  0  0  0  0
   -0.4177    0.1573   -5.2444 H   0  0  0  0  0  0  0  0  0  0  0  0
   -0.4105    1.7529   -4.4624 H   0  0  0  0  0  0  0  0  0  0  0  0
    0.7332   -0.2385    1.3545 C   0  0  0  0  0  0  0  0  0  0  0  0
    1.9431   -0.2080    1.5394 O   0  0  0  0  0  0  0  0  0  0  0  0
   -0.1080    0.2888    2.3176 N   0  0  0  0  0  0  0  0  0  0  0  0
   -1.0986    0.1299    2.1636 H   0  0  0  0  0  0  0  0  0  0  0  0
    0.3451    0.6003    3.6673 C   0  0  0  0  0  0  0  0  0  0  0  0
    1.1561    1.3357    3.6403 H   0  0  0  0  0  0  0  0  0  0  0  0
   -0.4776    1.0182    4.2552 H   0  0  0  0  0  0  0  0  0  0  0  0
    0.7067   -0.3045    4.1672 H   0  0  0  0  0  0  0  0  0  0  0  0
  1  2  1  0  0  0  0
  2  3  1  0  0  0  0
  2  4  1  0  0  0  0
  2  5  1  0  0  0  0
  5  6  2  0  0  0  0
  5  7  1  0  0  0  0
  7  8  1  0  0  0  0
  7  9  1  0  0  0  0
  9 10  1  0  0  0  0
  9 11  1  0  0  0  0
  9 22  1  0  0  0  0
 11 12  1  0  0  0  0
 11 13  1  0  0  0  0
 11 14  1  0  0  0  0
 14 15  1  0  0  0  0
 14 16  1  0  0  0  0
 14 17  1  0  0  0  0
 17 18  1  0  0  0  0
 18 19  1  0  0  0  0
 18 20  1  0  0  0  0
 18 21  1  0  0  0  0
 22 23  2  0  0  0  0
 22 24  1  0  0  0  0
 24 25  1  0  0  0  0
 24 26  1  0  0  0  0
 26 27  1  0  0  0  0
 26 28  1  0  0  0  0
 26 29  1  0  0  0  0
M  END
$$$$

  -OEChem-04042216023D

 29 28  0     1  0  0  0  0  0999 V2000
   -2.6260   -4.1561    0.6646 H   0  0  0  0  0  0  0  0  0  0  0  0
   -2.6123   -3.2009    0.1322 C   0  0  0  0  0  0  0  0  0  0  0  0
   -3.4766   -2.6107    0.4459 H   0  0  0  0  0  0  0  0  0  0  0  0
   -2.6821   -3.3947   -0.9411 H   0  0  0  0  0  0  0  0  0  0  0  0
   -1.3310   -2.4496    0.4393 C   0  0  0  0  0  0  0  0  0  0  0  0
   -0.4905   -2.9511    1.1640 O   0  0  0  0  0  0  0  0  0  0  0  0
   -1.1302   -1.1980   -0.1063 N   0  0  0  0  0  0  0  0  0  0  0  0
   -1.7941   -0.9287   -0.8300 H   0  0  0  0  0  0  0  0  0  0  0  0
    0.1643   -0.4895   -0.1009 C   0  0  1  0  0  0  0  0  0  0  0  0
    0.8880   -1.1521   -0.5887 H   0  0  0  0  0  0  0  0  0  0  0  0
    0.1327    0.8369   -0.9127 C   0  0  0  0  0  0  0  0  0  0  0  0
    0.4073    1.6661   -0.2514 H   0  0  0  0  0  0  0  0  0  0  0  0
    0.9151    0.7845   -1.6755 H   0  0  0  0  0  0  0  0  0  0  0  0
   -1.1942    1.2261   -1.5939 C   0  0  0  0  0  0  0  0  0  0  0  0
   -1.9616    1.3715   -0.8267 H   0  0  0  0  0  0  0  0  0  0  0  0
   -1.0571    2.1872   -2.1003 H   0  0  0  0  0  0  0  0  0  0  0  0
   -1.8045   -0.0020   -2.8296 S   0  0  0  0  0  0  0  0  0  0  0  0
   -0.4151   -0.1405   -4.0238 C   0  0  0  0  0  0  0  0  0  0  0  0
    0.4565   -0.5991   -3.5477 H   0  0  0  0  0  0  0  0  0  0  0  0
   -0.7125   -0.7627   -4.8733 H   0  0  0  0  0  0  0  0  0  0  0  0
   -0.1349    0.8492   -4.3967 H   0  0  0  0  0  0  0  0  0  0  0  0
    0.7303   -0.2149    1.3115 C   0  0  0  0  0  0  0  0  0  0  0  0
    1.9424   -0.1565    1.4740 O   0  0  0  0  0  0  0  0  0  0  0  0
   -0.1043    0.2688    2.3028 N   0  0  0  0  0  0  0  0  0  0  0  0
   -1.0951    0.0981    2.1626 H   0  0  0  0  0  0  0  0  0  0  0  0
    0.3683    0.5762    3.6466 C   0  0  0  0  0  0  0  0  0  0  0  0
    1.1360    1.3564    3.6138 H   0  0  0  0  0  0  0  0  0  0  0  0
   -0.4593    0.9342    4.2662 H   0  0  0  0  0  0  0  0  0  0  0  0
    0.7934   -0.3174    4.1159 H   0  0  0  0  0  0  0  0  0  0  0  0
  1  2  1  0  0  0  0
  2  3  1  0  0  0  0
  2  4  1  0  0  0  0
  2  5  1  0  0  0  0
  5  6  2  0  0  0  0
  5  7  1  0  0  0  0
  7  8  1  0  0  0  0
  7  9  1  0  0  0  0
  9 10  1  0  0  0  0
  9 11  1  0  0  0  0
  9 22  1  0  0  0  0
 11 12  1  0  0  0  0
 11 13  1  0  0  0  0
 11 14  1  0  0  0  0
 14 15  1  0  0  0  0
 14 16  1  0  0  0  0
 14 17  1  0  0  0  0
 17 18  1  0  0  0  0
 18 19  1  0  0  0  0
 18 20  1  0  0  0  0
 18 21  1  0  0  0  0
 22 23  2  0  0  0  0
 22 24  1  0  0  0  0
 24 25  1  0  0  0  0
 24 26  1  0  0  0  0
 26 27  1  0  0  0  0
 26 28  1  0  0  0  0
 26 29  1  0  0  0  0
M  END
$$$$

  -OEChem-04042216023D

 29 28  0     1  0  0  0  0  0999 V2000
   -2.5800   -4.2029    0.7017 H   0  0  0  0  0  0  0  0  0  0  0  0
   -2.5980   -3.2286    0.2050 C   0  0  0  0  0  0  0  0  0  0  0  0
   -3.4386   -2.6498    0.5947 H   0  0  0  0  0  0  0  0  0  0  0  0
   -2.7366   -3.3830   -0.8677 H   0  0  0  0  0  0  0  0  0  0  0  0
   -1.2979   -2.4896    0.4570 C   0  0  0  0  0  0  0  0  0  0  0  0
   -0.4302   -2.9994    1.1428 O   0  0  0  0  0  0  0  0  0  0  0  0
   -1.1079   -1.2406   -0.0972 N   0  0  0  0  0  0  0  0  0  0  0  0
   -1.8174   -0.9368   -0.7606 H   0  0  0  0  0  0  0  0  0  0  0  0
    0.1713   -0.5100   -0.0956 C   0  0  1  0  0  0  0  0  0  0  0  0
    0.9066   -1.1766   -0.5605 H   0  0  0  0  0  0  0  0  0  0  0  0
    0.1609    0.8059   -0.9308 C   0  0  0  0  0  0  0  0  0  0  0  0
    0.4569    1.6400   -0.2847 H   0  0  0  0  0  0  0  0  0  0  0  0
    0.9544    0.7064   -1.6784 H   0  0  0  0  0  0  0  0  0  0  0  0
   -1.1159    1.2542   -1.6812 C   0  0  0  0  0  0  0  0  0  0  0  0
   -1.8141    1.6650   -0.9448 H   0  0  0  0  0  0  0  0  0  0  0  0
   -0.8471    2.0703   -2.3598 H   0  0  0  0  0  0  0  0  0  0  0  0
   -2.0221   -0.0327   -2.6473 S   0  0  0  0  0  0  0  0  0  0  0  0
   -0.7096   -0.6949   -3.7494 C   0  0  0  0  0  0  0  0  0  0  0  0
    0.0773   -1.1770   -3.1621 H   0  0  0  0  0  0  0  0  0  0  0  0
   -1.1334   -1.4341   -4.4356 H   0  0  0  0  0  0  0  0  0  0  0  0
   -0.2654    0.1135   -4.3377 H   0  0  0  0  0  0  0  0  0  0  0  0
    0.7190   -0.2163    1.3198 C   0  0  0  0  0  0  0  0  0  0  0  0
    1.9283   -0.1432    1.4957 O   0  0  0  0  0  0  0  0  0  0  0  0
   -0.1325    0.2588    2.3008 N   0  0  0  0  0  0  0  0  0  0  0  0
   -1.1210    0.0878    2.1463 H   0  0  0  0  0  0  0  0  0  0  0  0
    0.3214    0.5747    3.6491 C   0  0  0  0  0  0  0  0  0  0  0  0
    1.0847    1.3595    3.6223 H   0  0  0  0  0  0  0  0  0  0  0  0
   -0.5159    0.9302    4.2570 H   0  0  0  0  0  0  0  0  0  0  0  0
    0.7464   -0.3141    4.1274 H   0  0  0  0  0  0  0  0  0  0  0  0
  1  2  1  0  0  0  0
  2  3  1  0  0  0  0
  2  4  1  0  0  0  0
  2  5  1  0  0  0  0
  5  6  2  0  0  0  0
  5  7  1  0  0  0  0
  7  8  1  0  0  0  0
  7  9  1  0  0  0  0
  9 10  1  0  0  0  0
  9 11  1  0  0  0  0
  9 22  1  0  0  0  0
 11 12  1  0  0  0  0
 11 13  1  0  0  0  0
 11 14  1  0  0  0  0
 14 15  1  0  0  0  0
 14 16  1  0  0  0  0
 14 17  1  0  0  0  0
 17 18  1  0  0  0  0
 18 19  1  0  0  0  0
 18 20  1  0  0  0  0
 18 21  1  0  0  0  0
 22 23  2  0  0  0  0
 22 24  1  0  0  0  0
 24 25  1  0  0  0  0
 24 26  1  0  0  0  0
 26 27  1  0  0  0  0
 26 28  1  0  0  0  0
 26 29  1  0  0  0  0
M  END
$$$$

  -OEChem-04042216023D

 29 28  0     1  0  0  0  0  0999 V2000
   -2.5245   -4.2608    0.8379 H   0  0  0  0  0  0  0  0  0  0  0  0
   -2.5609   -3.2849    0.3453 C   0  0  0  0  0  0  0  0  0  0  0  0
   -3.3755   -2.7005    0.7795 H   0  0  0  0  0  0  0  0  0  0  0  0
   -2.7570   -3.4353   -0.7192 H   0  0  0  0  0  0  0  0  0  0  0  0
   -1.2436   -2.5562    0.5313 C   0  0  0  0  0  0  0  0  0  0  0  0
   -0.3512   -3.0657    1.1848 O   0  0  0  0  0  0  0  0  0  0  0  0
   -1.0626   -1.3185   -0.0505 N   0  0  0  0  0  0  0  0  0  0  0  0
   -1.8126   -0.9888   -0.6533 H   0  0  0  0  0  0  0  0  0  0  0  0
    0.2000   -0.5626   -0.0508 C   0  0  1  0  0  0  0  0  0  0  0  0
    0.9536   -1.2345   -0.4773 H   0  0  0  0  0  0  0  0  0  0  0  0
    0.2115    0.7307   -0.9252 C   0  0  0  0  0  0  0  0  0  0  0  0
    0.5140    1.5771   -0.2986 H   0  0  0  0  0  0  0  0  0  0  0  0
    1.0242    0.5870   -1.6446 H   0  0  0  0  0  0  0  0  0  0  0  0
   -1.0114    1.2100   -1.7533 C   0  0  0  0  0  0  0  0  0  0  0  0
   -1.5966    1.8715   -1.1064 H   0  0  0  0  0  0  0  0  0  0  0  0
   -0.6425    1.8235   -2.5818 H   0  0  0  0  0  0  0  0  0  0  0  0
   -2.1971   -0.0296   -2.4344 S   0  0  0  0  0  0  0  0  0  0  0  0
   -1.1072   -1.0316   -3.5228 C   0  0  0  0  0  0  0  0  0  0  0  0
   -0.3167   -1.5111   -2.9379 H   0  0  0  0  0  0  0  0  0  0  0  0
   -1.6902   -1.8094   -4.0252 H   0  0  0  0  0  0  0  0  0  0  0  0
   -0.6444   -0.3961   -4.2838 H   0  0  0  0  0  0  0  0  0  0  0  0
    0.7125   -0.2251    1.3686 C   0  0  0  0  0  0  0  0  0  0  0  0
    1.9161   -0.1309    1.5712 O   0  0  0  0  0  0  0  0  0  0  0  0
   -0.1681    0.2549    2.3211 N   0  0  0  0  0  0  0  0  0  0  0  0
   -1.1519    0.0814    2.1426 H   0  0  0  0  0  0  0  0  0  0  0  0
    0.2479    0.6155    3.6706 C   0  0  0  0  0  0  0  0  0  0  0  0
    1.0086    1.4027    3.6410 H   0  0  0  0  0  0  0  0  0  0  0  0
   -0.6072    0.9860    4.2438 H   0  0  0  0  0  0  0  0  0  0  0  0
    0.6629   -0.2559    4.1880 H   0  0  0  0  0  0  0  0  0  0  0  0
  1  2  1  0  0  0  0
  2  3  1  0  0  0  0
  2  4  1  0  0  0  0
  2  5  1  0  0  0  0
  5  6  2  0  0  0  0
  5  7  1  0  0  0  0
  7  8  1  0  0  0  0
  7  9  1  0  0  0  0
  9 10  1  0  0  0  0
  9 11  1  0  0  0  0
  9 22  1  0  0  0  0
 11 12  1  0  0  0  0
 11 13  1  0  0  0  0
 11 14  1  0  0  0  0
 14 15  1  0  0  0  0
 14 16  1  0  0  0  0
 14 17  1  0  0  0  0
 17 18  1  0  0  0  0
 18 19  1  0  0  0  0
 18 20  1  0  0  0  0
 18 21  1  0  0  0  0
 22 23  2  0  0  0  0
 22 24  1  0  0  0  0
 24 25  1  0  0  0  0
 24 26  1  0  0  0  0
 26 27  1  0  0  0  0
 26 28  1  0  0  0  0
 26 29  1  0  0  0  0
M  END
$$$$

  -OEChem-04042216023D

 29 28  0     1  0  0  0  0  0999 V2000
   -2.4320   -4.3139    1.0538 H   0  0  0  0  0  0  0  0  0  0  0  0
   -2.4886   -3.3551    0.5308 C   0  0  0  0  0  0  0  0  0  0  0  0
   -3.2859   -2.7568    0.9779 H   0  0  0  0  0  0  0  0  0  0  0  0
   -2.7263   -3.5409   -0.5195 H   0  0  0  0  0  0  0  0  0  0  0  0
   -1.1654   -2.6219    0.6408 C   0  0  0  0  0  0  0  0  0  0  0  0
   -0.2446   -3.1166    1.2655 O   0  0  0  0  0  0  0  0  0  0  0  0
   -1.0109   -1.3973    0.0244 N   0  0  0  0  0  0  0  0  0  0  0  0
   -1.8010   -1.0553   -0.5162 H   0  0  0  0  0  0  0  0  0  0  0  0
    0.2316   -0.6104    0.0063 C   0  0  1  0  0  0  0  0  0  0  0  0
    1.0020   -1.2814   -0.3907 H   0  0  0  0  0  0  0  0  0  0  0  0
    0.2417    0.6570   -0.9087 C   0  0  0  0  0  0  0  0  0  0  0  0
    0.5294    1.5199   -0.2973 H   0  0  0  0  0  0  0  0  0  0  0  0
    1.0742    0.4994   -1.6027 H   0  0  0  0  0  0  0  0  0  0  0  0
   -0.9535    1.1296   -1.7876 C   0  0  0  0  0  0  0  0  0  0  0  0
   -1.3867    1.9988   -1.2816 H   0  0  0  0  0  0  0  0  0  0  0  0
   -0.5517    1.4922   -2.7396 H   0  0  0  0  0  0  0  0  0  0  0  0
   -2.3706    0.0095   -2.1578 S   0  0  0  0  0  0  0  0  0  0  0  0
   -1.5833   -1.1980   -3.2980 C   0  0  0  0  0  0  0  0  0  0  0  0
   -0.7423   -1.6979   -2.8080 H   0  0  0  0  0  0  0  0  0  0  0  0
   -2.3107   -1.9558   -3.6040 H   0  0  0  0  0  0  0  0  0  0  0  0
   -1.2137   -0.6879   -4.1928 H   0  0  0  0  0  0  0  0  0  0  0  0
    0.7227   -0.2228    1.4205 C   0  0  0  0  0  0  0  0  0  0  0  0
    1.9220   -0.1009    1.6339 O   0  0  0  0  0  0  0  0  0  0  0  0
   -0.1772    0.2597    2.3537 N   0  0  0  0  0  0  0  0  0  0  0  0
   -1.1576    0.0801    2.1633 H   0  0  0  0  0  0  0  0  0  0  0  0
    0.2173    0.6632    3.6975 C   0  0  0  0  0  0  0  0  0  0  0  0
    0.9611    1.4659    3.6551 H   0  0  0  0  0  0  0  0  0  0  0  0
   -0.6512    1.0291    4.2533 H   0  0  0  0  0  0  0  0  0  0  0  0
    0.6461   -0.1857    4.2405 H   0  0  0  0  0  0  0  0  0  0  0  0
  1  2  1  0  0  0  0
  2  3  1  0  0  0  0
  2  4  1  0  0  0  0
  2  5  1  0  0  0  0
  5  6  2  0  0  0  0
  5  7  1  0  0  0  0
  7  8  1  0  0  0  0
  7  9  1  0  0  0  0
  9 10  1  0  0  0  0
  9 11  1  0  0  0  0
  9 22  1  0  0  0  0
 11 12  1  0  0  0  0
 11 13  1  0  0  0  0
 11 14  1  0  0  0  0
 14 15  1  0  0  0  0
 14 16  1  0  0  0  0
 14 17  1  0  0  0  0
 17 18  1  0  0  0  0
 18 19  1  0  0  0  0
 18 20  1  0  0  0  0
 18 21  1  0  0  0  0
 22 23  2  0  0  0  0
 22 24  1  0  0  0  0
 24 25  1  0  0  0  0
 24 26  1  0  0  0  0
 26 27  1  0  0  0  0
 26 28  1  0  0  0  0
 26 29  1  0  0  0  0
M  END
$$$$

  -OEChem-04042216023D

 29 28  0     1  0  0  0  0  0999 V2000
   -2.3020   -4.3573    1.2548 H   0  0  0  0  0  0  0  0  0  0  0  0
   -2.3714   -3.4341    0.6724 C   0  0  0  0  0  0  0  0  0  0  0  0
   -3.1690   -2.8147    1.0894 H   0  0  0  0  0  0  0  0  0  0  0  0
   -2.6187   -3.6875   -0.3613 H   0  0  0  0  0  0  0  0  0  0  0  0
   -1.0528   -2.6857    0.7205 C   0  0  0  0  0  0  0  0  0  0  0  0
   -0.0988   -3.1671    1.3042 O   0  0  0  0  0  0  0  0  0  0  0  0
   -0.9412   -1.4614    0.0947 N   0  0  0  0  0  0  0  0  0  0  0  0
   -1.7695   -1.1132   -0.3797 H   0  0  0  0  0  0  0  0  0  0  0  0
    0.2756   -0.6371    0.0577 C   0  0  1  0  0  0  0  0  0  0  0  0
    1.0616   -1.2884   -0.3421 H   0  0  0  0  0  0  0  0  0  0  0  0
    0.2444    0.6236   -0.8675 C   0  0  0  0  0  0  0  0  0  0  0  0
    0.4908    1.4928   -0.2470 H   0  0  0  0  0  0  0  0  0  0  0  0
    1.0907    0.5066   -1.5525 H   0  0  0  0  0  0  0  0  0  0  0  0
   -0.9632    1.0701   -1.7467 C   0  0  0  0  0  0  0  0  0  0  0  0
   -1.2285    2.0824   -1.4239 H   0  0  0  0  0  0  0  0  0  0  0  0
   -0.6086    1.1595   -2.7788 H   0  0  0  0  0  0  0  0  0  0  0  0
   -2.5413    0.1171   -1.7886 S   0  0  0  0  0  0  0  0  0  0  0  0
   -2.1427   -1.1877   -3.0203 C   0  0  0  0  0  0  0  0  0  0  0  0
   -1.2617   -1.7563   -2.7076 H   0  0  0  0  0  0  0  0  0  0  0  0
   -2.9861   -1.8767   -3.1250 H   0  0  0  0  0  0  0  0  0  0  0  0
   -1.9388   -0.7360   -3.9958 H   0  0  0  0  0  0  0  0  0  0  0  0
    0.7664   -0.2266    1.4660 C   0  0  0  0  0  0  0  0  0  0  0  0
    1.9628   -0.0682    1.6714 O   0  0  0  0  0  0  0  0  0  0  0  0
   -0.1413    0.2328    2.4031 N   0  0  0  0  0  0  0  0  0  0  0  0
   -1.1189    0.0356    2.2158 H   0  0  0  0  0  0  0  0  0  0  0  0
    0.2480    0.6677    3.7383 C   0  0  0  0  0  0  0  0  0  0  0  0
    0.9476    1.5081    3.6792 H   0  0  0  0  0  0  0  0  0  0  0  0
   -0.6320    0.9914    4.3022 H   0  0  0  0  0  0  0  0  0  0  0  0
    0.7277   -0.1527    4.2826 H   0  0  0  0  0  0  0  0  0  0  0  0
  1  2  1  0  0  0  0
  2  3  1  0  0  0  0
  2  4  1  0  0  0  0
  2  5  1  0  0  0  0
  5  6  2  0  0  0  0
  5  7  1  0  0  0  0
  7  8  1  0  0  0  0
  7  9  1  0  0  0  0
  9 10  1  0  0  0  0
  9 11  1  0  0  0  0
  9 22  1  0  0  0  0
 11 12  1  0  0  0  0
 11 13  1  0  0  0  0
 11 14  1  0  0  0  0
 14 15  1  0  0  0  0
 14 16  1  0  0  0  0
 14 17  1  0  0  0  0
 17 18  1  0  0  0  0
 18 19  1  0  0  0  0
 18 20  1  0  0  0  0
 18 21  1  0  0  0  0
 22 23  2  0  0  0  0
 22 24  1  0  0  0  0
 24 25  1  0  0  0  0
 24 26  1  0  0  0  0
 26 27  1  0  0  0  0
 26 28  1  0  0  0  0
 26 29  1  0  0  0  0
M  END
$$$$

  -OEChem-04042216023D

 29 28  0     1  0  0  0  0  0999 V2000
   -2.3664   -4.4258    0.9342 H   0  0  0  0  0  0  0  0  0  0  0  0
   -2.3872   -3.4584    0.4242 C   0  0  0  0  0  0  0  0  0  0  0  0
   -2.5978   -3.6226   -0.6352 H   0  0  0  0  0  0  0  0  0  0  0  0
   -3.1845   -2.8499    0.8575 H   0  0  0  0  0  0  0  0  0  0  0  0
   -1.0526   -2.7557    0.5841 C   0  0  0  0  0  0  0  0  0  0  0  0
   -0.1361   -3.3114    1.1618 O   0  0  0  0  0  0  0  0  0  0  0  0
   -0.8871   -1.4845    0.0745 N   0  0  0  0  0  0  0  0  0  0  0  0
   -1.6946   -1.0624   -0.3745 H   0  0  0  0  0  0  0  0  0  0  0  0
    0.3336   -0.6759    0.2063 C   0  0  1  0  0  0  0  0  0  0  0  0
    1.1456   -1.3009   -0.1828 H   0  0  0  0  0  0  0  0  0  0  0  0
    0.3838    0.6544   -0.6133 C   0  0  0  0  0  0  0  0  0  0  0  0
    0.5455    1.4632    0.1082 H   0  0  0  0  0  0  0  0  0  0  0  0
    1.2960    0.6149   -1.2181 H   0  0  0  0  0  0  0  0  0  0  0  0
   -0.7516    1.1728   -1.5442 C   0  0  0  0  0  0  0  0  0  0  0  0
   -0.8422    2.2514   -1.3764 H   0  0  0  0  0  0  0  0  0  0  0  0
   -0.4066    1.0496   -2.5757 H   0  0  0  0  0  0  0  0  0  0  0  0
   -2.4541    0.4672   -1.4600 S   0  0  0  0  0  0  0  0  0  0  0  0
   -2.4300   -0.7231   -2.8609 C   0  0  0  0  0  0  0  0  0  0  0  0
   -1.6185   -1.4466   -2.7360 H   0  0  0  0  0  0  0  0  0  0  0  0
   -2.2828   -0.1919   -3.8063 H   0  0  0  0  0  0  0  0  0  0  0  0
   -3.3790   -1.2653   -2.9111 H   0  0  0  0  0  0  0  0  0  0  0  0
    0.7106   -0.3922    1.6793 C   0  0  0  0  0  0  0  0  0  0  0  0
    1.8875   -0.2749    1.9945 O   0  0  0  0  0  0  0  0  0  0  0  0
   -0.2660   -0.0017    2.5777 N   0  0  0  0  0  0  0  0  0  0  0  0
   -1.2287   -0.1432    2.2896 H   0  0  0  0  0  0  0  0  0  0  0  0
    0.0178    0.3145    3.9714 C   0  0  0  0  0  0  0  0  0  0  0  0
    0.7185    1.1534    4.0386 H   0  0  0  0  0  0  0  0  0  0  0  0
   -0.9035    0.5925    4.4922 H   0  0  0  0  0  0  0  0  0  0  0  0
    0.4561   -0.5521    4.4778 H   0  0  0  0  0  0  0  0  0  0  0  0
  1  2  1  0  0  0  0
  2  3  1  0  0  0  0
  2  4  1  0  0  0  0
  2  5  1  0  0  0  0
  5  6  2  0  0  0  0
  5  7  1  0  0  0  0
  7  8  1  0  0  0  0
  7  9  1  0  0  0  0
  9 10  1  0  0  0  0
  9 11  1  0  0  0  0
  9 22  1  0  0  0  0
 11 12  1  0  0  0  0
 11 13  1  0  0  0  0
 11 14  1  0  0  0  0
 14 15  1  0  0  0  0
 14 16  1  0  0  0  0
 14 17  1  0  0  0  0
 17 18  1  0  0  0  0
 18 19  1  0  0  0  0
 18 20  1  0  0  0  0
 18 21  1  0  0  0  0
 22 23  2  0  0  0  0
 22 24  1  0  0  0  0
 24 25  1  0  0  0  0
 24 26  1  0  0  0  0
 26 27  1  0  0  0  0
 26 28  1  0  0  0  0
 26 29  1  0  0  0  0
M  END
$$$$

  -OEChem-04042216023D

 29 28  0     1  0  0  0  0  0999 V2000
   -1.5441   -4.5985    2.1168 H   0  0  0  0  0  0  0  0  0  0  0  0
   -1.7504   -3.7915    1.4080 C   0  0  0  0  0  0  0  0  0  0  0  0
   -2.6220   -3.2314    1.7552 H   0  0  0  0  0  0  0  0  0  0  0  0
   -1.9715   -4.2288    0.4315 H   0  0  0  0  0  0  0  0  0  0  0  0
   -0.5501   -2.8703    1.3033 C   0  0  0  0  0  0  0  0  0  0  0  0
    0.4374   -3.0765    1.9858 O   0  0  0  0  0  0  0  0  0  0  0  0
   -0.5863   -1.7990    0.4349 N   0  0  0  0  0  0  0  0  0  0  0  0
   -1.4315   -1.6849   -0.1182 H   0  0  0  0  0  0  0  0  0  0  0  0
    0.5063   -0.8334    0.2389 C   0  0  1  0  0  0  0  0  0  0  0  0
    1.3911   -1.4263   -0.0189 H   0  0  0  0  0  0  0  0  0  0  0  0
    0.3063    0.1923   -0.9217 C   0  0  0  0  0  0  0  0  0  0  0  0
    0.3595    1.1926   -0.4777 H   0  0  0  0  0  0  0  0  0  0  0  0
    1.1786    0.1112   -1.5785 H   0  0  0  0  0  0  0  0  0  0  0  0
   -0.9534    0.2221   -1.8283 C   0  0  0  0  0  0  0  0  0  0  0  0
   -1.0668    1.2385   -2.2195 H   0  0  0  0  0  0  0  0  0  0  0  0
   -0.7470   -0.4286   -2.6843 H   0  0  0  0  0  0  0  0  0  0  0  0
   -2.5759   -0.3189   -1.1361 S   0  0  0  0  0  0  0  0  0  0  0  0
   -3.6847   -0.0635   -2.5772 C   0  0  0  0  0  0  0  0  0  0  0  0
   -3.6802    0.9885   -2.8776 H   0  0  0  0  0  0  0  0  0  0  0  0
   -4.7089   -0.3486   -2.3185 H   0  0  0  0  0  0  0  0  0  0  0  0
   -3.3551   -0.6729   -3.4241 H   0  0  0  0  0  0  0  0  0  0  0  0
    0.8786   -0.0756    1.5345 C   0  0  0  0  0  0  0  0  0  0  0  0
    2.0337    0.2858    1.7195 O   0  0  0  0  0  0  0  0  0  0  0  0
   -0.1216    0.4319    2.3440 N   0  0  0  0  0  0  0  0  0  0  0  0
   -1.0597    0.0841    2.1721 H   0  0  0  0  0  0  0  0  0  0  0  0
    0.1466    1.1753    3.5680 C   0  0  0  0  0  0  0  0  0  0  0  0
    0.7385    2.0709    3.3517 H   0  0  0  0  0  0  0  0  0  0  0  0
   -0.7924    1.4878    4.0343 H   0  0  0  0  0  0  0  0  0  0  0  0
    0.6981    0.5521    4.2799 H   0  0  0  0  0  0  0  0  0  0  0  0
  1  2  1  0  0  0  0
  2  3  1  0  0  0  0
  2  4  1  0  0  0  0
  2  5  1  0  0  0  0
  5  6  2  0  0  0  0
  5  7  1  0  0  0  0
  7  8  1  0  0  0  0
  7  9  1  0  0  0  0
  9 10  1  0  0  0  0
  9 11  1  0  0  0  0
  9 22  1  0  0  0  0
 11 12  1  0  0  0  0
 11 13  1  0  0  0  0
 11 14  1  0  0  0  0
 14 15  1  0  0  0  0
 14 16  1  0  0  0  0
 14 17  1  0  0  0  0
 17 18  1  0  0  0  0
 18 19  1  0  0  0  0
 18 20  1  0  0  0  0
 18 21  1  0  0  0  0
 22 23  2  0  0  0  0
 22 24  1  0  0  0  0
 24 25  1  0  0  0  0
 24 26  1  0  0  0  0
 26 27  1  0  0  0  0
 26 28  1  0  0  0  0
 26 29  1  0  0  0  0
M  END
$$$$

  -OEChem-04042216023D

 29 28  0     1  0  0  0  0  0999 V2000
   -1.1202   -5.0555    0.1709 H   0  0  0  0  0  0  0  0  0  0  0  0
   -1.4587   -4.0830   -0.1977 C   0  0  0  0  0  0  0  0  0  0  0  0
   -2.3702   -3.8019    0.3353 H   0  0  0  0  0  0  0  0  0  0  0  0
   -1.6795   -4.1686   -1.2643 H   0  0  0  0  0  0  0  0  0  0  0  0
   -0.3837   -3.0366    0.0259 C   0  0  0  0  0  0  0  0  0  0  0  0
    0.6588   -3.3407    0.5772 O   0  0  0  0  0  0  0  0  0  0  0  0
   -0.6026   -1.7361   -0.3789 N   0  0  0  0  0  0  0  0  0  0  0  0
   -1.4976   -1.5343   -0.8191 H   0  0  0  0  0  0  0  0  0  0  0  0
    0.3465   -0.6240   -0.2016 C   0  0  1  0  0  0  0  0  0  0  0  0
    1.2858   -0.9438   -0.6672 H   0  0  0  0  0  0  0  0  0  0  0  0
   -0.0703    0.7047   -0.9017 C   0  0  0  0  0  0  0  0  0  0  0  0
   -0.1245    1.4871   -0.1370 H   0  0  0  0  0  0  0  0  0  0  0  0
    0.7449    0.9928   -1.5733 H   0  0  0  0  0  0  0  0  0  0  0  0
   -1.3902    0.7923   -1.7032 C   0  0  0  0  0  0  0  0  0  0  0  0
   -1.5902    1.8422   -1.9415 H   0  0  0  0  0  0  0  0  0  0  0  0
   -1.2377    0.2700   -2.6534 H   0  0  0  0  0  0  0  0  0  0  0  0
   -2.8888    0.0646   -0.9077 S   0  0  0  0  0  0  0  0  0  0  0  0
   -3.1859    1.2450    0.4683 C   0  0  0  0  0  0  0  0  0  0  0  0
   -4.0484    0.9235    1.0596 H   0  0  0  0  0  0  0  0  0  0  0  0
   -3.3878    2.2445    0.0715 H   0  0  0  0  0  0  0  0  0  0  0  0
   -2.3130    1.2996    1.1244 H   0  0  0  0  0  0  0  0  0  0  0  0
    0.6911   -0.3513    1.2802 C   0  0  0  0  0  0  0  0  0  0  0  0
    1.7921    0.0928    1.5782 O   0  0  0  0  0  0  0  0  0  0  0  0
   -0.3200   -0.3221    2.2238 N   0  0  0  0  0  0  0  0  0  0  0  0
   -1.1922   -0.7641    1.9511 H   0  0  0  0  0  0  0  0  0  0  0  0
   -0.0737   -0.0627    3.6366 C   0  0  0  0  0  0  0  0  0  0  0  0
    0.3627    0.9323    3.7740 H   0  0  0  0  0  0  0  0  0  0  0  0
   -1.0111   -0.1082    4.1991 H   0  0  0  0  0  0  0  0  0  0  0  0
    0.6150   -0.8090    4.0467 H   0  0  0  0  0  0  0  0  0  0  0  0
  1  2  1  0  0  0  0
  2  3  1  0  0  0  0
  2  4  1  0  0  0  0
  2  5  1  0  0  0  0
  5  6  2  0  0  0  0
  5  7  1  0  0  0  0
  7  8  1  0  0  0  0
  7  9  1  0  0  0  0
  9 10  1  0  0  0  0
  9 11  1  0  0  0  0
  9 22  1  0  0  0  0
 11 12  1  0  0  0  0
 11 13  1  0  0  0  0
 11 14  1  0  0  0  0
 14 15  1  0  0  0  0
 14 16  1  0  0  0  0
 14 17  1  0  0  0  0
 17 18  1  0  0  0  0
 18 19  1  0  0  0  0
 18 20  1  0  0  0  0
 18 21  1  0  0  0  0
 22 23  2  0  0  0  0
 22 24  1  0  0  0  0
 24 25  1  0  0  0  0
 24 26  1  0  0  0  0
 26 27  1  0  0  0  0
 26 28  1  0  0  0  0
 26 29  1  0  0  0  0
M  END
$$$$

  -OEChem-04042216023D

 29 28  0     1  0  0  0  0  0999 V2000
   -1.4550   -5.0092    0.1978 H   0  0  0  0  0  0  0  0  0  0  0  0
   -1.7558   -4.0005   -0.0997 C   0  0  0  0  0  0  0  0  0  0  0  0
   -2.5796   -3.6750    0.5400 H   0  0  0  0  0  0  0  0  0  0  0  0
   -2.0972   -4.0274   -1.1373 H   0  0  0  0  0  0  0  0  0  0  0  0
   -0.5847   -3.0461    0.0357 C   0  0  0  0  0  0  0  0  0  0  0  0
    0.4717   -3.4381    0.4978 O   0  0  0  0  0  0  0  0  0  0  0  0
   -0.7246   -1.7317   -0.3595 N   0  0  0  0  0  0  0  0  0  0  0  0
   -1.6509   -1.4388   -0.6632 H   0  0  0  0  0  0  0  0  0  0  0  0
    0.3035   -0.6893   -0.1812 C   0  0  1  0  0  0  0  0  0  0  0  0
    1.2151   -1.0510   -0.6704 H   0  0  0  0  0  0  0  0  0  0  0  0
   -0.0736    0.6653   -0.8446 C   0  0  0  0  0  0  0  0  0  0  0  0
   -0.0481    1.4597   -0.0914 H   0  0  0  0  0  0  0  0  0  0  0  0
    0.7107    0.9061   -1.5693 H   0  0  0  0  0  0  0  0  0  0  0  0
   -1.4272    0.7444   -1.5757 C   0  0  0  0  0  0  0  0  0  0  0  0
   -1.5388    1.7423   -2.0119 H   0  0  0  0  0  0  0  0  0  0  0  0
   -1.4300    0.0260   -2.4022 H   0  0  0  0  0  0  0  0  0  0  0  0
   -2.8739    0.4076   -0.4788 S   0  0  0  0  0  0  0  0  0  0  0  0
   -2.8499    1.8401    0.6726 C   0  0  0  0  0  0  0  0  0  0  0  0
   -2.8876    2.7782    0.1109 H   0  0  0  0  0  0  0  0  0  0  0  0
   -3.7154    1.7987    1.3405 H   0  0  0  0  0  0  0  0  0  0  0  0
   -1.9414    1.8318    1.2816 H   0  0  0  0  0  0  0  0  0  0  0  0
    0.6783   -0.4551    1.2992 C   0  0  0  0  0  0  0  0  0  0  0  0
    1.8118   -0.1019    1.5959 O   0  0  0  0  0  0  0  0  0  0  0  0
   -0.3227   -0.3629    2.2495 N   0  0  0  0  0  0  0  0  0  0  0  0
   -1.2473   -0.6714    1.9652 H   0  0  0  0  0  0  0  0  0  0  0  0
   -0.0658   -0.0840    3.6560 C   0  0  0  0  0  0  0  0  0  0  0  0
    0.3988    0.9007    3.7725 H   0  0  0  0  0  0  0  0  0  0  0  0
   -1.0025   -0.0927    4.2212 H   0  0  0  0  0  0  0  0  0  0  0  0
    0.6024   -0.8412    4.0795 H   0  0  0  0  0  0  0  0  0  0  0  0
  1  2  1  0  0  0  0
  2  3  1  0  0  0  0
  2  4  1  0  0  0  0
  2  5  1  0  0  0  0
  5  6  2  0  0  0  0
  5  7  1  0  0  0  0
  7  8  1  0  0  0  0
  7  9  1  0  0  0  0
  9 10  1  0  0  0  0
  9 11  1  0  0  0  0
  9 22  1  0  0  0  0
 11 12  1  0  0  0  0
 11 13  1  0  0  0  0
 11 14  1  0  0  0  0
 14 15  1  0  0  0  0
 14 16  1  0  0  0  0
 14 17  1  0  0  0  0
 17 18  1  0  0  0  0
 18 19  1  0  0  0  0
 18 20  1  0  0  0  0
 18 21  1  0  0  0  0
 22 23  2  0  0  0  0
 22 24  1  0  0  0  0
 24 25  1  0  0  0  0
 24 26  1  0  0  0  0
 26 27  1  0  0  0  0
 26 28  1  0  0  0  0
 26 29  1  0  0  0  0
M  END
$$$$

  -OEChem-04042216023D

 29 28  0     1  0  0  0  0  0999 V2000
   -1.6748   -4.6500    1.2226 H   0  0  0  0  0  0  0  0  0  0  0  0
   -1.9179   -3.6457    0.8643 C   0  0  0  0  0  0  0  0  0  0  0  0
   -2.5117   -3.1345    1.6257 H   0  0  0  0  0  0  0  0  0  0  0  0
   -2.5065   -3.7326   -0.0520 H   0  0  0  0  0  0  0  0  0  0  0  0
   -0.6445   -2.8683    0.5918 C   0  0  0  0  0  0  0  0  0  0  0  0
    0.4385   -3.3691    0.8350 O   0  0  0  0  0  0  0  0  0  0  0  0
   -0.7207   -1.5903    0.0767 N   0  0  0  0  0  0  0  0  0  0  0  0
   -1.6505   -1.1841    0.0082 H   0  0  0  0  0  0  0  0  0  0  0  0
    0.4314   -0.6715   -0.0129 C   0  0  1  0  0  0  0  0  0  0  0  0
    1.2080   -1.1826   -0.5936 H   0  0  0  0  0  0  0  0  0  0  0  0
    0.0824    0.6451   -0.7579 C   0  0  0  0  0  0  0  0  0  0  0  0
    0.2970    1.5089   -0.1188 H   0  0  0  0  0  0  0  0  0  0  0  0
    0.7515    0.7218   -1.6212 H   0  0  0  0  0  0  0  0  0  0  0  0
   -1.3630    0.7656   -1.2646 C   0  0  0  0  0  0  0  0  0  0  0  0
   -1.4178    1.6056   -1.9649 H   0  0  0  0  0  0  0  0  0  0  0  0
   -1.6658   -0.1319   -1.8136 H   0  0  0  0  0  0  0  0  0  0  0  0
   -2.5027    1.1051    0.1389 S   0  0  0  0  0  0  0  0  0  0  0  0
   -4.0916    1.3670   -0.7430 C   0  0  0  0  0  0  0  0  0  0  0  0
   -4.3642    0.4730   -1.3117 H   0  0  0  0  0  0  0  0  0  0  0  0
   -4.8885    1.5819   -0.0245 H   0  0  0  0  0  0  0  0  0  0  0  0
   -4.0074    2.2114   -1.4338 H   0  0  0  0  0  0  0  0  0  0  0  0
    1.0674   -0.3454    1.3572 C   0  0  0  0  0  0  0  0  0  0  0  0
    2.2743   -0.1642    1.4464 O   0  0  0  0  0  0  0  0  0  0  0  0
    0.2584   -0.0365    2.4363 N   0  0  0  0  0  0  0  0  0  0  0  0
   -0.7451   -0.0856    2.2910 H   0  0  0  0  0  0  0  0  0  0  0  0
    0.7729    0.4006    3.7275 C   0  0  0  0  0  0  0  0  0  0  0  0
    1.3199    1.3434    3.6231 H   0  0  0  0  0  0  0  0  0  0  0  0
   -0.0513    0.5541    4.4306 H   0  0  0  0  0  0  0  0  0  0  0  0
    1.4480   -0.3541    4.1451 H   0  0  0  0  0  0  0  0  0  0  0  0
  1  2  1  0  0  0  0
  2  3  1  0  0  0  0
  2  4  1  0  0  0  0
  2  5  1  0  0  0  0
  5  6  2  0  0  0  0
  5  7  1  0  0  0  0
  7  8  1  0  0  0  0
  7  9  1  0  0  0  0
  9 10  1  0  0  0  0
  9 11  1  0  0  0  0
  9 22  1  0  0  0  0
 11 12  1  0  0  0  0
 11 13  1  0  0  0  0
 11 14  1  0  0  0  0
 14 15  1  0  0  0  0
 14 16  1  0  0  0  0
 14 17  1  0  0  0  0
 17 18  1  0  0  0  0
 18 19  1  0  0  0  0
 18 20  1  0  0  0  0
 18 21  1  0  0  0  0
 22 23  2  0  0  0  0
 22 24  1  0  0  0  0
 24 25  1  0  0  0  0
 24 26  1  0  0  0  0
 26 27  1  0  0  0  0
 26 28  1  0  0  0  0
 26 29  1  0  0  0  0
M  END
$$$$

  -OEChem-04042216023D

 29 28  0     1  0  0  0  0  0999 V2000
   -1.6769   -4.6443    1.2059 H   0  0  0  0  0  0  0  0  0  0  0  0
   -1.9291   -3.6451    0.8388 C   0  0  0  0  0  0  0  0  0  0  0  0
   -2.5501   -3.1432    1.5846 H   0  0  0  0  0  0  0  0  0  0  0  0
   -2.4944   -3.7446   -0.0909 H   0  0  0  0  0  0  0  0  0  0  0  0
   -0.6633   -2.8461    0.5931 C   0  0  0  0  0  0  0  0  0  0  0  0
    0.4242   -3.3440    0.8212 O   0  0  0  0  0  0  0  0  0  0  0  0
   -0.7515   -1.5557    0.1105 N   0  0  0  0  0  0  0  0  0  0  0  0
   -1.6844   -1.1585    0.0486 H   0  0  0  0  0  0  0  0  0  0  0  0
    0.3975   -0.6326    0.0197 C   0  0  1  0  0  0  0  0  0  0  0  0
    1.1628   -1.1296   -0.5880 H   0  0  0  0  0  0  0  0  0  0  0  0
    0.0406    0.7050   -0.6834 C   0  0  0  0  0  0  0  0  0  0  0  0
    0.2886    1.5546   -0.0369 H   0  0  0  0  0  0  0  0  0  0  0  0
    0.6916    0.7866   -1.5600 H   0  0  0  0  0  0  0  0  0  0  0  0
   -1.4117    0.8579   -1.1669 C   0  0  0  0  0  0  0  0  0  0  0  0
   -1.4153    1.5565   -2.0102 H   0  0  0  0  0  0  0  0  0  0  0  0
   -1.8361   -0.0787   -1.5390 H   0  0  0  0  0  0  0  0  0  0  0  0
   -2.4338    1.5950    0.1692 S   0  0  0  0  0  0  0  0  0  0  0  0
   -4.0200    1.8963   -0.7047 C   0  0  0  0  0  0  0  0  0  0  0  0
   -3.8700    2.5959   -1.5326 H   0  0  0  0  0  0  0  0  0  0  0  0
   -4.7527    2.3247   -0.0141 H   0  0  0  0  0  0  0  0  0  0  0  0
   -4.4203    0.9592   -1.1028 H   0  0  0  0  0  0  0  0  0  0  0  0
    1.0632   -0.3364    1.3829 C   0  0  0  0  0  0  0  0  0  0  0  0
    2.2706   -0.1483    1.4468 O   0  0  0  0  0  0  0  0  0  0  0  0
    0.2790   -0.0536    2.4872 N   0  0  0  0  0  0  0  0  0  0  0  0
   -0.7271   -0.0921    2.3615 H   0  0  0  0  0  0  0  0  0  0  0  0
    0.8213    0.3972    3.7622 C   0  0  0  0  0  0  0  0  0  0  0  0
    1.3198    1.3651    3.6455 H   0  0  0  0  0  0  0  0  0  0  0  0
    0.0185    0.5066    4.4976 H   0  0  0  0  0  0  0  0  0  0  0  0
    1.5458   -0.3282    4.1475 H   0  0  0  0  0  0  0  0  0  0  0  0
  1  2  1  0  0  0  0
  2  3  1  0  0  0  0
  2  4  1  0  0  0  0
  2  5  1  0  0  0  0
  5  6  2  0  0  0  0
  5  7  1  0  0  0  0
  7  8  1  0  0  0  0
  7  9  1  0  0  0  0
  9 10  1  0  0  0  0
  9 11  1  0  0  0  0
  9 22  1  0  0  0  0
 11 12  1  0  0  0  0
 11 13  1  0  0  0  0
 11 14  1  0  0  0  0
 14 15  1  0  0  0  0
 14 16  1  0  0  0  0
 14 17  1  0  0  0  0
 17 18  1  0  0  0  0
 18 19  1  0  0  0  0
 18 20  1  0  0  0  0
 18 21  1  0  0  0  0
 22 23  2  0  0  0  0
 22 24  1  0  0  0  0
 24 25  1  0  0  0  0
 24 26  1  0  0  0  0
 26 27  1  0  0  0  0
 26 28  1  0  0  0  0
 26 29  1  0  0  0  0
M  END
$$$$

  -OEChem-04042216023D

 29 28  0     1  0  0  0  0  0999 V2000
   -2.4290   -4.3905    0.6509 H   0  0  0  0  0  0  0  0  0  0  0  0
   -2.5110   -3.3937    0.2078 C   0  0  0  0  0  0  0  0  0  0  0  0
   -3.3149   -2.8508    0.7104 H   0  0  0  0  0  0  0  0  0  0  0  0
   -2.7570   -3.4999   -0.8514 H   0  0  0  0  0  0  0  0  0  0  0  0
   -1.2004   -2.6457    0.3629 C   0  0  0  0  0  0  0  0  0  0  0  0
   -0.2610   -3.1738    0.9284 O   0  0  0  0  0  0  0  0  0  0  0  0
   -1.0826   -1.3594   -0.1248 N   0  0  0  0  0  0  0  0  0  0  0  0
   -1.9004   -0.9628   -0.5760 H   0  0  0  0  0  0  0  0  0  0  0  0
    0.1518   -0.5502   -0.0610 C   0  0  1  0  0  0  0  0  0  0  0  0
    0.9273   -1.1779   -0.5163 H   0  0  0  0  0  0  0  0  0  0  0  0
    0.1196    0.7503   -0.9152 C   0  0  0  0  0  0  0  0  0  0  0  0
    0.3445    1.6137   -0.2800 H   0  0  0  0  0  0  0  0  0  0  0  0
    0.9483    0.6799   -1.6278 H   0  0  0  0  0  0  0  0  0  0  0  0
   -1.1597    1.0565   -1.7256 C   0  0  0  0  0  0  0  0  0  0  0  0
   -0.8480    1.4121   -2.7133 H   0  0  0  0  0  0  0  0  0  0  0  0
   -1.7621    0.1653   -1.9078 H   0  0  0  0  0  0  0  0  0  0  0  0
   -2.2012    2.3871   -0.9926 S   0  0  0  0  0  0  0  0  0  0  0  0
   -2.3558    2.0077    0.7954 C   0  0  0  0  0  0  0  0  0  0  0  0
   -1.4044    2.1896    1.3022 H   0  0  0  0  0  0  0  0  0  0  0  0
   -3.1133    2.6543    1.2484 H   0  0  0  0  0  0  0  0  0  0  0  0
   -2.6520    0.9659    0.9426 H   0  0  0  0  0  0  0  0  0  0  0  0
    0.6781   -0.2823    1.3685 C   0  0  0  0  0  0  0  0  0  0  0  0
    1.8798   -0.1367    1.5474 O   0  0  0  0  0  0  0  0  0  0  0  0
   -0.1917    0.0964    2.3749 N   0  0  0  0  0  0  0  0  0  0  0  0
   -1.1690   -0.1300    2.2278 H   0  0  0  0  0  0  0  0  0  0  0  0
    0.2547    0.4323    3.7213 C   0  0  0  0  0  0  0  0  0  0  0  0
    0.9214    1.3009    3.6982 H   0  0  0  0  0  0  0  0  0  0  0  0
   -0.6034    0.6746    4.3553 H   0  0  0  0  0  0  0  0  0  0  0  0
    0.7906   -0.4113    4.1691 H   0  0  0  0  0  0  0  0  0  0  0  0
  1  2  1  0  0  0  0
  2  3  1  0  0  0  0
  2  4  1  0  0  0  0
  2  5  1  0  0  0  0
  5  6  2  0  0  0  0
  5  7  1  0  0  0  0
  7  8  1  0  0  0  0
  7  9  1  0  0  0  0
  9 10  1  0  0  0  0
  9 11  1  0  0  0  0
  9 22  1  0  0  0  0
 11 12  1  0  0  0  0
 11 13  1  0  0  0  0
 11 14  1  0  0  0  0
 14 15  1  0  0  0  0
 14 16  1  0  0  0  0
 14 17  1  0  0  0  0
 17 18  1  0  0  0  0
 18 19  1  0  0  0  0
 18 20  1  0  0  0  0
 18 21  1  0  0  0  0
 22 23  2  0  0  0  0
 22 24  1  0  0  0  0
 24 25  1  0  0  0  0
 24 26  1  0  0  0  0
 26 27  1  0  0  0  0
 26 28  1  0  0  0  0
 26 29  1  0  0  0  0
M  END
$$$$

  -OEChem-04042216023D

 29 28  0     1  0  0  0  0  0999 V2000
   -2.4841   -4.3259    0.7040 H   0  0  0  0  0  0  0  0  0  0  0  0
   -2.5439   -3.3384    0.2374 C   0  0  0  0  0  0  0  0  0  0  0  0
   -3.3594   -2.7791    0.7018 H   0  0  0  0  0  0  0  0  0  0  0  0
   -2.7568   -3.4661   -0.8266 H   0  0  0  0  0  0  0  0  0  0  0  0
   -1.2338   -2.5958    0.4199 C   0  0  0  0  0  0  0  0  0  0  0  0
   -0.3232   -3.1123    1.0404 O   0  0  0  0  0  0  0  0  0  0  0  0
   -1.0864   -1.3286   -0.1093 N   0  0  0  0  0  0  0  0  0  0  0  0
   -1.8629   -0.9758   -0.6571 H   0  0  0  0  0  0  0  0  0  0  0  0
    0.1710   -0.5517   -0.0774 C   0  0  1  0  0  0  0  0  0  0  0  0
    0.9325   -1.1953   -0.5333 H   0  0  0  0  0  0  0  0  0  0  0  0
    0.1544    0.7617   -0.9146 C   0  0  0  0  0  0  0  0  0  0  0  0
    0.4252    1.6026   -0.2675 H   0  0  0  0  0  0  0  0  0  0  0  0
    0.9642    0.6846   -1.6479 H   0  0  0  0  0  0  0  0  0  0  0  0
   -1.1325    1.1340   -1.6874 C   0  0  0  0  0  0  0  0  0  0  0  0
   -0.8834    1.2146   -2.7507 H   0  0  0  0  0  0  0  0  0  0  0  0
   -1.9170    0.3827   -1.6113 H   0  0  0  0  0  0  0  0  0  0  0  0
   -1.8142    2.7519   -1.1377 S   0  0  0  0  0  0  0  0  0  0  0  0
   -2.1944    2.4946    0.6408 C   0  0  0  0  0  0  0  0  0  0  0  0
   -1.2711    2.4048    1.2194 H   0  0  0  0  0  0  0  0  0  0  0  0
   -2.7602    3.3473    1.0277 H   0  0  0  0  0  0  0  0  0  0  0  0
   -2.7906    1.5881    0.7768 H   0  0  0  0  0  0  0  0  0  0  0  0
    0.6933   -0.2674    1.3505 C   0  0  0  0  0  0  0  0  0  0  0  0
    1.8972   -0.1635    1.5437 O   0  0  0  0  0  0  0  0  0  0  0  0
   -0.1810    0.1580    2.3345 N   0  0  0  0  0  0  0  0  0  0  0  0
   -1.1611   -0.0468    2.1735 H   0  0  0  0  0  0  0  0  0  0  0  0
    0.2542    0.4739    3.6893 C   0  0  0  0  0  0  0  0  0  0  0  0
    0.9845    1.2901    3.6768 H   0  0  0  0  0  0  0  0  0  0  0  0
   -0.5996    0.7862    4.2981 H   0  0  0  0  0  0  0  0  0  0  0  0
    0.7139   -0.4030    4.1576 H   0  0  0  0  0  0  0  0  0  0  0  0
  1  2  1  0  0  0  0
  2  3  1  0  0  0  0
  2  4  1  0  0  0  0
  2  5  1  0  0  0  0
  5  6  2  0  0  0  0
  5  7  1  0  0  0  0
  7  8  1  0  0  0  0
  7  9  1  0  0  0  0
  9 10  1  0  0  0  0
  9 11  1  0  0  0  0
  9 22  1  0  0  0  0
 11 12  1  0  0  0  0
 11 13  1  0  0  0  0
 11 14  1  0  0  0  0
 14 15  1  0  0  0  0
 14 16  1  0  0  0  0
 14 17  1  0  0  0  0
 17 18  1  0  0  0  0
 18 19  1  0  0  0  0
 18 20  1  0  0  0  0
 18 21  1  0  0  0  0
 22 23  2  0  0  0  0
 22 24  1  0  0  0  0
 24 25  1  0  0  0  0
 24 26  1  0  0  0  0
 26 27  1  0  0  0  0
 26 28  1  0  0  0  0
 26 29  1  0  0  0  0
M  END
$$$$

  -OEChem-04042216023D

 29 28  0     1  0  0  0  0  0999 V2000
   -2.5002   -4.3025    0.7049 H   0  0  0  0  0  0  0  0  0  0  0  0
   -2.5481   -3.3228    0.2208 C   0  0  0  0  0  0  0  0  0  0  0  0
   -3.3947   -2.7683    0.6329 H   0  0  0  0  0  0  0  0  0  0  0  0
   -2.7021   -3.4690   -0.8510 H   0  0  0  0  0  0  0  0  0  0  0  0
   -1.2599   -2.5591    0.4620 C   0  0  0  0  0  0  0  0  0  0  0  0
   -0.3885   -3.0457    1.1582 O   0  0  0  0  0  0  0  0  0  0  0  0
   -1.0902   -1.3101   -0.1039 N   0  0  0  0  0  0  0  0  0  0  0  0
   -1.8003   -1.0298   -0.7713 H   0  0  0  0  0  0  0  0  0  0  0  0
    0.1855   -0.5618   -0.0894 C   0  0  1  0  0  0  0  0  0  0  0  0
    0.9388   -1.2162   -0.5433 H   0  0  0  0  0  0  0  0  0  0  0  0
    0.1681    0.7559   -0.9197 C   0  0  0  0  0  0  0  0  0  0  0  0
    0.4506    1.5841   -0.2620 H   0  0  0  0  0  0  0  0  0  0  0  0
    0.9654    0.6931   -1.6677 H   0  0  0  0  0  0  0  0  0  0  0  0
   -1.1356    1.1440   -1.6532 C   0  0  0  0  0  0  0  0  0  0  0  0
   -1.0261    0.9317   -2.7218 H   0  0  0  0  0  0  0  0  0  0  0  0
   -2.0032    0.5903   -1.2947 H   0  0  0  0  0  0  0  0  0  0  0  0
   -1.5149    2.9267   -1.4089 S   0  0  0  0  0  0  0  0  0  0  0  0
   -1.9626    3.0204    0.3719 C   0  0  0  0  0  0  0  0  0  0  0  0
   -1.1136    2.7363    1.0003 H   0  0  0  0  0  0  0  0  0  0  0  0
   -2.2549    4.0431    0.6283 H   0  0  0  0  0  0  0  0  0  0  0  0
   -2.8012    2.3524    0.5882 H   0  0  0  0  0  0  0  0  0  0  0  0
    0.7042   -0.2553    1.3358 C   0  0  0  0  0  0  0  0  0  0  0  0
    1.9088   -0.1841    1.5402 O   0  0  0  0  0  0  0  0  0  0  0  0
   -0.1711    0.2144    2.2987 N   0  0  0  0  0  0  0  0  0  0  0  0
   -1.1534    0.0274    2.1274 H   0  0  0  0  0  0  0  0  0  0  0  0
    0.2537    0.5203    3.6587 C   0  0  0  0  0  0  0  0  0  0  0  0
    1.0219    1.3008    3.6546 H   0  0  0  0  0  0  0  0  0  0  0  0
   -0.5952    0.8769    4.2495 H   0  0  0  0  0  0  0  0  0  0  0  0
    0.6627   -0.3739    4.1410 H   0  0  0  0  0  0  0  0  0  0  0  0
  1  2  1  0  0  0  0
  2  3  1  0  0  0  0
  2  4  1  0  0  0  0
  2  5  1  0  0  0  0
  5  6  2  0  0  0  0
  5  7  1  0  0  0  0
  7  8  1  0  0  0  0
  7  9  1  0  0  0  0
  9 10  1  0  0  0  0
  9 11  1  0  0  0  0
  9 22  1  0  0  0  0
 11 12  1  0  0  0  0
 11 13  1  0  0  0  0
 11 14  1  0  0  0  0
 14 15  1  0  0  0  0
 14 16  1  0  0  0  0
 14 17  1  0  0  0  0
 17 18  1  0  0  0  0
 18 19  1  0  0  0  0
 18 20  1  0  0  0  0
 18 21  1  0  0  0  0
 22 23  2  0  0  0  0
 22 24  1  0  0  0  0
 24 25  1  0  0  0  0
 24 26  1  0  0  0  0
 26 27  1  0  0  0  0
 26 28  1  0  0  0  0
 26 29  1  0  0  0  0
M  END
$$$$

  -OEChem-04042216023D

 29 28  0     1  0  0  0  0  0999 V2000
   -2.5379   -4.2676    0.6986 H   0  0  0  0  0  0  0  0  0  0  0  0
   -2.5699   -3.2910    0.2070 C   0  0  0  0  0  0  0  0  0  0  0  0
   -3.4165   -2.7254    0.6033 H   0  0  0  0  0  0  0  0  0  0  0  0
   -2.7105   -3.4434   -0.8658 H   0  0  0  0  0  0  0  0  0  0  0  0
   -1.2775   -2.5379    0.4603 C   0  0  0  0  0  0  0  0  0  0  0  0
   -0.4166   -3.0321    1.1643 O   0  0  0  0  0  0  0  0  0  0  0  0
   -1.0891   -1.2923   -0.1073 N   0  0  0  0  0  0  0  0  0  0  0  0
   -1.7888   -1.0065   -0.7840 H   0  0  0  0  0  0  0  0  0  0  0  0
    0.1974   -0.5622   -0.0887 C   0  0  1  0  0  0  0  0  0  0  0  0
    0.9440   -1.2228   -0.5442 H   0  0  0  0  0  0  0  0  0  0  0  0
    0.1819    0.7533   -0.9193 C   0  0  0  0  0  0  0  0  0  0  0  0
    0.4535    1.5818   -0.2577 H   0  0  0  0  0  0  0  0  0  0  0  0
    0.9749    0.6984   -1.6724 H   0  0  0  0  0  0  0  0  0  0  0  0
   -1.1339    1.1197   -1.6335 C   0  0  0  0  0  0  0  0  0  0  0  0
   -1.1583    0.6549   -2.6244 H   0  0  0  0  0  0  0  0  0  0  0  0
   -2.0059    0.7763   -1.0726 H   0  0  0  0  0  0  0  0  0  0  0  0
   -1.3005    2.9441   -1.7817 S   0  0  0  0  0  0  0  0  0  0  0  0
   -1.7069    3.4714   -0.0678 C   0  0  0  0  0  0  0  0  0  0  0  0
   -0.8908    3.2248    0.6173 H   0  0  0  0  0  0  0  0  0  0  0  0
   -1.8670    4.5533   -0.0395 H   0  0  0  0  0  0  0  0  0  0  0  0
   -2.6187    2.9748    0.2764 H   0  0  0  0  0  0  0  0  0  0  0  0
    0.7192   -0.2579    1.3361 C   0  0  0  0  0  0  0  0  0  0  0  0
    1.9244   -0.2042    1.5418 O   0  0  0  0  0  0  0  0  0  0  0  0
   -0.1501    0.2279    2.2966 N   0  0  0  0  0  0  0  0  0  0  0  0
   -1.1358    0.0629    2.1223 H   0  0  0  0  0  0  0  0  0  0  0  0
    0.2768    0.5409    3.6547 C   0  0  0  0  0  0  0  0  0  0  0  0
    1.0585    1.3080    3.6451 H   0  0  0  0  0  0  0  0  0  0  0  0
   -0.5677    0.9187    4.2389 H   0  0  0  0  0  0  0  0  0  0  0  0
    0.6692   -0.3549    4.1481 H   0  0  0  0  0  0  0  0  0  0  0  0
  1  2  1  0  0  0  0
  2  3  1  0  0  0  0
  2  4  1  0  0  0  0
  2  5  1  0  0  0  0
  5  6  2  0  0  0  0
  5  7  1  0  0  0  0
  7  8  1  0  0  0  0
  7  9  1  0  0  0  0
  9 10  1  0  0  0  0
  9 11  1  0  0  0  0
  9 22  1  0  0  0  0
 11 12  1  0  0  0  0
 11 13  1  0  0  0  0
 11 14  1  0  0  0  0
 14 15  1  0  0  0  0
 14 16  1  0  0  0  0
 14 17  1  0  0  0  0
 17 18  1  0  0  0  0
 18 19  1  0  0  0  0
 18 20  1  0  0  0  0
 18 21  1  0  0  0  0
 22 23  2  0  0  0  0
 22 24  1  0  0  0  0
 24 25  1  0  0  0  0
 24 26  1  0  0  0  0
 26 27  1  0  0  0  0
 26 28  1  0  0  0  0
 26 29  1  0  0  0  0
M  END
$$$$

  -OEChem-04042216023D

 29 28  0     1  0  0  0  0  0999 V2000
   -2.5620   -4.2430    0.6905 H   0  0  0  0  0  0  0  0  0  0  0  0
   -2.5874   -3.2649    0.2014 C   0  0  0  0  0  0  0  0  0  0  0  0
   -3.4283   -2.6936    0.6015 H   0  0  0  0  0  0  0  0  0  0  0  0
   -2.7321   -3.4140   -0.8713 H   0  0  0  0  0  0  0  0  0  0  0  0
   -1.2883   -2.5230    0.4533 C   0  0  0  0  0  0  0  0  0  0  0  0
   -0.4315   -3.0241    1.1574 O   0  0  0  0  0  0  0  0  0  0  0  0
   -1.0900   -1.2774   -0.1108 N   0  0  0  0  0  0  0  0  0  0  0  0
   -1.7909   -0.9776   -0.7803 H   0  0  0  0  0  0  0  0  0  0  0  0
    0.2002   -0.5533   -0.0840 C   0  0  1  0  0  0  0  0  0  0  0  0
    0.9462   -1.2153   -0.5388 H   0  0  0  0  0  0  0  0  0  0  0  0
    0.1825    0.7579   -0.9178 C   0  0  0  0  0  0  0  0  0  0  0  0
    0.4415    1.5946   -0.2617 H   0  0  0  0  0  0  0  0  0  0  0  0
    0.9722    0.7032   -1.6745 H   0  0  0  0  0  0  0  0  0  0  0  0
   -1.1423    1.0907   -1.6226 C   0  0  0  0  0  0  0  0  0  0  0  0
   -1.2811    0.4250   -2.4805 H   0  0  0  0  0  0  0  0  0  0  0  0
   -1.9874    0.9593   -0.9405 H   0  0  0  0  0  0  0  0  0  0  0  0
   -1.1540    2.8403   -2.1845 S   0  0  0  0  0  0  0  0  0  0  0  0
   -1.3917    3.7901   -0.6287 C   0  0  0  0  0  0  0  0  0  0  0  0
   -0.5459    3.6416    0.0484 H   0  0  0  0  0  0  0  0  0  0  0  0
   -1.4714    4.8581   -0.8529 H   0  0  0  0  0  0  0  0  0  0  0  0
   -2.3081    3.4703   -0.1245 H   0  0  0  0  0  0  0  0  0  0  0  0
    0.7213   -0.2509    1.3408 C   0  0  0  0  0  0  0  0  0  0  0  0
    1.9266   -0.1999    1.5459 O   0  0  0  0  0  0  0  0  0  0  0  0
   -0.1454    0.2395    2.3012 N   0  0  0  0  0  0  0  0  0  0  0  0
   -1.1318    0.0770    2.1292 H   0  0  0  0  0  0  0  0  0  0  0  0
    0.2848    0.5485    3.6590 C   0  0  0  0  0  0  0  0  0  0  0  0
    1.0706    1.3113    3.6493 H   0  0  0  0  0  0  0  0  0  0  0  0
   -0.5566    0.9299    4.2452 H   0  0  0  0  0  0  0  0  0  0  0  0
    0.6730   -0.3502    4.1501 H   0  0  0  0  0  0  0  0  0  0  0  0
  1  2  1  0  0  0  0
  2  3  1  0  0  0  0
  2  4  1  0  0  0  0
  2  5  1  0  0  0  0
  5  6  2  0  0  0  0
  5  7  1  0  0  0  0
  7  8  1  0  0  0  0
  7  9  1  0  0  0  0
  9 10  1  0  0  0  0
  9 11  1  0  0  0  0
  9 22  1  0  0  0  0
 11 12  1  0  0  0  0
 11 13  1  0  0  0  0
 11 14  1  0  0  0  0
 14 15  1  0  0  0  0
 14 16  1  0  0  0  0
 14 17  1  0  0  0  0
 17 18  1  0  0  0  0
 18 19  1  0  0  0  0
 18 20  1  0  0  0  0
 18 21  1  0  0  0  0
 22 23  2  0  0  0  0
 22 24  1  0  0  0  0
 24 25  1  0  0  0  0
 24 26  1  0  0  0  0
 26 27  1  0  0  0  0
 26 28  1  0  0  0  0
 26 29  1  0  0  0  0
M  END
$$$$

  -OEChem-04042216023D

 29 28  0     1  0  0  0  0  0999 V2000
   -2.5716   -4.2240    0.7018 H   0  0  0  0  0  0  0  0  0  0  0  0
   -2.5871   -3.2545    0.1954 C   0  0  0  0  0  0  0  0  0  0  0  0
   -3.4332   -2.6747    0.5723 H   0  0  0  0  0  0  0  0  0  0  0  0
   -2.7154   -3.4214   -0.8768 H   0  0  0  0  0  0  0  0  0  0  0  0
   -1.2902   -2.5108    0.4534 C   0  0  0  0  0  0  0  0  0  0  0  0
   -0.4404   -3.0045    1.1711 O   0  0  0  0  0  0  0  0  0  0  0  0
   -1.0871   -1.2718   -0.1228 N   0  0  0  0  0  0  0  0  0  0  0  0
   -1.7815   -0.9832   -0.8039 H   0  0  0  0  0  0  0  0  0  0  0  0
    0.2032   -0.5478   -0.0994 C   0  0  1  0  0  0  0  0  0  0  0  0
    0.9606   -1.1993   -0.5509 H   0  0  0  0  0  0  0  0  0  0  0  0
    0.1614    0.7695   -0.9193 C   0  0  0  0  0  0  0  0  0  0  0  0
    0.6948    1.5566   -0.3767 H   0  0  0  0  0  0  0  0  0  0  0  0
    0.7118    0.6043   -1.8512 H   0  0  0  0  0  0  0  0  0  0  0  0
   -1.2413    1.2728   -1.2893 C   0  0  0  0  0  0  0  0  0  0  0  0
   -1.7554    0.5304   -1.9069 H   0  0  0  0  0  0  0  0  0  0  0  0
   -1.8333    1.4416   -0.3839 H   0  0  0  0  0  0  0  0  0  0  0  0
   -1.1323    2.8332   -2.2529 S   0  0  0  0  0  0  0  0  0  0  0  0
   -0.6131    4.0691   -0.9950 C   0  0  0  0  0  0  0  0  0  0  0  0
    0.3920    3.8455   -0.6261 H   0  0  0  0  0  0  0  0  0  0  0  0
   -0.6042    5.0700   -1.4368 H   0  0  0  0  0  0  0  0  0  0  0  0
   -1.3083    4.0663   -0.1502 H   0  0  0  0  0  0  0  0  0  0  0  0
    0.7119   -0.2341    1.3280 C   0  0  0  0  0  0  0  0  0  0  0  0
    1.9156   -0.1794    1.5427 O   0  0  0  0  0  0  0  0  0  0  0  0
   -0.1622    0.2643    2.2777 N   0  0  0  0  0  0  0  0  0  0  0  0
   -1.1472    0.0987    2.1001 H   0  0  0  0  0  0  0  0  0  0  0  0
    0.2576    0.5890    3.6353 C   0  0  0  0  0  0  0  0  0  0  0  0
    1.0347    1.3606    3.6231 H   0  0  0  0  0  0  0  0  0  0  0  0
   -0.5911    0.9656    4.2138 H   0  0  0  0  0  0  0  0  0  0  0  0
    0.6529   -0.3010    4.1361 H   0  0  0  0  0  0  0  0  0  0  0  0
  1  2  1  0  0  0  0
  2  3  1  0  0  0  0
  2  4  1  0  0  0  0
  2  5  1  0  0  0  0
  5  6  2  0  0  0  0
  5  7  1  0  0  0  0
  7  8  1  0  0  0  0
  7  9  1  0  0  0  0
  9 10  1  0  0  0  0
  9 11  1  0  0  0  0
  9 22  1  0  0  0  0
 11 12  1  0  0  0  0
 11 13  1  0  0  0  0
 11 14  1  0  0  0  0
 14 15  1  0  0  0  0
 14 16  1  0  0  0  0
 14 17  1  0  0  0  0
 17 18  1  0  0  0  0
 18 19  1  0  0  0  0
 18 20  1  0  0  0  0
 18 21  1  0  0  0  0
 22 23  2  0  0  0  0
 22 24  1  0  0  0  0
 24 25  1  0  0  0  0
 24 26  1  0  0  0  0
 26 27  1  0  0  0  0
 26 28  1  0  0  0  0
 26 29  1  0  0  0  0
M  END
$$$$

  -OEChem-04042216023D

 29 28  0     1  0  0  0  0  0999 V2000
   -2.5022   -4.2598    0.7616 H   0  0  0  0  0  0  0  0  0  0  0  0
   -2.5400   -3.3084    0.2232 C   0  0  0  0  0  0  0  0  0  0  0  0
   -3.3998   -2.7368    0.5808 H   0  0  0  0  0  0  0  0  0  0  0  0
   -2.6635   -3.5137   -0.8428 H   0  0  0  0  0  0  0  0  0  0  0  0
   -1.2613   -2.5263    0.4568 C   0  0  0  0  0  0  0  0  0  0  0  0
   -0.3808   -2.9984    1.1518 O   0  0  0  0  0  0  0  0  0  0  0  0
   -1.1096   -1.2771   -0.1138 N   0  0  0  0  0  0  0  0  0  0  0  0
   -1.8220   -1.0119   -0.7856 H   0  0  0  0  0  0  0  0  0  0  0  0
    0.1589   -0.5158   -0.1109 C   0  0  1  0  0  0  0  0  0  0  0  0
    0.9248   -1.1439   -0.5802 H   0  0  0  0  0  0  0  0  0  0  0  0
    0.0782    0.8120   -0.9128 C   0  0  0  0  0  0  0  0  0  0  0  0
    0.6166    1.6035   -0.3805 H   0  0  0  0  0  0  0  0  0  0  0  0
    0.6129    0.6486   -1.8544 H   0  0  0  0  0  0  0  0  0  0  0  0
   -1.3313    1.3151   -1.2671 C   0  0  0  0  0  0  0  0  0  0  0  0
   -1.9419    0.5068   -1.6761 H   0  0  0  0  0  0  0  0  0  0  0  0
   -1.8281    1.7026   -0.3718 H   0  0  0  0  0  0  0  0  0  0  0  0
   -1.2422    2.6161   -2.5622 S   0  0  0  0  0  0  0  0  0  0  0  0
   -0.3522    3.9861   -1.7205 C   0  0  0  0  0  0  0  0  0  0  0  0
    0.6755    3.6916   -1.4891 H   0  0  0  0  0  0  0  0  0  0  0  0
   -0.3219    4.8664   -2.3694 H   0  0  0  0  0  0  0  0  0  0  0  0
   -0.8613    4.2547   -0.7902 H   0  0  0  0  0  0  0  0  0  0  0  0
    0.6834   -0.2015    1.3105 C   0  0  0  0  0  0  0  0  0  0  0  0
    1.8884   -0.1090    1.5046 O   0  0  0  0  0  0  0  0  0  0  0  0
   -0.1902    0.2612    2.2783 N   0  0  0  0  0  0  0  0  0  0  0  0
   -1.1722    0.0649    2.1163 H   0  0  0  0  0  0  0  0  0  0  0  0
    0.2413    0.5964    3.6292 C   0  0  0  0  0  0  0  0  0  0  0  0
    0.9918    1.3936    3.6055 H   0  0  0  0  0  0  0  0  0  0  0  0
   -0.6097    0.9431    4.2229 H   0  0  0  0  0  0  0  0  0  0  0  0
    0.6746   -0.2810    4.1207 H   0  0  0  0  0  0  0  0  0  0  0  0
  1  2  1  0  0  0  0
  2  3  1  0  0  0  0
  2  4  1  0  0  0  0
  2  5  1  0  0  0  0
  5  6  2  0  0  0  0
  5  7  1  0  0  0  0
  7  8  1  0  0  0  0
  7  9  1  0  0  0  0
  9 10  1  0  0  0  0
  9 11  1  0  0  0  0
  9 22  1  0  0  0  0
 11 12  1  0  0  0  0
 11 13  1  0  0  0  0
 11 14  1  0  0  0  0
 14 15  1  0  0  0  0
 14 16  1  0  0  0  0
 14 17  1  0  0  0  0
 17 18  1  0  0  0  0
 18 19  1  0  0  0  0
 18 20  1  0  0  0  0
 18 21  1  0  0  0  0
 22 23  2  0  0  0  0
 22 24  1  0  0  0  0
 24 25  1  0  0  0  0
 24 26  1  0  0  0  0
 26 27  1  0  0  0  0
 26 28  1  0  0  0  0
 26 29  1  0  0  0  0
M  END
$$$$

  -OEChem-04042216023D

 29 28  0     1  0  0  0  0  0999 V2000
   -2.4614   -4.2932    0.7642 H   0  0  0  0  0  0  0  0  0  0  0  0
   -2.5196   -3.3404    0.2300 C   0  0  0  0  0  0  0  0  0  0  0  0
   -3.3967   -2.7929    0.5829 H   0  0  0  0  0  0  0  0  0  0  0  0
   -2.6288   -3.5439   -0.8380 H   0  0  0  0  0  0  0  0  0  0  0  0
   -1.2642   -2.5257    0.4781 C   0  0  0  0  0  0  0  0  0  0  0  0
   -0.3805   -2.9765    1.1831 O   0  0  0  0  0  0  0  0  0  0  0  0
   -1.1376   -1.2750   -0.0957 N   0  0  0  0  0  0  0  0  0  0  0  0
   -1.8420   -1.0442   -0.7885 H   0  0  0  0  0  0  0  0  0  0  0  0
    0.1235   -0.5024   -0.1177 C   0  0  1  0  0  0  0  0  0  0  0  0
    0.8850   -1.1244   -0.6017 H   0  0  0  0  0  0  0  0  0  0  0  0
    0.0255    0.8318   -0.9103 C   0  0  0  0  0  0  0  0  0  0  0  0
    0.5867    1.6222   -0.3993 H   0  0  0  0  0  0  0  0  0  0  0  0
    0.5409    0.6539   -1.8598 H   0  0  0  0  0  0  0  0  0  0  0  0
   -1.3819    1.3616   -1.2506 C   0  0  0  0  0  0  0  0  0  0  0  0
   -2.0970    0.5531   -1.4068 H   0  0  0  0  0  0  0  0  0  0  0  0
   -1.7530    1.9815   -0.4281 H   0  0  0  0  0  0  0  0  0  0  0  0
   -1.3450    2.3242   -2.8156 S   0  0  0  0  0  0  0  0  0  0  0  0
   -0.2248    3.7224   -2.4066 C   0  0  0  0  0  0  0  0  0  0  0  0
    0.7866    3.3574   -2.2056 H   0  0  0  0  0  0  0  0  0  0  0  0
   -0.1805    4.4237   -3.2453 H   0  0  0  0  0  0  0  0  0  0  0  0
   -0.5895    4.2559   -1.5239 H   0  0  0  0  0  0  0  0  0  0  0  0
    0.6726   -0.1841    1.2935 C   0  0  0  0  0  0  0  0  0  0  0  0
    1.8805   -0.0794    1.4624 O   0  0  0  0  0  0  0  0  0  0  0  0
   -0.1851    0.2703    2.2794 N   0  0  0  0  0  0  0  0  0  0  0  0
   -1.1677    0.0606    2.1380 H   0  0  0  0  0  0  0  0  0  0  0  0
    0.2709    0.6059    3.6223 C   0  0  0  0  0  0  0  0  0  0  0  0
    1.0126    1.4107    3.5862 H   0  0  0  0  0  0  0  0  0  0  0  0
   -0.5710    0.9421    4.2348 H   0  0  0  0  0  0  0  0  0  0  0  0
    0.7231   -0.2687    4.1018 H   0  0  0  0  0  0  0  0  0  0  0  0
  1  2  1  0  0  0  0
  2  3  1  0  0  0  0
  2  4  1  0  0  0  0
  2  5  1  0  0  0  0
  5  6  2  0  0  0  0
  5  7  1  0  0  0  0
  7  8  1  0  0  0  0
  7  9  1  0  0  0  0
  9 10  1  0  0  0  0
  9 11  1  0  0  0  0
  9 22  1  0  0  0  0
 11 12  1  0  0  0  0
 11 13  1  0  0  0  0
 11 14  1  0  0  0  0
 14 15  1  0  0  0  0
 14 16  1  0  0  0  0
 14 17  1  0  0  0  0
 17 18  1  0  0  0  0
 18 19  1  0  0  0  0
 18 20  1  0  0  0  0
 18 21  1  0  0  0  0
 22 23  2  0  0  0  0
 22 24  1  0  0  0  0
 24 25  1  0  0  0  0
 24 26  1  0  0  0  0
 26 27  1  0  0  0  0
 26 28  1  0  0  0  0
 26 29  1  0  0  0  0
M  END
$$$$

  -OEChem-04042216023D

 29 28  0     1  0  0  0  0  0999 V2000
   -2.4820   -4.2900    0.7624 H   0  0  0  0  0  0  0  0  0  0  0  0
   -2.5375   -3.3346    0.2327 C   0  0  0  0  0  0  0  0  0  0  0  0
   -3.4171   -2.7894    0.5828 H   0  0  0  0  0  0  0  0  0  0  0  0
   -2.6405   -3.5322   -0.8370 H   0  0  0  0  0  0  0  0  0  0  0  0
   -1.2837   -2.5210    0.4923 C   0  0  0  0  0  0  0  0  0  0  0  0
   -0.4066   -2.9720    1.2055 O   0  0  0  0  0  0  0  0  0  0  0  0
   -1.1494   -1.2727   -0.0845 N   0  0  0  0  0  0  0  0  0  0  0  0
   -1.8420   -1.0501   -0.7926 H   0  0  0  0  0  0  0  0  0  0  0  0
    0.1185   -0.5127   -0.1171 C   0  0  1  0  0  0  0  0  0  0  0  0
    0.8701   -1.1431   -0.6061 H   0  0  0  0  0  0  0  0  0  0  0  0
    0.0275    0.8221   -0.9117 C   0  0  0  0  0  0  0  0  0  0  0  0
    0.6024    1.6063   -0.4061 H   0  0  0  0  0  0  0  0  0  0  0  0
    0.5425    0.6347   -1.8595 H   0  0  0  0  0  0  0  0  0  0  0  0
   -1.3731    1.3815   -1.2507 C   0  0  0  0  0  0  0  0  0  0  0  0
   -2.1673    0.6473   -1.1175 H   0  0  0  0  0  0  0  0  0  0  0  0
   -1.5976    2.2180   -0.5809 H   0  0  0  0  0  0  0  0  0  0  0  0
   -1.4463    1.9464   -2.9984 S   0  0  0  0  0  0  0  0  0  0  0  0
   -0.2384    3.3311   -3.0212 C   0  0  0  0  0  0  0  0  0  0  0  0
    0.7664    2.9685   -2.7856 H   0  0  0  0  0  0  0  0  0  0  0  0
   -0.2178    3.7932   -4.0127 H   0  0  0  0  0  0  0  0  0  0  0  0
   -0.5197    4.0915   -2.2866 H   0  0  0  0  0  0  0  0  0  0  0  0
    0.6822   -0.1968    1.2891 C   0  0  0  0  0  0  0  0  0  0  0  0
    1.8926   -0.1042    1.4474 O   0  0  0  0  0  0  0  0  0  0  0  0
   -0.1622    0.2680    2.2814 N   0  0  0  0  0  0  0  0  0  0  0  0
   -1.1481    0.0680    2.1491 H   0  0  0  0  0  0  0  0  0  0  0  0
    0.3088    0.6033    3.6192 C   0  0  0  0  0  0  0  0  0  0  0  0
    1.0628    1.3962    3.5731 H   0  0  0  0  0  0  0  0  0  0  0  0
   -0.5229    0.9563    4.2362 H   0  0  0  0  0  0  0  0  0  0  0  0
    0.7508   -0.2757    4.1002 H   0  0  0  0  0  0  0  0  0  0  0  0
  1  2  1  0  0  0  0
  2  3  1  0  0  0  0
  2  4  1  0  0  0  0
  2  5  1  0  0  0  0
  5  6  2  0  0  0  0
  5  7  1  0  0  0  0
  7  8  1  0  0  0  0
  7  9  1  0  0  0  0
  9 10  1  0  0  0  0
  9 11  1  0  0  0  0
  9 22  1  0  0  0  0
 11 12  1  0  0  0  0
 11 13  1  0  0  0  0
 11 14  1  0  0  0  0
 14 15  1  0  0  0  0
 14 16  1  0  0  0  0
 14 17  1  0  0  0  0
 17 18  1  0  0  0  0
 18 19  1  0  0  0  0
 18 20  1  0  0  0  0
 18 21  1  0  0  0  0
 22 23  2  0  0  0  0
 22 24  1  0  0  0  0
 24 25  1  0  0  0  0
 24 26  1  0  0  0  0
 26 27  1  0  0  0  0
 26 28  1  0  0  0  0
 26 29  1  0  0  0  0
M  END
$$$$

  -OEChem-04042216023D

 29 28  0     1  0  0  0  0  0999 V2000
   -2.5449   -4.2544    0.7543 H   0  0  0  0  0  0  0  0  0  0  0  0
   -2.5788   -3.2937    0.2326 C   0  0  0  0  0  0  0  0  0  0  0  0
   -3.4468   -2.7319    0.5857 H   0  0  0  0  0  0  0  0  0  0  0  0
   -2.6836   -3.4807   -0.8390 H   0  0  0  0  0  0  0  0  0  0  0  0
   -1.3086   -2.5092    0.5013 C   0  0  0  0  0  0  0  0  0  0  0  0
   -0.4513   -2.9748    1.2294 O   0  0  0  0  0  0  0  0  0  0  0  0
   -1.1390   -1.2679   -0.0806 N   0  0  0  0  0  0  0  0  0  0  0  0
   -1.8158   -1.0334   -0.8014 H   0  0  0  0  0  0  0  0  0  0  0  0
    0.1456   -0.5372   -0.1051 C   0  0  1  0  0  0  0  0  0  0  0  0
    0.8876   -1.1860   -0.5845 H   0  0  0  0  0  0  0  0  0  0  0  0
    0.0806    0.7895   -0.9144 C   0  0  0  0  0  0  0  0  0  0  0  0
    0.6456    1.5689   -0.3908 H   0  0  0  0  0  0  0  0  0  0  0  0
    0.6187    0.6077   -1.8499 H   0  0  0  0  0  0  0  0  0  0  0  0
   -1.3142    1.3595   -1.2640 C   0  0  0  0  0  0  0  0  0  0  0  0
   -2.1352    0.7800   -0.8400 H   0  0  0  0  0  0  0  0  0  0  0  0
   -1.3975    2.3625   -0.8329 H   0  0  0  0  0  0  0  0  0  0  0  0
   -1.5421    1.4881   -3.0831 S   0  0  0  0  0  0  0  0  0  0  0  0
   -0.3705    2.8293   -3.5381 C   0  0  0  0  0  0  0  0  0  0  0  0
    0.6565    2.5447   -3.2916 H   0  0  0  0  0  0  0  0  0  0  0  0
   -0.4274    3.0267   -4.6127 H   0  0  0  0  0  0  0  0  0  0  0  0
   -0.6199    3.7489   -3.0003 H   0  0  0  0  0  0  0  0  0  0  0  0
    0.7046   -0.2248    1.3037 C   0  0  0  0  0  0  0  0  0  0  0  0
    1.9154   -0.1568    1.4717 O   0  0  0  0  0  0  0  0  0  0  0  0
   -0.1383    0.2654    2.2850 N   0  0  0  0  0  0  0  0  0  0  0  0
   -1.1271    0.0861    2.1440 H   0  0  0  0  0  0  0  0  0  0  0  0
    0.3272    0.5909    3.6272 C   0  0  0  0  0  0  0  0  0  0  0  0
    1.1045    1.3612    3.5879 H   0  0  0  0  0  0  0  0  0  0  0  0
   -0.5008    0.9697    4.2337 H   0  0  0  0  0  0  0  0  0  0  0  0
    0.7381   -0.2993    4.1151 H   0  0  0  0  0  0  0  0  0  0  0  0
  1  2  1  0  0  0  0
  2  3  1  0  0  0  0
  2  4  1  0  0  0  0
  2  5  1  0  0  0  0
  5  6  2  0  0  0  0
  5  7  1  0  0  0  0
  7  8  1  0  0  0  0
  7  9  1  0  0  0  0
  9 10  1  0  0  0  0
  9 11  1  0  0  0  0
  9 22  1  0  0  0  0
 11 12  1  0  0  0  0
 11 13  1  0  0  0  0
 11 14  1  0  0  0  0
 14 15  1  0  0  0  0
 14 16  1  0  0  0  0
 14 17  1  0  0  0  0
 17 18  1  0  0  0  0
 18 19  1  0  0  0  0
 18 20  1  0  0  0  0
 18 21  1  0  0  0  0
 22 23  2  0  0  0  0
 22 24  1  0  0  0  0
 24 25  1  0  0  0  0
 24 26  1  0  0  0  0
 26 27  1  0  0  0  0
 26 28  1  0  0  0  0
 26 29  1  0  0  0  0
M  END
$$$$

  -OEChem-04042216023D

 29 28  0     1  0  0  0  0  0999 V2000
   -2.6035   -4.2150    0.7090 H   0  0  0  0  0  0  0  0  0  0  0  0
   -2.6155   -3.2426    0.2083 C   0  0  0  0  0  0  0  0  0  0  0  0
   -3.4755   -2.6723    0.5676 H   0  0  0  0  0  0  0  0  0  0  0  0
   -2.7167   -3.4038   -0.8678 H   0  0  0  0  0  0  0  0  0  0  0  0
   -1.3321   -2.4886    0.5019 C   0  0  0  0  0  0  0  0  0  0  0  0
   -0.5044   -2.9703    1.2536 O   0  0  0  0  0  0  0  0  0  0  0  0
   -1.1178   -1.2550   -0.0809 N   0  0  0  0  0  0  0  0  0  0  0  0
   -1.7734   -1.0025   -0.8166 H   0  0  0  0  0  0  0  0  0  0  0  0
    0.1844   -0.5559   -0.0824 C   0  0  1  0  0  0  0  0  0  0  0  0
    0.9199   -1.2222   -0.5471 H   0  0  0  0  0  0  0  0  0  0  0  0
    0.1468    0.7604   -0.9074 C   0  0  0  0  0  0  0  0  0  0  0  0
    0.6896    1.5404   -0.3617 H   0  0  0  0  0  0  0  0  0  0  0  0
    0.7094    0.5908   -1.8302 H   0  0  0  0  0  0  0  0  0  0  0  0
   -1.2477    1.3162   -1.2674 C   0  0  0  0  0  0  0  0  0  0  0  0
   -2.0365    0.9306   -0.6171 H   0  0  0  0  0  0  0  0  0  0  0  0
   -1.2351    2.4001   -1.1132 H   0  0  0  0  0  0  0  0  0  0  0  0
   -1.6500    1.0093   -3.0343 S   0  0  0  0  0  0  0  0  0  0  0  0
   -0.5714    2.2109   -3.9132 C   0  0  0  0  0  0  0  0  0  0  0  0
    0.4831    2.0099   -3.7027 H   0  0  0  0  0  0  0  0  0  0  0  0
   -0.7302    2.1350   -4.9932 H   0  0  0  0  0  0  0  0  0  0  0  0
   -0.8051    3.2319   -3.5969 H   0  0  0  0  0  0  0  0  0  0  0  0
    0.7270   -0.2477    1.3332 C   0  0  0  0  0  0  0  0  0  0  0  0
    1.9362   -0.2048    1.5198 O   0  0  0  0  0  0  0  0  0  0  0  0
   -0.1202    0.2692    2.2967 N   0  0  0  0  0  0  0  0  0  0  0  0
   -1.1096    0.1039    2.1431 H   0  0  0  0  0  0  0  0  0  0  0  0
    0.3312    0.5927    3.6442 C   0  0  0  0  0  0  0  0  0  0  0  0
    1.1338    1.3372    3.6125 H   0  0  0  0  0  0  0  0  0  0  0  0
   -0.4955    1.0040    4.2313 H   0  0  0  0  0  0  0  0  0  0  0  0
    0.7043   -0.3053    4.1481 H   0  0  0  0  0  0  0  0  0  0  0  0
  1  2  1  0  0  0  0
  2  3  1  0  0  0  0
  2  4  1  0  0  0  0
  2  5  1  0  0  0  0
  5  6  2  0  0  0  0
  5  7  1  0  0  0  0
  7  8  1  0  0  0  0
  7  9  1  0  0  0  0
  9 10  1  0  0  0  0
  9 11  1  0  0  0  0
  9 22  1  0  0  0  0
 11 12  1  0  0  0  0
 11 13  1  0  0  0  0
 11 14  1  0  0  0  0
 14 15  1  0  0  0  0
 14 16  1  0  0  0  0
 14 17  1  0  0  0  0
 17 18  1  0  0  0  0
 18 19  1  0  0  0  0
 18 20  1  0  0  0  0
 18 21  1  0  0  0  0
 22 23  2  0  0  0  0
 22 24  1  0  0  0  0
 24 25  1  0  0  0  0
 24 26  1  0  0  0  0
 26 27  1  0  0  0  0
 26 28  1  0  0  0  0
 26 29  1  0  0  0  0
M  END
$$$$

  -OEChem-04042216023D

 29 28  0     1  0  0  0  0  0999 V2000
   -2.6365   -4.1770    0.6726 H   0  0  0  0  0  0  0  0  0  0  0  0
   -2.6310   -3.1976    0.1856 C   0  0  0  0  0  0  0  0  0  0  0  0
   -3.4833   -2.6182    0.5484 H   0  0  0  0  0  0  0  0  0  0  0  0
   -2.7292   -3.3416   -0.8932 H   0  0  0  0  0  0  0  0  0  0  0  0
   -1.3383   -2.4677    0.4969 C   0  0  0  0  0  0  0  0  0  0  0  0
   -0.5314   -2.9609    1.2637 O   0  0  0  0  0  0  0  0  0  0  0  0
   -1.0925   -1.2407   -0.0853 N   0  0  0  0  0  0  0  0  0  0  0  0
   -1.7333   -0.9748   -0.8308 H   0  0  0  0  0  0  0  0  0  0  0  0
    0.2189   -0.5595   -0.0662 C   0  0  1  0  0  0  0  0  0  0  0  0
    0.9539   -1.2353   -0.5178 H   0  0  0  0  0  0  0  0  0  0  0  0
    0.1960    0.7496   -0.9007 C   0  0  0  0  0  0  0  0  0  0  0  0
    0.7238    1.5349   -0.3478 H   0  0  0  0  0  0  0  0  0  0  0  0
    0.7681    0.5839   -1.8180 H   0  0  0  0  0  0  0  0  0  0  0  0
   -1.2029    1.2817   -1.2651 C   0  0  0  0  0  0  0  0  0  0  0  0
   -1.9247    1.0909   -0.4650 H   0  0  0  0  0  0  0  0  0  0  0  0
   -1.1443    2.3694   -1.3760 H   0  0  0  0  0  0  0  0  0  0  0  0
   -1.7861    0.5842   -2.8636 S   0  0  0  0  0  0  0  0  0  0  0  0
   -0.7967    1.5112   -4.1045 C   0  0  0  0  0  0  0  0  0  0  0  0
    0.2707    1.3104   -3.9766 H   0  0  0  0  0  0  0  0  0  0  0  0
   -1.0874    1.2091   -5.1151 H   0  0  0  0  0  0  0  0  0  0  0  0
   -0.9678    2.5866   -3.9988 H   0  0  0  0  0  0  0  0  0  0  0  0
    0.7428   -0.2513    1.3560 C   0  0  0  0  0  0  0  0  0  0  0  0
    1.9492   -0.2206    1.5618 O   0  0  0  0  0  0  0  0  0  0  0  0
   -0.1134    0.2821    2.3022 N   0  0  0  0  0  0  0  0  0  0  0  0
   -1.1014    0.1231    2.1337 H   0  0  0  0  0  0  0  0  0  0  0  0
    0.3187    0.5969    3.6580 C   0  0  0  0  0  0  0  0  0  0  0  0
    1.1308    1.3316    3.6424 H   0  0  0  0  0  0  0  0  0  0  0  0
   -0.5125    1.0165    4.2326 H   0  0  0  0  0  0  0  0  0  0  0  0
    0.6719   -0.3073    4.1651 H   0  0  0  0  0  0  0  0  0  0  0  0
  1  2  1  0  0  0  0
  2  3  1  0  0  0  0
  2  4  1  0  0  0  0
  2  5  1  0  0  0  0
  5  6  2  0  0  0  0
  5  7  1  0  0  0  0
  7  8  1  0  0  0  0
  7  9  1  0  0  0  0
  9 10  1  0  0  0  0
  9 11  1  0  0  0  0
  9 22  1  0  0  0  0
 11 12  1  0  0  0  0
 11 13  1  0  0  0  0
 11 14  1  0  0  0  0
 14 15  1  0  0  0  0
 14 16  1  0  0  0  0
 14 17  1  0  0  0  0
 17 18  1  0  0  0  0
 18 19  1  0  0  0  0
 18 20  1  0  0  0  0
 18 21  1  0  0  0  0
 22 23  2  0  0  0  0
 22 24  1  0  0  0  0
 24 25  1  0  0  0  0
 24 26  1  0  0  0  0
 26 27  1  0  0  0  0
 26 28  1  0  0  0  0
 26 29  1  0  0  0  0
M  END
$$$$

  -OEChem-04042216023D

 29 28  0     1  0  0  0  0  0999 V2000
   -2.6277   -4.1753    0.6821 H   0  0  0  0  0  0  0  0  0  0  0  0
   -2.6242   -3.1949    0.1973 C   0  0  0  0  0  0  0  0  0  0  0  0
   -3.4706   -2.6136    0.5709 H   0  0  0  0  0  0  0  0  0  0  0  0
   -2.7353   -3.3357   -0.8806 H   0  0  0  0  0  0  0  0  0  0  0  0
   -1.3251   -2.4701    0.4939 C   0  0  0  0  0  0  0  0  0  0  0  0
   -0.5057   -2.9721    1.2419 O   0  0  0  0  0  0  0  0  0  0  0  0
   -1.0857   -1.2392   -0.0824 N   0  0  0  0  0  0  0  0  0  0  0  0
   -1.7444   -0.9563   -0.8064 H   0  0  0  0  0  0  0  0  0  0  0  0
    0.2190   -0.5485   -0.0648 C   0  0  1  0  0  0  0  0  0  0  0  0
    0.9570   -1.2207   -0.5166 H   0  0  0  0  0  0  0  0  0  0  0  0
    0.1979    0.7623   -0.8989 C   0  0  0  0  0  0  0  0  0  0  0  0
    0.7269    1.5476   -0.3473 H   0  0  0  0  0  0  0  0  0  0  0  0
    0.7697    0.5936   -1.8156 H   0  0  0  0  0  0  0  0  0  0  0  0
   -1.1930    1.3031   -1.2781 C   0  0  0  0  0  0  0  0  0  0  0  0
   -1.8395    1.3155   -0.3946 H   0  0  0  0  0  0  0  0  0  0  0  0
   -1.0894    2.3396   -1.6155 H   0  0  0  0  0  0  0  0  0  0  0  0
   -1.9890    0.3322   -2.6284 S   0  0  0  0  0  0  0  0  0  0  0  0
   -1.0072    0.7940   -4.1121 C   0  0  0  0  0  0  0  0  0  0  0  0
    0.0258    0.4485   -4.0143 H   0  0  0  0  0  0  0  0  0  0  0  0
   -1.4419    0.3356   -5.0054 H   0  0  0  0  0  0  0  0  0  0  0  0
   -1.0051    1.8803   -4.2436 H   0  0  0  0  0  0  0  0  0  0  0  0
    0.7411   -0.2437    1.3585 C   0  0  0  0  0  0  0  0  0  0  0  0
    1.9474   -0.2055    1.5642 O   0  0  0  0  0  0  0  0  0  0  0  0
   -0.1191    0.2780    2.3078 N   0  0  0  0  0  0  0  0  0  0  0  0
   -1.1065    0.1172    2.1370 H   0  0  0  0  0  0  0  0  0  0  0  0
    0.3105    0.5932    3.6643 C   0  0  0  0  0  0  0  0  0  0  0  0
    1.1161    1.3347    3.6497 H   0  0  0  0  0  0  0  0  0  0  0  0
   -0.5243    1.0045    4.2396 H   0  0  0  0  0  0  0  0  0  0  0  0
    0.6715   -0.3088    4.1700 H   0  0  0  0  0  0  0  0  0  0  0  0
  1  2  1  0  0  0  0
  2  3  1  0  0  0  0
  2  4  1  0  0  0  0
  2  5  1  0  0  0  0
  5  6  2  0  0  0  0
  5  7  1  0  0  0  0
  7  8  1  0  0  0  0
  7  9  1  0  0  0  0
  9 10  1  0  0  0  0
  9 11  1  0  0  0  0
  9 22  1  0  0  0  0
 11 12  1  0  0  0  0
 11 13  1  0  0  0  0
 11 14  1  0  0  0  0
 14 15  1  0  0  0  0
 14 16  1  0  0  0  0
 14 17  1  0  0  0  0
 17 18  1  0  0  0  0
 18 19  1  0  0  0  0
 18 20  1  0  0  0  0
 18 21  1  0  0  0  0
 22 23  2  0  0  0  0
 22 24  1  0  0  0  0
 24 25  1  0  0  0  0
 24 26  1  0  0  0  0
 26 27  1  0  0  0  0
 26 28  1  0  0  0  0
 26 29  1  0  0  0  0
M  END
$$$$

  -OEChem-04042216023D

 29 28  0     1  0  0  0  0  0999 V2000
   -2.6075   -4.1599    0.7370 H   0  0  0  0  0  0  0  0  0  0  0  0
   -2.6064   -3.1981    0.2160 C   0  0  0  0  0  0  0  0  0  0  0  0
   -3.4302   -2.5901    0.5970 H   0  0  0  0  0  0  0  0  0  0  0  0
   -2.7570   -3.3756   -0.8517 H   0  0  0  0  0  0  0  0  0  0  0  0
   -1.2875   -2.4838    0.4406 C   0  0  0  0  0  0  0  0  0  0  0  0
   -0.4143   -3.0116    1.1053 O   0  0  0  0  0  0  0  0  0  0  0  0
   -1.0886   -1.2340   -0.1094 N   0  0  0  0  0  0  0  0  0  0  0  0
   -1.8126   -0.9030   -0.7439 H   0  0  0  0  0  0  0  0  0  0  0  0
    0.1934   -0.5073   -0.1037 C   0  0  1  0  0  0  0  0  0  0  0  0
    0.9387   -1.1574   -0.5756 H   0  0  0  0  0  0  0  0  0  0  0  0
    0.1592    0.8240   -0.9094 C   0  0  0  0  0  0  0  0  0  0  0  0
    0.7039    1.5941   -0.3518 H   0  0  0  0  0  0  0  0  0  0  0  0
    0.7266    0.6610   -1.8301 H   0  0  0  0  0  0  0  0  0  0  0  0
   -1.2102    1.4169   -1.3058 C   0  0  0  0  0  0  0  0  0  0  0  0
   -1.7657    1.6527   -0.3923 H   0  0  0  0  0  0  0  0  0  0  0  0
   -1.0374    2.3614   -1.8320 H   0  0  0  0  0  0  0  0  0  0  0  0
   -2.2715    0.3486   -2.3761 S   0  0  0  0  0  0  0  0  0  0  0  0
   -1.2080    0.0271   -3.8397 C   0  0  0  0  0  0  0  0  0  0  0  0
   -0.3417   -0.5788   -3.5581 H   0  0  0  0  0  0  0  0  0  0  0  0
   -1.7751   -0.5132   -4.6037 H   0  0  0  0  0  0  0  0  0  0  0  0
   -0.8556    0.9702   -4.2684 H   0  0  0  0  0  0  0  0  0  0  0  0
    0.7273   -0.2252    1.3201 C   0  0  0  0  0  0  0  0  0  0  0  0
    1.9348   -0.1611    1.5116 O   0  0  0  0  0  0  0  0  0  0  0  0
   -0.1324    0.2459    2.2960 N   0  0  0  0  0  0  0  0  0  0  0  0
   -1.1195    0.0773    2.1312 H   0  0  0  0  0  0  0  0  0  0  0  0
    0.3086    0.5510    3.6512 C   0  0  0  0  0  0  0  0  0  0  0  0
    1.0659    1.3419    3.6391 H   0  0  0  0  0  0  0  0  0  0  0  0
   -0.5363    0.8934    4.2562 H   0  0  0  0  0  0  0  0  0  0  0  0
    0.7367   -0.3395    4.1234 H   0  0  0  0  0  0  0  0  0  0  0  0
  1  2  1  0  0  0  0
  2  3  1  0  0  0  0
  2  4  1  0  0  0  0
  2  5  1  0  0  0  0
  5  6  2  0  0  0  0
  5  7  1  0  0  0  0
  7  8  1  0  0  0  0
  7  9  1  0  0  0  0
  9 10  1  0  0  0  0
  9 11  1  0  0  0  0
  9 22  1  0  0  0  0
 11 12  1  0  0  0  0
 11 13  1  0  0  0  0
 11 14  1  0  0  0  0
 14 15  1  0  0  0  0
 14 16  1  0  0  0  0
 14 17  1  0  0  0  0
 17 18  1  0  0  0  0
 18 19  1  0  0  0  0
 18 20  1  0  0  0  0
 18 21  1  0  0  0  0
 22 23  2  0  0  0  0
 22 24  1  0  0  0  0
 24 25  1  0  0  0  0
 24 26  1  0  0  0  0
 26 27  1  0  0  0  0
 26 28  1  0  0  0  0
 26 29  1  0  0  0  0
M  END
$$$$

  -OEChem-04042216023D

 29 28  0     1  0  0  0  0  0999 V2000
   -2.5456   -4.2229    0.8037 H   0  0  0  0  0  0  0  0  0  0  0  0
   -2.5743   -3.2466    0.3118 C   0  0  0  0  0  0  0  0  0  0  0  0
   -3.3697   -2.6483    0.7622 H   0  0  0  0  0  0  0  0  0  0  0  0
   -2.7936   -3.3930   -0.7486 H   0  0  0  0  0  0  0  0  0  0  0  0
   -1.2412   -2.5411    0.4714 C   0  0  0  0  0  0  0  0  0  0  0  0
   -0.3386   -3.0748    1.0903 O   0  0  0  0  0  0  0  0  0  0  0  0
   -1.0588   -1.2965   -0.0951 N   0  0  0  0  0  0  0  0  0  0  0  0
   -1.8276   -0.9358   -0.6545 H   0  0  0  0  0  0  0  0  0  0  0  0
    0.2063   -0.5440   -0.0960 C   0  0  1  0  0  0  0  0  0  0  0  0
    0.9656   -1.1946   -0.5449 H   0  0  0  0  0  0  0  0  0  0  0  0
    0.1883    0.7793   -0.9211 C   0  0  0  0  0  0  0  0  0  0  0  0
    0.7568    1.5458   -0.3822 H   0  0  0  0  0  0  0  0  0  0  0  0
    0.7571    0.5691   -1.8322 H   0  0  0  0  0  0  0  0  0  0  0  0
   -1.1380    1.4291   -1.3888 C   0  0  0  0  0  0  0  0  0  0  0  0
   -1.5901    1.9180   -0.5198 H   0  0  0  0  0  0  0  0  0  0  0  0
   -0.8947    2.2171   -2.1091 H   0  0  0  0  0  0  0  0  0  0  0  0
   -2.4319    0.3459   -2.1376 S   0  0  0  0  0  0  0  0  0  0  0  0
   -1.5261   -0.4355   -3.5319 C   0  0  0  0  0  0  0  0  0  0  0  0
   -0.6972   -1.0441   -3.1580 H   0  0  0  0  0  0  0  0  0  0  0  0
   -2.2007   -1.0796   -4.1038 H   0  0  0  0  0  0  0  0  0  0  0  0
   -1.1257    0.3319   -4.2012 H   0  0  0  0  0  0  0  0  0  0  0  0
    0.7172   -0.2346    1.3307 C   0  0  0  0  0  0  0  0  0  0  0  0
    1.9207   -0.1531    1.5397 O   0  0  0  0  0  0  0  0  0  0  0  0
   -0.1637    0.2302    2.2909 N   0  0  0  0  0  0  0  0  0  0  0  0
   -1.1482    0.0673    2.1061 H   0  0  0  0  0  0  0  0  0  0  0  0
    0.2502    0.5631    3.6481 C   0  0  0  0  0  0  0  0  0  0  0  0
    1.0095    1.3520    3.6358 H   0  0  0  0  0  0  0  0  0  0  0  0
   -0.6062    0.9200    4.2279 H   0  0  0  0  0  0  0  0  0  0  0  0
    0.6661   -0.3183    4.1475 H   0  0  0  0  0  0  0  0  0  0  0  0
  1  2  1  0  0  0  0
  2  3  1  0  0  0  0
  2  4  1  0  0  0  0
  2  5  1  0  0  0  0
  5  6  2  0  0  0  0
  5  7  1  0  0  0  0
  7  8  1  0  0  0  0
  7  9  1  0  0  0  0
  9 10  1  0  0  0  0
  9 11  1  0  0  0  0
  9 22  1  0  0  0  0
 11 12  1  0  0  0  0
 11 13  1  0  0  0  0
 11 14  1  0  0  0  0
 14 15  1  0  0  0  0
 14 16  1  0  0  0  0
 14 17  1  0  0  0  0
 17 18  1  0  0  0  0
 18 19  1  0  0  0  0
 18 20  1  0  0  0  0
 18 21  1  0  0  0  0
 22 23  2  0  0  0  0
 22 24  1  0  0  0  0
 24 25  1  0  0  0  0
 24 26  1  0  0  0  0
 26 27  1  0  0  0  0
 26 28  1  0  0  0  0
 26 29  1  0  0  0  0
M  END
$$$$

  -OEChem-04042216023D

 29 28  0     1  0  0  0  0  0999 V2000
   -2.4415   -4.2946    0.9872 H   0  0  0  0  0  0  0  0  0  0  0  0
   -2.4942   -3.3329    0.4689 C   0  0  0  0  0  0  0  0  0  0  0  0
   -3.2716   -2.7231    0.9352 H   0  0  0  0  0  0  0  0  0  0  0  0
   -2.7579   -3.5105   -0.5765 H   0  0  0  0  0  0  0  0  0  0  0  0
   -1.1575   -2.6213    0.5517 C   0  0  0  0  0  0  0  0  0  0  0  0
   -0.2245   -3.1415    1.1361 O   0  0  0  0  0  0  0  0  0  0  0  0
   -1.0061   -1.3858   -0.0430 N   0  0  0  0  0  0  0  0  0  0  0  0
   -1.8142   -1.0129   -0.5335 H   0  0  0  0  0  0  0  0  0  0  0  0
    0.2375   -0.6003   -0.0577 C   0  0  1  0  0  0  0  0  0  0  0  0
    1.0145   -1.2471   -0.4811 H   0  0  0  0  0  0  0  0  0  0  0  0
    0.2166    0.7055   -0.9137 C   0  0  0  0  0  0  0  0  0  0  0  0
    0.7952    1.4804   -0.3980 H   0  0  0  0  0  0  0  0  0  0  0  0
    0.7905    0.4557   -1.8118 H   0  0  0  0  0  0  0  0  0  0  0  0
   -1.0819    1.3741   -1.4432 C   0  0  0  0  0  0  0  0  0  0  0  0
   -1.4038    2.0851   -0.6752 H   0  0  0  0  0  0  0  0  0  0  0  0
   -0.8246    1.9628   -2.3298 H   0  0  0  0  0  0  0  0  0  0  0  0
   -2.5626    0.3491   -1.8409 S   0  0  0  0  0  0  0  0  0  0  0  0
   -1.9455   -0.6481   -3.2559 C   0  0  0  0  0  0  0  0  0  0  0  0
   -1.0838   -1.2512   -2.9543 H   0  0  0  0  0  0  0  0  0  0  0  0
   -2.7326   -1.3179   -3.6154 H   0  0  0  0  0  0  0  0  0  0  0  0
   -1.6434    0.0076   -4.0779 H   0  0  0  0  0  0  0  0  0  0  0  0
    0.7277   -0.2482    1.3664 C   0  0  0  0  0  0  0  0  0  0  0  0
    1.9267   -0.1375    1.5874 O   0  0  0  0  0  0  0  0  0  0  0  0
   -0.1731    0.2121    2.3098 N   0  0  0  0  0  0  0  0  0  0  0  0
   -1.1537    0.0439    2.1104 H   0  0  0  0  0  0  0  0  0  0  0  0
    0.2175    0.5792    3.6649 C   0  0  0  0  0  0  0  0  0  0  0  0
    0.9638    1.3805    3.6458 H   0  0  0  0  0  0  0  0  0  0  0  0
   -0.6522    0.9330    4.2267 H   0  0  0  0  0  0  0  0  0  0  0  0
    0.6416   -0.2848    4.1875 H   0  0  0  0  0  0  0  0  0  0  0  0
  1  2  1  0  0  0  0
  2  3  1  0  0  0  0
  2  4  1  0  0  0  0
  2  5  1  0  0  0  0
  5  6  2  0  0  0  0
  5  7  1  0  0  0  0
  7  8  1  0  0  0  0
  7  9  1  0  0  0  0
  9 10  1  0  0  0  0
  9 11  1  0  0  0  0
  9 22  1  0  0  0  0
 11 12  1  0  0  0  0
 11 13  1  0  0  0  0
 11 14  1  0  0  0  0
 14 15  1  0  0  0  0
 14 16  1  0  0  0  0
 14 17  1  0  0  0  0
 17 18  1  0  0  0  0
 18 19  1  0  0  0  0
 18 20  1  0  0  0  0
 18 21  1  0  0  0  0
 22 23  2  0  0  0  0
 22 24  1  0  0  0  0
 24 25  1  0  0  0  0
 24 26  1  0  0  0  0
 26 27  1  0  0  0  0
 26 28  1  0  0  0  0
 26 29  1  0  0  0  0
M  END
$$$$

  -OEChem-04042216023D

 29 28  0     1  0  0  0  0  0999 V2000
   -2.3050   -4.3497    1.2067 H   0  0  0  0  0  0  0  0  0  0  0  0
   -2.3718   -3.4211    0.6329 C   0  0  0  0  0  0  0  0  0  0  0  0
   -3.1554   -2.7952    1.0666 H   0  0  0  0  0  0  0  0  0  0  0  0
   -2.6372   -3.6627   -0.3991 H   0  0  0  0  0  0  0  0  0  0  0  0
   -1.0440   -2.6891    0.6669 C   0  0  0  0  0  0  0  0  0  0  0  0
   -0.0918   -3.1780    1.2475 O   0  0  0  0  0  0  0  0  0  0  0  0
   -0.9229   -1.4718    0.0292 N   0  0  0  0  0  0  0  0  0  0  0  0
   -1.7547   -1.1122   -0.4295 H   0  0  0  0  0  0  0  0  0  0  0  0
    0.2943   -0.6468    0.0060 C   0  0  1  0  0  0  0  0  0  0  0  0
    1.1003   -1.2820   -0.3800 H   0  0  0  0  0  0  0  0  0  0  0  0
    0.2519    0.6317   -0.8916 C   0  0  0  0  0  0  0  0  0  0  0  0
    0.8077    1.4335   -0.3914 H   0  0  0  0  0  0  0  0  0  0  0  0
    0.8503    0.3653   -1.7690 H   0  0  0  0  0  0  0  0  0  0  0  0
   -1.0426    1.2690   -1.4769 C   0  0  0  0  0  0  0  0  0  0  0  0
   -1.2361    2.1669   -0.8806 H   0  0  0  0  0  0  0  0  0  0  0  0
   -0.8250    1.6129   -2.4936 H   0  0  0  0  0  0  0  0  0  0  0  0
   -2.6390    0.3474   -1.5124 S   0  0  0  0  0  0  0  0  0  0  0  0
   -2.3740   -0.7748   -2.9440 C   0  0  0  0  0  0  0  0  0  0  0  0
   -1.4918   -1.4020   -2.7836 H   0  0  0  0  0  0  0  0  0  0  0  0
   -3.2450   -1.4229   -3.0809 H   0  0  0  0  0  0  0  0  0  0  0  0
   -2.2268   -0.1921   -3.8584 H   0  0  0  0  0  0  0  0  0  0  0  0
    0.7415   -0.2309    1.4272 C   0  0  0  0  0  0  0  0  0  0  0  0
    1.9315   -0.0829    1.6737 O   0  0  0  0  0  0  0  0  0  0  0  0
   -0.1937    0.2311    2.3360 N   0  0  0  0  0  0  0  0  0  0  0  0
   -1.1671    0.0534    2.1108 H   0  0  0  0  0  0  0  0  0  0  0  0
    0.1534    0.6621    3.6840 C   0  0  0  0  0  0  0  0  0  0  0  0
    0.8673    1.4918    3.6502 H   0  0  0  0  0  0  0  0  0  0  0  0
   -0.7412    1.0000    4.2156 H   0  0  0  0  0  0  0  0  0  0  0  0
    0.6006   -0.1648    4.2456 H   0  0  0  0  0  0  0  0  0  0  0  0
  1  2  1  0  0  0  0
  2  3  1  0  0  0  0
  2  4  1  0  0  0  0
  2  5  1  0  0  0  0
  5  6  2  0  0  0  0
  5  7  1  0  0  0  0
  7  8  1  0  0  0  0
  7  9  1  0  0  0  0
  9 10  1  0  0  0  0
  9 11  1  0  0  0  0
  9 22  1  0  0  0  0
 11 12  1  0  0  0  0
 11 13  1  0  0  0  0
 11 14  1  0  0  0  0
 14 15  1  0  0  0  0
 14 16  1  0  0  0  0
 14 17  1  0  0  0  0
 17 18  1  0  0  0  0
 18 19  1  0  0  0  0
 18 20  1  0  0  0  0
 18 21  1  0  0  0  0
 22 23  2  0  0  0  0
 22 24  1  0  0  0  0
 24 25  1  0  0  0  0
 24 26  1  0  0  0  0
 26 27  1  0  0  0  0
 26 28  1  0  0  0  0
 26 29  1  0  0  0  0
M  END
$$$$

  -OEChem-04042216023D

 29 28  0     1  0  0  0  0  0999 V2000
   -2.1739   -4.4515    1.1861 H   0  0  0  0  0  0  0  0  0  0  0  0
   -2.2648   -3.4999    0.6548 C   0  0  0  0  0  0  0  0  0  0  0  0
   -3.0402   -2.8999    1.1372 H   0  0  0  0  0  0  0  0  0  0  0  0
   -2.5579   -3.7002   -0.3786 H   0  0  0  0  0  0  0  0  0  0  0  0
   -0.9423   -2.7580    0.6842 C   0  0  0  0  0  0  0  0  0  0  0  0
    0.0185   -3.2457    1.2511 O   0  0  0  0  0  0  0  0  0  0  0  0
   -0.8365   -1.5313    0.0617 N   0  0  0  0  0  0  0  0  0  0  0  0
   -1.6813   -1.1611   -0.3632 H   0  0  0  0  0  0  0  0  0  0  0  0
    0.3616   -0.6784    0.0795 C   0  0  1  0  0  0  0  0  0  0  0  0
    1.1925   -1.2877   -0.2944 H   0  0  0  0  0  0  0  0  0  0  0  0
    0.3072    0.6100   -0.8024 C   0  0  0  0  0  0  0  0  0  0  0  0
    0.8163    1.4169   -0.2627 H   0  0  0  0  0  0  0  0  0  0  0  0
    0.9471    0.3890   -1.6630 H   0  0  0  0  0  0  0  0  0  0  0  0
   -0.9901    1.2243   -1.4081 C   0  0  0  0  0  0  0  0  0  0  0  0
   -1.0629    2.2442   -1.0160 H   0  0  0  0  0  0  0  0  0  0  0  0
   -0.8468    1.3207   -2.4894 H   0  0  0  0  0  0  0  0  0  0  0  0
   -2.6413    0.4533   -1.1259 S   0  0  0  0  0  0  0  0  0  0  0  0
   -2.7712   -0.6632   -2.5801 C   0  0  0  0  0  0  0  0  0  0  0  0
   -1.9236   -1.3547   -2.6114 H   0  0  0  0  0  0  0  0  0  0  0  0
   -2.7792   -0.0782   -3.5049 H   0  0  0  0  0  0  0  0  0  0  0  0
   -3.6972   -1.2438   -2.5279 H   0  0  0  0  0  0  0  0  0  0  0  0
    0.7593   -0.2699    1.5177 C   0  0  0  0  0  0  0  0  0  0  0  0
    1.9380   -0.0982    1.8004 O   0  0  0  0  0  0  0  0  0  0  0  0
   -0.2116    0.1590    2.4048 N   0  0  0  0  0  0  0  0  0  0  0  0
   -1.1771   -0.0025    2.1369 H   0  0  0  0  0  0  0  0  0  0  0  0
    0.0855    0.6181    3.7552 C   0  0  0  0  0  0  0  0  0  0  0  0
    0.7250    1.5066    3.7254 H   0  0  0  0  0  0  0  0  0  0  0  0
   -0.8395    0.8759    4.2796 H   0  0  0  0  0  0  0  0  0  0  0  0
    0.5982   -0.1667    4.3216 H   0  0  0  0  0  0  0  0  0  0  0  0
  1  2  1  0  0  0  0
  2  3  1  0  0  0  0
  2  4  1  0  0  0  0
  2  5  1  0  0  0  0
  5  6  2  0  0  0  0
  5  7  1  0  0  0  0
  7  8  1  0  0  0  0
  7  9  1  0  0  0  0
  9 10  1  0  0  0  0
  9 11  1  0  0  0  0
  9 22  1  0  0  0  0
 11 12  1  0  0  0  0
 11 13  1  0  0  0  0
 11 14  1  0  0  0  0
 14 15  1  0  0  0  0
 14 16  1  0  0  0  0
 14 17  1  0  0  0  0
 17 18  1  0  0  0  0
 18 19  1  0  0  0  0
 18 20  1  0  0  0  0
 18 21  1  0  0  0  0
 22 23  2  0  0  0  0
 22 24  1  0  0  0  0
 24 25  1  0  0  0  0
 24 26  1  0  0  0  0
 26 27  1  0  0  0  0
 26 28  1  0  0  0  0
 26 29  1  0  0  0  0
M  END
$$$$

  -OEChem-04042216023D

 29 28  0     1  0  0  0  0  0999 V2000
   -1.7732   -4.6424    1.8683 H   0  0  0  0  0  0  0  0  0  0  0  0
   -1.8718   -3.8626    1.1077 C   0  0  0  0  0  0  0  0  0  0  0  0
   -2.7400   -3.2445    1.3484 H   0  0  0  0  0  0  0  0  0  0  0  0
   -2.0273   -4.3361    0.1355 H   0  0  0  0  0  0  0  0  0  0  0  0
   -0.6194   -3.0077    1.0717 C   0  0  0  0  0  0  0  0  0  0  0  0
    0.3391   -3.3038    1.7624 O   0  0  0  0  0  0  0  0  0  0  0  0
   -0.5746   -1.8966    0.2549 N   0  0  0  0  0  0  0  0  0  0  0  0
   -1.4061   -1.6954   -0.2942 H   0  0  0  0  0  0  0  0  0  0  0  0
    0.5591   -0.9633    0.1614 C   0  0  1  0  0  0  0  0  0  0  0  0
    1.4465   -1.5550   -0.0904 H   0  0  0  0  0  0  0  0  0  0  0  0
    0.4191    0.1495   -0.9242 C   0  0  0  0  0  0  0  0  0  0  0  0
    0.8094    1.0809   -0.4982 H   0  0  0  0  0  0  0  0  0  0  0  0
    1.1142   -0.1185   -1.7265 H   0  0  0  0  0  0  0  0  0  0  0  0
   -0.9223    0.5184   -1.6198 C   0  0  0  0  0  0  0  0  0  0  0  0
   -0.9637    1.6093   -1.7055 H   0  0  0  0  0  0  0  0  0  0  0  0
   -0.8766    0.1230   -2.6399 H   0  0  0  0  0  0  0  0  0  0  0  0
   -2.5239   -0.0542   -0.9046 S   0  0  0  0  0  0  0  0  0  0  0  0
   -3.7263    0.6784   -2.0838 C   0  0  0  0  0  0  0  0  0  0  0  0
   -3.5496    0.2967   -3.0939 H   0  0  0  0  0  0  0  0  0  0  0  0
   -4.7480    0.4227   -1.7870 H   0  0  0  0  0  0  0  0  0  0  0  0
   -3.6292    1.7682   -2.0977 H   0  0  0  0  0  0  0  0  0  0  0  0
    0.8708   -0.2923    1.5195 C   0  0  0  0  0  0  0  0  0  0  0  0
    2.0231    0.0075    1.8047 O   0  0  0  0  0  0  0  0  0  0  0  0
   -0.1632    0.2024    2.2934 N   0  0  0  0  0  0  0  0  0  0  0  0
   -1.1033   -0.0679    2.0211 H   0  0  0  0  0  0  0  0  0  0  0  0
    0.0444    0.8821    3.5651 C   0  0  0  0  0  0  0  0  0  0  0  0
    0.5769    0.2288    4.2646 H   0  0  0  0  0  0  0  0  0  0  0  0
   -0.9172    1.1556    4.0098 H   0  0  0  0  0  0  0  0  0  0  0  0
    0.6305    1.7955    3.4197 H   0  0  0  0  0  0  0  0  0  0  0  0
  1  2  1  0  0  0  0
  2  3  1  0  0  0  0
  2  4  1  0  0  0  0
  2  5  1  0  0  0  0
  5  6  2  0  0  0  0
  5  7  1  0  0  0  0
  7  8  1  0  0  0  0
  7  9  1  0  0  0  0
  9 10  1  0  0  0  0
  9 11  1  0  0  0  0
  9 22  1  0  0  0  0
 11 12  1  0  0  0  0
 11 13  1  0  0  0  0
 11 14  1  0  0  0  0
 14 15  1  0  0  0  0
 14 16  1  0  0  0  0
 14 17  1  0  0  0  0
 17 18  1  0  0  0  0
 18 19  1  0  0  0  0
 18 20  1  0  0  0  0
 18 21  1  0  0  0  0
 22 23  2  0  0  0  0
 22 24  1  0  0  0  0
 24 25  1  0  0  0  0
 24 26  1  0  0  0  0
 26 27  1  0  0  0  0
 26 28  1  0  0  0  0
 26 29  1  0  0  0  0
M  END
$$$$

  -OEChem-04042216023D

 29 28  0     1  0  0  0  0  0999 V2000
   -0.5412   -4.8915    1.0927 H   0  0  0  0  0  0  0  0  0  0  0  0
   -0.9781   -4.0187    0.5993 C   0  0  0  0  0  0  0  0  0  0  0  0
   -1.8445   -3.6858    1.1757 H   0  0  0  0  0  0  0  0  0  0  0  0
   -1.3036   -4.3069   -0.4030 H   0  0  0  0  0  0  0  0  0  0  0  0
    0.0458   -2.9032    0.5101 C   0  0  0  0  0  0  0  0  0  0  0  0
    1.1797   -3.0830    0.9168 O   0  0  0  0  0  0  0  0  0  0  0  0
   -0.3149   -1.6889   -0.0367 N   0  0  0  0  0  0  0  0  0  0  0  0
   -1.2904   -1.5783   -0.3015 H   0  0  0  0  0  0  0  0  0  0  0  0
    0.5440   -0.4927   -0.0578 C   0  0  1  0  0  0  0  0  0  0  0  0
    1.4823   -0.7684   -0.5527 H   0  0  0  0  0  0  0  0  0  0  0  0
   -0.0618    0.7126   -0.8378 C   0  0  0  0  0  0  0  0  0  0  0  0
    0.1493    1.6230   -0.2655 H   0  0  0  0  0  0  0  0  0  0  0  0
    0.5039    0.8079   -1.7703 H   0  0  0  0  0  0  0  0  0  0  0  0
   -1.5636    0.7680   -1.2182 C   0  0  0  0  0  0  0  0  0  0  0  0
   -1.8543    1.8187   -1.3210 H   0  0  0  0  0  0  0  0  0  0  0  0
   -1.6702    0.3069   -2.2056 H   0  0  0  0  0  0  0  0  0  0  0  0
   -2.7663   -0.0726   -0.0974 S   0  0  0  0  0  0  0  0  0  0  0  0
   -4.3584    0.3061   -0.9303 C   0  0  0  0  0  0  0  0  0  0  0  0
   -4.5162    1.3881   -0.9725 H   0  0  0  0  0  0  0  0  0  0  0  0
   -5.1882   -0.1467   -0.3793 H   0  0  0  0  0  0  0  0  0  0  0  0
   -4.3584   -0.0899   -1.9503 H   0  0  0  0  0  0  0  0  0  0  0  0
    0.9333   -0.0257    1.3644 C   0  0  0  0  0  0  0  0  0  0  0  0
    2.0228    0.4959    1.5627 O   0  0  0  0  0  0  0  0  0  0  0  0
   -0.0305    0.0347    2.3549 N   0  0  0  0  0  0  0  0  0  0  0  0
   -0.9472   -0.3383    2.1270 H   0  0  0  0  0  0  0  0  0  0  0  0
    0.2175    0.5622    3.6900 C   0  0  0  0  0  0  0  0  0  0  0  0
    0.4700    1.6264    3.6402 H   0  0  0  0  0  0  0  0  0  0  0  0
   -0.6735    0.4458    4.3141 H   0  0  0  0  0  0  0  0  0  0  0  0
    1.0449    0.0254    4.1660 H   0  0  0  0  0  0  0  0  0  0  0  0
  1  2  1  0  0  0  0
  2  3  1  0  0  0  0
  2  4  1  0  0  0  0
  2  5  1  0  0  0  0
  5  6  2  0  0  0  0
  5  7  1  0  0  0  0
  7  8  1  0  0  0  0
  7  9  1  0  0  0  0
  9 10  1  0  0  0  0
  9 11  1  0  0  0  0
  9 22  1  0  0  0  0
 11 12  1  0  0  0  0
 11 13  1  0  0  0  0
 11 14  1  0  0  0  0
 14 15  1  0  0  0  0
 14 16  1  0  0  0  0
 14 17  1  0  0  0  0
 17 18  1  0  0  0  0
 18 19  1  0  0  0  0
 18 20  1  0  0  0  0
 18 21  1  0  0  0  0
 22 23  2  0  0  0  0
 22 24  1  0  0  0  0
 24 25  1  0  0  0  0
 24 26  1  0  0  0  0
 26 27  1  0  0  0  0
 26 28  1  0  0  0  0
 26 29  1  0  0  0  0
M  END
$$$$

  -OEChem-04042216023D

 29 28  0     1  0  0  0  0  0999 V2000
   -1.0774   -4.9532   -0.2302 H   0  0  0  0  0  0  0  0  0  0  0  0
   -1.4699   -3.9641   -0.4826 C   0  0  0  0  0  0  0  0  0  0  0  0
   -2.2961   -3.7306    0.1929 H   0  0  0  0  0  0  0  0  0  0  0  0
   -1.8414   -3.9846   -1.5099 H   0  0  0  0  0  0  0  0  0  0  0  0
   -0.3782   -2.9201   -0.3479 C   0  0  0  0  0  0  0  0  0  0  0  0
    0.7513   -3.2552   -0.0389 O   0  0  0  0  0  0  0  0  0  0  0  0
   -0.6735   -1.5907   -0.5692 N   0  0  0  0  0  0  0  0  0  0  0  0
   -1.6527   -1.3600   -0.7219 H   0  0  0  0  0  0  0  0  0  0  0  0
    0.2612   -0.4783   -0.3181 C   0  0  1  0  0  0  0  0  0  0  0  0
    1.1744   -0.6819   -0.8892 H   0  0  0  0  0  0  0  0  0  0  0  0
   -0.2865    0.8952   -0.7983 C   0  0  0  0  0  0  0  0  0  0  0  0
   -0.0417    1.6511   -0.0443 H   0  0  0  0  0  0  0  0  0  0  0  0
    0.2652    1.1730   -1.7022 H   0  0  0  0  0  0  0  0  0  0  0  0
   -1.7907    1.0267   -1.1218 C   0  0  0  0  0  0  0  0  0  0  0  0
   -2.0422    2.0850   -1.2463 H   0  0  0  0  0  0  0  0  0  0  0  0
   -1.9755    0.5361   -2.0830 H   0  0  0  0  0  0  0  0  0  0  0  0
   -2.9226    0.2710    0.1243 S   0  0  0  0  0  0  0  0  0  0  0  0
   -2.8811    1.5381    1.4548 C   0  0  0  0  0  0  0  0  0  0  0  0
   -1.8557    1.7045    1.7973 H   0  0  0  0  0  0  0  0  0  0  0  0
   -3.4853    1.2100    2.3058 H   0  0  0  0  0  0  0  0  0  0  0  0
   -3.2838    2.4864    1.0863 H   0  0  0  0  0  0  0  0  0  0  0  0
    0.7065   -0.3913    1.1601 C   0  0  0  0  0  0  0  0  0  0  0  0
    1.8243    0.0210    1.4403 O   0  0  0  0  0  0  0  0  0  0  0  0
   -0.2302   -0.5174    2.1700 N   0  0  0  0  0  0  0  0  0  0  0  0
   -1.1571   -0.8297    1.8953 H   0  0  0  0  0  0  0  0  0  0  0  0
    0.0890   -0.3815    3.5849 C   0  0  0  0  0  0  0  0  0  0  0  0
    0.4550    0.6280    3.7994 H   0  0  0  0  0  0  0  0  0  0  0  0
   -0.8025   -0.5630    4.1928 H   0  0  0  0  0  0  0  0  0  0  0  0
    0.8588   -1.1049    3.8739 H   0  0  0  0  0  0  0  0  0  0  0  0
  1  2  1  0  0  0  0
  2  3  1  0  0  0  0
  2  4  1  0  0  0  0
  2  5  1  0  0  0  0
  5  6  2  0  0  0  0
  5  7  1  0  0  0  0
  7  8  1  0  0  0  0
  7  9  1  0  0  0  0
  9 10  1  0  0  0  0
  9 11  1  0  0  0  0
  9 22  1  0  0  0  0
 11 12  1  0  0  0  0
 11 13  1  0  0  0  0
 11 14  1  0  0  0  0
 14 15  1  0  0  0  0
 14 16  1  0  0  0  0
 14 17  1  0  0  0  0
 17 18  1  0  0  0  0
 18 19  1  0  0  0  0
 18 20  1  0  0  0  0
 18 21  1  0  0  0  0
 22 23  2  0  0  0  0
 22 24  1  0  0  0  0
 24 25  1  0  0  0  0
 24 26  1  0  0  0  0
 26 27  1  0  0  0  0
 26 28  1  0  0  0  0
 26 29  1  0  0  0  0
M  END
$$$$

  -OEChem-04042216023D

 29 28  0     1  0  0  0  0  0999 V2000
   -1.5247   -4.7433    1.0289 H   0  0  0  0  0  0  0  0  0  0  0  0
   -1.7949   -3.7370    0.6960 C   0  0  0  0  0  0  0  0  0  0  0  0
   -2.4015   -3.2607    1.4697 H   0  0  0  0  0  0  0  0  0  0  0  0
   -2.3820   -3.8166   -0.2220 H   0  0  0  0  0  0  0  0  0  0  0  0
   -0.5422   -2.9196    0.4436 C   0  0  0  0  0  0  0  0  0  0  0  0
    0.5538   -3.4019    0.6658 O   0  0  0  0  0  0  0  0  0  0  0  0
   -0.6519   -1.6318   -0.0407 N   0  0  0  0  0  0  0  0  0  0  0  0
   -1.5913   -1.2448   -0.0690 H   0  0  0  0  0  0  0  0  0  0  0  0
    0.4741   -0.6780   -0.0773 C   0  0  1  0  0  0  0  0  0  0  0  0
    1.2849   -1.1466   -0.6472 H   0  0  0  0  0  0  0  0  0  0  0  0
    0.0978    0.6409   -0.8035 C   0  0  0  0  0  0  0  0  0  0  0  0
    0.5156    1.4929   -0.2557 H   0  0  0  0  0  0  0  0  0  0  0  0
    0.5843    0.6305   -1.7842 H   0  0  0  0  0  0  0  0  0  0  0  0
   -1.4024    0.8959   -1.0317 C   0  0  0  0  0  0  0  0  0  0  0  0
   -1.5205    1.8506   -1.5549 H   0  0  0  0  0  0  0  0  0  0  0  0
   -1.8192    0.1167   -1.6779 H   0  0  0  0  0  0  0  0  0  0  0  0
   -2.3397    0.9650    0.5518 S   0  0  0  0  0  0  0  0  0  0  0  0
   -4.0264    1.3774   -0.0452 C   0  0  0  0  0  0  0  0  0  0  0  0
   -4.3926    0.5991   -0.7214 H   0  0  0  0  0  0  0  0  0  0  0  0
   -4.7152    1.4581    0.8013 H   0  0  0  0  0  0  0  0  0  0  0  0
   -4.0169    2.3324   -0.5796 H   0  0  0  0  0  0  0  0  0  0  0  0
    1.0697   -0.3687    1.3164 C   0  0  0  0  0  0  0  0  0  0  0  0
    2.2709   -0.1675    1.4367 O   0  0  0  0  0  0  0  0  0  0  0  0
    0.2347   -0.1102    2.3888 N   0  0  0  0  0  0  0  0  0  0  0  0
   -0.7628   -0.0938    2.1961 H   0  0  0  0  0  0  0  0  0  0  0  0
    0.7147    0.3569    3.6826 C   0  0  0  0  0  0  0  0  0  0  0  0
    1.1882    1.3392    3.5838 H   0  0  0  0  0  0  0  0  0  0  0  0
   -0.1183    0.4412    4.3868 H   0  0  0  0  0  0  0  0  0  0  0  0
    1.4449   -0.3471    4.0957 H   0  0  0  0  0  0  0  0  0  0  0  0
  1  2  1  0  0  0  0
  2  3  1  0  0  0  0
  2  4  1  0  0  0  0
  2  5  1  0  0  0  0
  5  6  2  0  0  0  0
  5  7  1  0  0  0  0
  7  8  1  0  0  0  0
  7  9  1  0  0  0  0
  9 10  1  0  0  0  0
  9 11  1  0  0  0  0
  9 22  1  0  0  0  0
 11 12  1  0  0  0  0
 11 13  1  0  0  0  0
 11 14  1  0  0  0  0
 14 15  1  0  0  0  0
 14 16  1  0  0  0  0
 14 17  1  0  0  0  0
 17 18  1  0  0  0  0
 18 19  1  0  0  0  0
 18 20  1  0  0  0  0
 18 21  1  0  0  0  0
 22 23  2  0  0  0  0
 22 24  1  0  0  0  0
 24 25  1  0  0  0  0
 24 26  1  0  0  0  0
 26 27  1  0  0  0  0
 26 28  1  0  0  0  0
 26 29  1  0  0  0  0
M  END
$$$$

  -OEChem-04042216023D

 29 28  0     1  0  0  0  0  0999 V2000
   -1.1661   -4.7064    1.3885 H   0  0  0  0  0  0  0  0  0  0  0  0
   -1.4682   -3.7823    0.8874 C   0  0  0  0  0  0  0  0  0  0  0  0
   -2.2486   -3.3001    1.4809 H   0  0  0  0  0  0  0  0  0  0  0  0
   -1.8684   -4.0316   -0.0983 H   0  0  0  0  0  0  0  0  0  0  0  0
   -0.2766   -2.8546    0.7443 C   0  0  0  0  0  0  0  0  0  0  0  0
    0.8163   -3.2018    1.1538 O   0  0  0  0  0  0  0  0  0  0  0  0
   -0.4386   -1.6210    0.1461 N   0  0  0  0  0  0  0  0  0  0  0  0
   -1.3957   -1.3429   -0.0470 H   0  0  0  0  0  0  0  0  0  0  0  0
    0.5854   -0.5582    0.1892 C   0  0  1  0  0  0  0  0  0  0  0  0
    1.5117   -0.9744   -0.2238 H   0  0  0  0  0  0  0  0  0  0  0  0
    0.1994    0.6689   -0.6781 C   0  0  0  0  0  0  0  0  0  0  0  0
    0.4657    1.5974   -0.1601 H   0  0  0  0  0  0  0  0  0  0  0  0
    0.8129    0.6300   -1.5839 H   0  0  0  0  0  0  0  0  0  0  0  0
   -1.2697    0.7458   -1.1245 C   0  0  0  0  0  0  0  0  0  0  0  0
   -1.3514    1.5119   -1.9027 H   0  0  0  0  0  0  0  0  0  0  0  0
   -1.6080   -0.1943   -1.5699 H   0  0  0  0  0  0  0  0  0  0  0  0
   -2.3404    1.2443    0.2829 S   0  0  0  0  0  0  0  0  0  0  0  0
   -3.9658    1.4457   -0.5473 C   0  0  0  0  0  0  0  0  0  0  0  0
   -3.9025    2.2132   -1.3247 H   0  0  0  0  0  0  0  0  0  0  0  0
   -4.2787    0.5036   -1.0071 H   0  0  0  0  0  0  0  0  0  0  0  0
   -4.7242    1.7488    0.1809 H   0  0  0  0  0  0  0  0  0  0  0  0
    0.9376   -0.0976    1.6231 C   0  0  0  0  0  0  0  0  0  0  0  0
    2.0844    0.2321    1.8952 O   0  0  0  0  0  0  0  0  0  0  0  0
   -0.0674    0.1411    2.5437 N   0  0  0  0  0  0  0  0  0  0  0  0
   -1.0217    0.0649    2.2043 H   0  0  0  0  0  0  0  0  0  0  0  0
    0.1714    0.7594    3.8413 C   0  0  0  0  0  0  0  0  0  0  0  0
    0.5418    1.7823    3.7160 H   0  0  0  0  0  0  0  0  0  0  0  0
   -0.7565    0.7935    4.4201 H   0  0  0  0  0  0  0  0  0  0  0  0
    0.9101    0.1841    4.4096 H   0  0  0  0  0  0  0  0  0  0  0  0
  1  2  1  0  0  0  0
  2  3  1  0  0  0  0
  2  4  1  0  0  0  0
  2  5  1  0  0  0  0
  5  6  2  0  0  0  0
  5  7  1  0  0  0  0
  7  8  1  0  0  0  0
  7  9  1  0  0  0  0
  9 10  1  0  0  0  0
  9 11  1  0  0  0  0
  9 22  1  0  0  0  0
 11 12  1  0  0  0  0
 11 13  1  0  0  0  0
 11 14  1  0  0  0  0
 14 15  1  0  0  0  0
 14 16  1  0  0  0  0
 14 17  1  0  0  0  0
 17 18  1  0  0  0  0
 18 19  1  0  0  0  0
 18 20  1  0  0  0  0
 18 21  1  0  0  0  0
 22 23  2  0  0  0  0
 22 24  1  0  0  0  0
 24 25  1  0  0  0  0
 24 26  1  0  0  0  0
 26 27  1  0  0  0  0
 26 28  1  0  0  0  0
 26 29  1  0  0  0  0
M  END
$$$$

  -OEChem-04042216023D

 29 28  0     1  0  0  0  0  0999 V2000
   -2.2512   -4.7956    0.3391 H   0  0  0  0  0  0  0  0  0  0  0  0
   -2.3953   -3.7492    0.0547 C   0  0  0  0  0  0  0  0  0  0  0  0
   -3.1299   -3.3000    0.7272 H   0  0  0  0  0  0  0  0  0  0  0  0
   -2.7756   -3.7129   -0.9690 H   0  0  0  0  0  0  0  0  0  0  0  0
   -1.0801   -2.9996    0.1471 C   0  0  0  0  0  0  0  0  0  0  0  0
   -0.0763   -3.5774    0.5226 O   0  0  0  0  0  0  0  0  0  0  0  0
   -1.0260   -1.6647   -0.2022 N   0  0  0  0  0  0  0  0  0  0  0  0
   -1.9139   -1.2172   -0.4038 H   0  0  0  0  0  0  0  0  0  0  0  0
    0.1541   -0.8073    0.0300 C   0  0  1  0  0  0  0  0  0  0  0  0
    1.0106   -1.2803   -0.4646 H   0  0  0  0  0  0  0  0  0  0  0  0
    0.0057    0.6227   -0.5541 C   0  0  0  0  0  0  0  0  0  0  0  0
    0.4564    1.3578    0.1195 H   0  0  0  0  0  0  0  0  0  0  0  0
    0.6069    0.6432   -1.4687 H   0  0  0  0  0  0  0  0  0  0  0  0
   -1.4141    1.0676   -0.9534 C   0  0  0  0  0  0  0  0  0  0  0  0
   -1.3265    1.8132   -1.7506 H   0  0  0  0  0  0  0  0  0  0  0  0
   -2.0120    0.2530   -1.3671 H   0  0  0  0  0  0  0  0  0  0  0  0
   -2.2765    1.8683    0.4597 S   0  0  0  0  0  0  0  0  0  0  0  0
   -1.3820    3.4607    0.6719 C   0  0  0  0  0  0  0  0  0  0  0  0
   -1.3560    4.0110   -0.2733 H   0  0  0  0  0  0  0  0  0  0  0  0
   -1.8892    4.0766    1.4207 H   0  0  0  0  0  0  0  0  0  0  0  0
   -0.3557    3.2871    1.0075 H   0  0  0  0  0  0  0  0  0  0  0  0
    0.5368   -0.6976    1.5246 C   0  0  0  0  0  0  0  0  0  0  0  0
    1.7121   -0.5876    1.8482 O   0  0  0  0  0  0  0  0  0  0  0  0
   -0.4442   -0.4840    2.4770 N   0  0  0  0  0  0  0  0  0  0  0  0
   -1.4001   -0.4083    2.1442 H   0  0  0  0  0  0  0  0  0  0  0  0
   -0.1543   -0.1896    3.8741 C   0  0  0  0  0  0  0  0  0  0  0  0
    0.3612    0.7721    3.9639 H   0  0  0  0  0  0  0  0  0  0  0  0
   -1.0826   -0.1419    4.4513 H   0  0  0  0  0  0  0  0  0  0  0  0
    0.4793   -0.9716    4.3061 H   0  0  0  0  0  0  0  0  0  0  0  0
  1  2  1  0  0  0  0
  2  3  1  0  0  0  0
  2  4  1  0  0  0  0
  2  5  1  0  0  0  0
  5  6  2  0  0  0  0
  5  7  1  0  0  0  0
  7  8  1  0  0  0  0
  7  9  1  0  0  0  0
  9 10  1  0  0  0  0
  9 11  1  0  0  0  0
  9 22  1  0  0  0  0
 11 12  1  0  0  0  0
 11 13  1  0  0  0  0
 11 14  1  0  0  0  0
 14 15  1  0  0  0  0
 14 16  1  0  0  0  0
 14 17  1  0  0  0  0
 17 18  1  0  0  0  0
 18 19  1  0  0  0  0
 18 20  1  0  0  0  0
 18 21  1  0  0  0  0
 22 23  2  0  0  0  0
 22 24  1  0  0  0  0
 24 25  1  0  0  0  0
 24 26  1  0  0  0  0
 26 27  1  0  0  0  0
 26 28  1  0  0  0  0
 26 29  1  0  0  0  0
M  END
$$$$

  -OEChem-04042216023D

 29 28  0     1  0  0  0  0  0999 V2000
   -2.4385   -4.3891    0.5928 H   0  0  0  0  0  0  0  0  0  0  0  0
   -2.5194   -3.3875    0.1605 C   0  0  0  0  0  0  0  0  0  0  0  0
   -3.3478   -2.8630    0.6425 H   0  0  0  0  0  0  0  0  0  0  0  0
   -2.7282   -3.4833   -0.9078 H   0  0  0  0  0  0  0  0  0  0  0  0
   -1.2258   -2.6232    0.3702 C   0  0  0  0  0  0  0  0  0  0  0  0
   -0.2947   -3.1528    0.9481 O   0  0  0  0  0  0  0  0  0  0  0  0
   -1.1130   -1.3242   -0.0855 N   0  0  0  0  0  0  0  0  0  0  0  0
   -1.9109   -0.9476   -0.5855 H   0  0  0  0  0  0  0  0  0  0  0  0
    0.1277   -0.5239   -0.0243 C   0  0  1  0  0  0  0  0  0  0  0  0
    0.8933   -1.1582   -0.4873 H   0  0  0  0  0  0  0  0  0  0  0  0
    0.1153    0.7711   -0.8902 C   0  0  0  0  0  0  0  0  0  0  0  0
    0.6145    1.5786   -0.3436 H   0  0  0  0  0  0  0  0  0  0  0  0
    0.7450    0.5655   -1.7622 H   0  0  0  0  0  0  0  0  0  0  0  0
   -1.2327    1.2997   -1.4346 C   0  0  0  0  0  0  0  0  0  0  0  0
   -1.0775    1.5907   -2.4789 H   0  0  0  0  0  0  0  0  0  0  0  0
   -2.0012    0.5268   -1.4462 H   0  0  0  0  0  0  0  0  0  0  0  0
   -1.8884    2.7849   -0.5637 S   0  0  0  0  0  0  0  0  0  0  0  0
   -1.8159    2.4513    1.2351 C   0  0  0  0  0  0  0  0  0  0  0  0
   -0.7761    2.4421    1.5731 H   0  0  0  0  0  0  0  0  0  0  0  0
   -2.3462    3.2374    1.7807 H   0  0  0  0  0  0  0  0  0  0  0  0
   -2.2847    1.4907    1.4638 H   0  0  0  0  0  0  0  0  0  0  0  0
    0.6830   -0.2994    1.4025 C   0  0  0  0  0  0  0  0  0  0  0  0
    1.8904   -0.1742    1.5591 O   0  0  0  0  0  0  0  0  0  0  0  0
   -0.1563    0.0543    2.4424 N   0  0  0  0  0  0  0  0  0  0  0  0
   -1.1377   -0.1659    2.3122 H   0  0  0  0  0  0  0  0  0  0  0  0
    0.3287    0.3137    3.7924 C   0  0  0  0  0  0  0  0  0  0  0  0
    1.0333    1.1523    3.7923 H   0  0  0  0  0  0  0  0  0  0  0  0
   -0.5061    0.5668    4.4528 H   0  0  0  0  0  0  0  0  0  0  0  0
    0.8344   -0.5710    4.1937 H   0  0  0  0  0  0  0  0  0  0  0  0
  1  2  1  0  0  0  0
  2  3  1  0  0  0  0
  2  4  1  0  0  0  0
  2  5  1  0  0  0  0
  5  6  2  0  0  0  0
  5  7  1  0  0  0  0
  7  8  1  0  0  0  0
  7  9  1  0  0  0  0
  9 10  1  0  0  0  0
  9 11  1  0  0  0  0
  9 22  1  0  0  0  0
 11 12  1  0  0  0  0
 11 13  1  0  0  0  0
 11 14  1  0  0  0  0
 14 15  1  0  0  0  0
 14 16  1  0  0  0  0
 14 17  1  0  0  0  0
 17 18  1  0  0  0  0
 18 19  1  0  0  0  0
 18 20  1  0  0  0  0
 18 21  1  0  0  0  0
 22 23  2  0  0  0  0
 22 24  1  0  0  0  0
 24 25  1  0  0  0  0
 24 26  1  0  0  0  0
 26 27  1  0  0  0  0
 26 28  1  0  0  0  0
 26 29  1  0  0  0  0
M  END
$$$$

  -OEChem-04042216023D

 29 28  0     1  0  0  0  0  0999 V2000
   -2.4893   -4.3320    0.6432 H   0  0  0  0  0  0  0  0  0  0  0  0
   -2.5379   -3.3506    0.1624 C   0  0  0  0  0  0  0  0  0  0  0  0
   -3.3945   -2.8049    0.5648 H   0  0  0  0  0  0  0  0  0  0  0  0
   -2.6757   -3.4933   -0.9121 H   0  0  0  0  0  0  0  0  0  0  0  0
   -1.2591   -2.5778    0.4247 C   0  0  0  0  0  0  0  0  0  0  0  0
   -0.3795   -3.0747    1.1031 O   0  0  0  0  0  0  0  0  0  0  0  0
   -1.1057   -1.3096   -0.1018 N   0  0  0  0  0  0  0  0  0  0  0  0
   -1.8226   -1.0138   -0.7556 H   0  0  0  0  0  0  0  0  0  0  0  0
    0.1593   -0.5442   -0.0659 C   0  0  1  0  0  0  0  0  0  0  0  0
    0.9247   -1.1843   -0.5204 H   0  0  0  0  0  0  0  0  0  0  0  0
    0.1343    0.7721   -0.8984 C   0  0  0  0  0  0  0  0  0  0  0  0
    0.6772    1.5536   -0.3560 H   0  0  0  0  0  0  0  0  0  0  0  0
    0.7192    0.5834   -1.8045 H   0  0  0  0  0  0  0  0  0  0  0  0
   -1.2315    1.3328   -1.3607 C   0  0  0  0  0  0  0  0  0  0  0  0
   -1.2425    1.3753   -2.4547 H   0  0  0  0  0  0  0  0  0  0  0  0
   -2.0671    0.7025   -1.0557 H   0  0  0  0  0  0  0  0  0  0  0  0
   -1.5526    3.0250   -0.7097 S   0  0  0  0  0  0  0  0  0  0  0  0
   -1.4736    2.8776    1.1178 C   0  0  0  0  0  0  0  0  0  0  0  0
   -0.4467    2.6835    1.4402 H   0  0  0  0  0  0  0  0  0  0  0  0
   -1.8081    3.8101    1.5816 H   0  0  0  0  0  0  0  0  0  0  0  0
   -2.1186    2.0654    1.4632 H   0  0  0  0  0  0  0  0  0  0  0  0
    0.6764   -0.2744    1.3675 C   0  0  0  0  0  0  0  0  0  0  0  0
    1.8807   -0.1846    1.5664 O   0  0  0  0  0  0  0  0  0  0  0  0
   -0.1958    0.1516    2.3524 N   0  0  0  0  0  0  0  0  0  0  0  0
   -1.1760   -0.0511    2.1867 H   0  0  0  0  0  0  0  0  0  0  0  0
    0.2368    0.4407    3.7138 C   0  0  0  0  0  0  0  0  0  0  0  0
    0.9858    1.2397    3.7175 H   0  0  0  0  0  0  0  0  0  0  0  0
   -0.6139    0.7655    4.3201 H   0  0  0  0  0  0  0  0  0  0  0  0
    0.6724   -0.4525    4.1741 H   0  0  0  0  0  0  0  0  0  0  0  0
  1  2  1  0  0  0  0
  2  3  1  0  0  0  0
  2  4  1  0  0  0  0
  2  5  1  0  0  0  0
  5  6  2  0  0  0  0
  5  7  1  0  0  0  0
  7  8  1  0  0  0  0
  7  9  1  0  0  0  0
  9 10  1  0  0  0  0
  9 11  1  0  0  0  0
  9 22  1  0  0  0  0
 11 12  1  0  0  0  0
 11 13  1  0  0  0  0
 11 14  1  0  0  0  0
 14 15  1  0  0  0  0
 14 16  1  0  0  0  0
 14 17  1  0  0  0  0
 17 18  1  0  0  0  0
 18 19  1  0  0  0  0
 18 20  1  0  0  0  0
 18 21  1  0  0  0  0
 22 23  2  0  0  0  0
 22 24  1  0  0  0  0
 24 25  1  0  0  0  0
 24 26  1  0  0  0  0
 26 27  1  0  0  0  0
 26 28  1  0  0  0  0
 26 29  1  0  0  0  0
M  END
$$$$

  -OEChem-04042216023D

 29 28  0     1  0  0  0  0  0999 V2000
   -2.5372   -4.2665    0.6811 H   0  0  0  0  0  0  0  0  0  0  0  0
   -2.5635   -3.2952    0.1788 C   0  0  0  0  0  0  0  0  0  0  0  0
   -3.4157   -2.7265    0.5586 H   0  0  0  0  0  0  0  0  0  0  0  0
   -2.6910   -3.4587   -0.8939 H   0  0  0  0  0  0  0  0  0  0  0  0
   -1.2745   -2.5389    0.4404 C   0  0  0  0  0  0  0  0  0  0  0  0
   -0.4207   -3.0278    1.1564 O   0  0  0  0  0  0  0  0  0  0  0  0
   -1.0826   -1.2949   -0.1300 N   0  0  0  0  0  0  0  0  0  0  0  0
   -1.7703   -1.0185   -0.8235 H   0  0  0  0  0  0  0  0  0  0  0  0
    0.2008   -0.5593   -0.1010 C   0  0  1  0  0  0  0  0  0  0  0  0
    0.9648   -1.2055   -0.5484 H   0  0  0  0  0  0  0  0  0  0  0  0
    0.1700    0.7668   -0.9125 C   0  0  0  0  0  0  0  0  0  0  0  0
    0.7238    1.5351   -0.3631 H   0  0  0  0  0  0  0  0  0  0  0  0
    0.7340    0.6040   -1.8366 H   0  0  0  0  0  0  0  0  0  0  0  0
   -1.2139    1.3210   -1.3148 C   0  0  0  0  0  0  0  0  0  0  0  0
   -1.3991    1.1144   -2.3741 H   0  0  0  0  0  0  0  0  0  0  0  0
   -2.0208    0.8654   -0.7374 H   0  0  0  0  0  0  0  0  0  0  0  0
   -1.3104    3.1309   -1.0045 S   0  0  0  0  0  0  0  0  0  0  0  0
   -1.2465    3.2563    0.8290 C   0  0  0  0  0  0  0  0  0  0  0  0
   -0.2787    2.9145    1.2073 H   0  0  0  0  0  0  0  0  0  0  0  0
   -1.3881    4.2967    1.1360 H   0  0  0  0  0  0  0  0  0  0  0  0
   -2.0359    2.6482    1.2797 H   0  0  0  0  0  0  0  0  0  0  0  0
    0.6953   -0.2527    1.3332 C   0  0  0  0  0  0  0  0  0  0  0  0
    1.8966   -0.1892    1.5587 O   0  0  0  0  0  0  0  0  0  0  0  0
   -0.1910    0.2295    2.2801 N   0  0  0  0  0  0  0  0  0  0  0  0
   -1.1727    0.0553    2.0932 H   0  0  0  0  0  0  0  0  0  0  0  0
    0.2153    0.5485    3.6430 C   0  0  0  0  0  0  0  0  0  0  0  0
    0.9891    1.3235    3.6420 H   0  0  0  0  0  0  0  0  0  0  0  0
   -0.6398    0.9182    4.2167 H   0  0  0  0  0  0  0  0  0  0  0  0
    0.6105   -0.3429    4.1416 H   0  0  0  0  0  0  0  0  0  0  0  0
  1  2  1  0  0  0  0
  2  3  1  0  0  0  0
  2  4  1  0  0  0  0
  2  5  1  0  0  0  0
  5  6  2  0  0  0  0
  5  7  1  0  0  0  0
  7  8  1  0  0  0  0
  7  9  1  0  0  0  0
  9 10  1  0  0  0  0
  9 11  1  0  0  0  0
  9 22  1  0  0  0  0
 11 12  1  0  0  0  0
 11 13  1  0  0  0  0
 11 14  1  0  0  0  0
 14 15  1  0  0  0  0
 14 16  1  0  0  0  0
 14 17  1  0  0  0  0
 17 18  1  0  0  0  0
 18 19  1  0  0  0  0
 18 20  1  0  0  0  0
 18 21  1  0  0  0  0
 22 23  2  0  0  0  0
 22 24  1  0  0  0  0
 24 25  1  0  0  0  0
 24 26  1  0  0  0  0
 26 27  1  0  0  0  0
 26 28  1  0  0  0  0
 26 29  1  0  0  0  0
M  END
$$$$

  -OEChem-04042216023D

 29 28  0     1  0  0  0  0  0999 V2000
   -2.5754   -4.2247    0.6804 H   0  0  0  0  0  0  0  0  0  0  0  0
   -2.5876   -3.2515    0.1810 C   0  0  0  0  0  0  0  0  0  0  0  0
   -3.4335   -2.6728    0.5593 H   0  0  0  0  0  0  0  0  0  0  0  0
   -2.7130   -3.4108   -0.8926 H   0  0  0  0  0  0  0  0  0  0  0  0
   -1.2903   -2.5120    0.4490 C   0  0  0  0  0  0  0  0  0  0  0  0
   -0.4509   -3.0068    1.1779 O   0  0  0  0  0  0  0  0  0  0  0  0
   -1.0736   -1.2779   -0.1335 N   0  0  0  0  0  0  0  0  0  0  0  0
   -1.7564   -0.9922   -0.8280 H   0  0  0  0  0  0  0  0  0  0  0  0
    0.2234   -0.5657   -0.1074 C   0  0  1  0  0  0  0  0  0  0  0  0
    0.9789   -1.2225   -0.5538 H   0  0  0  0  0  0  0  0  0  0  0  0
    0.1965    0.7557   -0.9225 C   0  0  0  0  0  0  0  0  0  0  0  0
    0.7452    1.5260   -0.3709 H   0  0  0  0  0  0  0  0  0  0  0  0
    0.7528    0.5989   -1.8523 H   0  0  0  0  0  0  0  0  0  0  0  0
   -1.1978    1.2905   -1.2982 C   0  0  0  0  0  0  0  0  0  0  0  0
   -1.5218    0.8529   -2.2479 H   0  0  0  0  0  0  0  0  0  0  0  0
   -1.9345    1.0348   -0.5316 H   0  0  0  0  0  0  0  0  0  0  0  0
   -1.1735    3.1234   -1.4214 S   0  0  0  0  0  0  0  0  0  0  0  0
   -1.0733    3.6489    0.3381 C   0  0  0  0  0  0  0  0  0  0  0  0
   -0.1487    3.2892    0.7986 H   0  0  0  0  0  0  0  0  0  0  0  0
   -1.0894    4.7409    0.4024 H   0  0  0  0  0  0  0  0  0  0  0  0
   -1.9231    3.2534    0.9019 H   0  0  0  0  0  0  0  0  0  0  0  0
    0.7215   -0.2519    1.3239 C   0  0  0  0  0  0  0  0  0  0  0  0
    1.9231   -0.2116    1.5526 O   0  0  0  0  0  0  0  0  0  0  0  0
   -0.1585    0.2578    2.2622 N   0  0  0  0  0  0  0  0  0  0  0  0
   -1.1428    0.1009    2.0734 H   0  0  0  0  0  0  0  0  0  0  0  0
    0.2486    0.5795    3.6241 C   0  0  0  0  0  0  0  0  0  0  0  0
    1.0357    1.3409    3.6201 H   0  0  0  0  0  0  0  0  0  0  0  0
   -0.6020    0.9678    4.1920 H   0  0  0  0  0  0  0  0  0  0  0  0
    0.6266   -0.3150    4.1305 H   0  0  0  0  0  0  0  0  0  0  0  0
  1  2  1  0  0  0  0
  2  3  1  0  0  0  0
  2  4  1  0  0  0  0
  2  5  1  0  0  0  0
  5  6  2  0  0  0  0
  5  7  1  0  0  0  0
  7  8  1  0  0  0  0
  7  9  1  0  0  0  0
  9 10  1  0  0  0  0
  9 11  1  0  0  0  0
  9 22  1  0  0  0  0
 11 12  1  0  0  0  0
 11 13  1  0  0  0  0
 11 14  1  0  0  0  0
 14 15  1  0  0  0  0
 14 16  1  0  0  0  0
 14 17  1  0  0  0  0
 17 18  1  0  0  0  0
 18 19  1  0  0  0  0
 18 20  1  0  0  0  0
 18 21  1  0  0  0  0
 22 23  2  0  0  0  0
 22 24  1  0  0  0  0
 24 25  1  0  0  0  0
 24 26  1  0  0  0  0
 26 27  1  0  0  0  0
 26 28  1  0  0  0  0
 26 29  1  0  0  0  0
M  END
$$$$

  -OEChem-04042216023D

 29 28  0     1  0  0  0  0  0999 V2000
   -2.5886   -4.2112    0.6807 H   0  0  0  0  0  0  0  0  0  0  0  0
   -2.5985   -3.2349    0.1873 C   0  0  0  0  0  0  0  0  0  0  0  0
   -3.4377   -2.6532    0.5759 H   0  0  0  0  0  0  0  0  0  0  0  0
   -2.7334   -3.3870   -0.8863 H   0  0  0  0  0  0  0  0  0  0  0  0
   -1.2945   -2.5048    0.4488 C   0  0  0  0  0  0  0  0  0  0  0  0
   -0.4528   -3.0069    1.1702 O   0  0  0  0  0  0  0  0  0  0  0  0
   -1.0746   -1.2696   -0.1299 N   0  0  0  0  0  0  0  0  0  0  0  0
   -1.7638   -0.9722   -0.8128 H   0  0  0  0  0  0  0  0  0  0  0  0
    0.2239   -0.5601   -0.1023 C   0  0  1  0  0  0  0  0  0  0  0  0
    0.9770   -1.2189   -0.5493 H   0  0  0  0  0  0  0  0  0  0  0  0
    0.1963    0.7562   -0.9236 C   0  0  0  0  0  0  0  0  0  0  0  0
    0.7335    1.5352   -0.3734 H   0  0  0  0  0  0  0  0  0  0  0  0
    0.7517    0.5968   -1.8535 H   0  0  0  0  0  0  0  0  0  0  0  0
   -1.2036    1.2692   -1.2943 C   0  0  0  0  0  0  0  0  0  0  0  0
   -1.6283    0.6490   -2.0900 H   0  0  0  0  0  0  0  0  0  0  0  0
   -1.8679    1.2218   -0.4257 H   0  0  0  0  0  0  0  0  0  0  0  0
   -1.1227    3.0155   -1.8587 S   0  0  0  0  0  0  0  0  0  0  0  0
   -0.8567    3.9496   -0.2977 C   0  0  0  0  0  0  0  0  0  0  0  0
    0.0980    3.6763    0.1604 H   0  0  0  0  0  0  0  0  0  0  0  0
   -0.8456    5.0239   -0.5041 H   0  0  0  0  0  0  0  0  0  0  0  0
   -1.6612    3.7387    0.4127 H   0  0  0  0  0  0  0  0  0  0  0  0
    0.7261   -0.2499    1.3282 C   0  0  0  0  0  0  0  0  0  0  0  0
    1.9285   -0.2097    1.5528 O   0  0  0  0  0  0  0  0  0  0  0  0
   -0.1503    0.2598    2.2698 N   0  0  0  0  0  0  0  0  0  0  0  0
   -1.1349    0.0999    2.0855 H   0  0  0  0  0  0  0  0  0  0  0  0
    0.2607    0.5766    3.6319 C   0  0  0  0  0  0  0  0  0  0  0  0
    1.0525    1.3332    3.6286 H   0  0  0  0  0  0  0  0  0  0  0  0
   -0.5870    0.9693    4.2013 H   0  0  0  0  0  0  0  0  0  0  0  0
    0.6336   -0.3210    4.1365 H   0  0  0  0  0  0  0  0  0  0  0  0
  1  2  1  0  0  0  0
  2  3  1  0  0  0  0
  2  4  1  0  0  0  0
  2  5  1  0  0  0  0
  5  6  2  0  0  0  0
  5  7  1  0  0  0  0
  7  8  1  0  0  0  0
  7  9  1  0  0  0  0
  9 10  1  0  0  0  0
  9 11  1  0  0  0  0
  9 22  1  0  0  0  0
 11 12  1  0  0  0  0
 11 13  1  0  0  0  0
 11 14  1  0  0  0  0
 14 15  1  0  0  0  0
 14 16  1  0  0  0  0
 14 17  1  0  0  0  0
 17 18  1  0  0  0  0
 18 19  1  0  0  0  0
 18 20  1  0  0  0  0
 18 21  1  0  0  0  0
 22 23  2  0  0  0  0
 22 24  1  0  0  0  0
 24 25  1  0  0  0  0
 24 26  1  0  0  0  0
 26 27  1  0  0  0  0
 26 28  1  0  0  0  0
 26 29  1  0  0  0  0
M  END
$$$$

  -OEChem-04042216023D

 29 28  0     1  0  0  0  0  0999 V2000
   -2.5942   -4.1996    0.6802 H   0  0  0  0  0  0  0  0  0  0  0  0
   -2.5987   -3.2299    0.1740 C   0  0  0  0  0  0  0  0  0  0  0  0
   -3.4447   -2.6449    0.5426 H   0  0  0  0  0  0  0  0  0  0  0  0
   -2.7178   -3.3955   -0.8995 H   0  0  0  0  0  0  0  0  0  0  0  0
   -1.3002   -2.4940    0.4455 C   0  0  0  0  0  0  0  0  0  0  0  0
   -0.4642   -2.9895    1.1780 O   0  0  0  0  0  0  0  0  0  0  0  0
   -1.0807   -1.2591   -0.1333 N   0  0  0  0  0  0  0  0  0  0  0  0
   -1.7585   -0.9739   -0.8328 H   0  0  0  0  0  0  0  0  0  0  0  0
    0.2163   -0.5493   -0.1027 C   0  0  1  0  0  0  0  0  0  0  0  0
    0.9741   -1.2010   -0.5525 H   0  0  0  0  0  0  0  0  0  0  0  0
    0.1730    0.7681   -0.9150 C   0  0  0  0  0  0  0  0  0  0  0  0
    0.9231    1.4626   -0.5229 H   0  0  0  0  0  0  0  0  0  0  0  0
    0.4637    0.5385   -1.9451 H   0  0  0  0  0  0  0  0  0  0  0  0
   -1.1999    1.4567   -0.9623 C   0  0  0  0  0  0  0  0  0  0  0  0
   -1.9400    0.8009   -1.4288 H   0  0  0  0  0  0  0  0  0  0  0  0
   -1.5391    1.6899    0.0519 H   0  0  0  0  0  0  0  0  0  0  0  0
   -1.1101    3.0008   -1.9529 S   0  0  0  0  0  0  0  0  0  0  0  0
   -0.1714    4.1422   -0.8603 C   0  0  0  0  0  0  0  0  0  0  0  0
    0.8514    3.7833   -0.7150 H   0  0  0  0  0  0  0  0  0  0  0  0
   -0.1276    5.1380   -1.3113 H   0  0  0  0  0  0  0  0  0  0  0  0
   -0.6593    4.2213    0.1157 H   0  0  0  0  0  0  0  0  0  0  0  0
    0.7194   -0.2360    1.3270 C   0  0  0  0  0  0  0  0  0  0  0  0
    1.9227   -0.1869    1.5463 O   0  0  0  0  0  0  0  0  0  0  0  0
   -0.1544    0.2749    2.2704 N   0  0  0  0  0  0  0  0  0  0  0  0
   -1.1386    0.1022    2.0956 H   0  0  0  0  0  0  0  0  0  0  0  0
    0.2639    0.6058    3.6270 C   0  0  0  0  0  0  0  0  0  0  0  0
    1.0523    1.3659    3.6114 H   0  0  0  0  0  0  0  0  0  0  0  0
   -0.5817    1.0002    4.1983 H   0  0  0  0  0  0  0  0  0  0  0  0
    0.6441   -0.2855    4.1376 H   0  0  0  0  0  0  0  0  0  0  0  0
  1  2  1  0  0  0  0
  2  3  1  0  0  0  0
  2  4  1  0  0  0  0
  2  5  1  0  0  0  0
  5  6  2  0  0  0  0
  5  7  1  0  0  0  0
  7  8  1  0  0  0  0
  7  9  1  0  0  0  0
  9 10  1  0  0  0  0
  9 11  1  0  0  0  0
  9 22  1  0  0  0  0
 11 12  1  0  0  0  0
 11 13  1  0  0  0  0
 11 14  1  0  0  0  0
 14 15  1  0  0  0  0
 14 16  1  0  0  0  0
 14 17  1  0  0  0  0
 17 18  1  0  0  0  0
 18 19  1  0  0  0  0
 18 20  1  0  0  0  0
 18 21  1  0  0  0  0
 22 23  2  0  0  0  0
 22 24  1  0  0  0  0
 24 25  1  0  0  0  0
 24 26  1  0  0  0  0
 26 27  1  0  0  0  0
 26 28  1  0  0  0  0
 26 29  1  0  0  0  0
M  END
$$$$

  -OEChem-04042216023D

 29 28  0     1  0  0  0  0  0999 V2000
   -2.5376   -4.2264    0.7298 H   0  0  0  0  0  0  0  0  0  0  0  0
   -2.5528   -3.2786    0.1838 C   0  0  0  0  0  0  0  0  0  0  0  0
   -3.4189   -2.6989    0.5120 H   0  0  0  0  0  0  0  0  0  0  0  0
   -2.6466   -3.4908   -0.8839 H   0  0  0  0  0  0  0  0  0  0  0  0
   -1.2763   -2.5031    0.4494 C   0  0  0  0  0  0  0  0  0  0  0  0
   -0.4191   -2.9780    1.1711 O   0  0  0  0  0  0  0  0  0  0  0  0
   -1.1007   -1.2579   -0.1228 N   0  0  0  0  0  0  0  0  0  0  0  0
   -1.7849   -1.0012   -0.8275 H   0  0  0  0  0  0  0  0  0  0  0  0
    0.1791   -0.5172   -0.1098 C   0  0  1  0  0  0  0  0  0  0  0  0
    0.9438   -1.1447   -0.5817 H   0  0  0  0  0  0  0  0  0  0  0  0
    0.0991    0.8168   -0.8942 C   0  0  0  0  0  0  0  0  0  0  0  0
    0.8537    1.5156   -0.5177 H   0  0  0  0  0  0  0  0  0  0  0  0
    0.3664    0.5933   -1.9321 H   0  0  0  0  0  0  0  0  0  0  0  0
   -1.2770    1.5049   -0.9157 C   0  0  0  0  0  0  0  0  0  0  0  0
   -2.0734    0.7935   -1.1438 H   0  0  0  0  0  0  0  0  0  0  0  0
   -1.4879    1.9462    0.0638 H   0  0  0  0  0  0  0  0  0  0  0  0
   -1.3235    2.7995   -2.2185 S   0  0  0  0  0  0  0  0  0  0  0  0
   -0.1001    4.0337   -1.6208 C   0  0  0  0  0  0  0  0  0  0  0  0
    0.9082    3.6100   -1.6271 H   0  0  0  0  0  0  0  0  0  0  0  0
   -0.1098    4.9138   -2.2705 H   0  0  0  0  0  0  0  0  0  0  0  0
   -0.3445    4.3484   -0.6018 H   0  0  0  0  0  0  0  0  0  0  0  0
    0.6967   -0.2074    1.3150 C   0  0  0  0  0  0  0  0  0  0  0  0
    1.9017   -0.1336    1.5176 O   0  0  0  0  0  0  0  0  0  0  0  0
   -0.1758    0.2718    2.2758 N   0  0  0  0  0  0  0  0  0  0  0  0
   -1.1590    0.0850    2.1092 H   0  0  0  0  0  0  0  0  0  0  0  0
    0.2519    0.6006    3.6297 C   0  0  0  0  0  0  0  0  0  0  0  0
    1.0103    1.3903    3.6113 H   0  0  0  0  0  0  0  0  0  0  0  0
   -0.5986    0.9547    4.2197 H   0  0  0  0  0  0  0  0  0  0  0  0
    0.6744   -0.2817    4.1222 H   0  0  0  0  0  0  0  0  0  0  0  0
  1  2  1  0  0  0  0
  2  3  1  0  0  0  0
  2  4  1  0  0  0  0
  2  5  1  0  0  0  0
  5  6  2  0  0  0  0
  5  7  1  0  0  0  0
  7  8  1  0  0  0  0
  7  9  1  0  0  0  0
  9 10  1  0  0  0  0
  9 11  1  0  0  0  0
  9 22  1  0  0  0  0
 11 12  1  0  0  0  0
 11 13  1  0  0  0  0
 11 14  1  0  0  0  0
 14 15  1  0  0  0  0
 14 16  1  0  0  0  0
 14 17  1  0  0  0  0
 17 18  1  0  0  0  0
 18 19  1  0  0  0  0
 18 20  1  0  0  0  0
 18 21  1  0  0  0  0
 22 23  2  0  0  0  0
 22 24  1  0  0  0  0
 24 25  1  0  0  0  0
 24 26  1  0  0  0  0
 26 27  1  0  0  0  0
 26 28  1  0  0  0  0
 26 29  1  0  0  0  0
M  END
$$$$

  -OEChem-04042216023D

 29 28  0     1  0  0  0  0  0999 V2000
   -2.5096   -4.2503    0.7119 H   0  0  0  0  0  0  0  0  0  0  0  0
   -2.5423   -3.2934    0.1828 C   0  0  0  0  0  0  0  0  0  0  0  0
   -3.4146   -2.7320    0.5258 H   0  0  0  0  0  0  0  0  0  0  0  0
   -2.6394   -3.4882   -0.8879 H   0  0  0  0  0  0  0  0  0  0  0  0
   -1.2756   -2.5036    0.4539 C   0  0  0  0  0  0  0  0  0  0  0  0
   -0.4123   -2.9717    1.1729 O   0  0  0  0  0  0  0  0  0  0  0  0
   -1.1154   -1.2539   -0.1128 N   0  0  0  0  0  0  0  0  0  0  0  0
   -1.8040   -1.0028   -0.8158 H   0  0  0  0  0  0  0  0  0  0  0  0
    0.1584   -0.5037   -0.1111 C   0  0  1  0  0  0  0  0  0  0  0  0
    0.9214   -1.1237   -0.5955 H   0  0  0  0  0  0  0  0  0  0  0  0
    0.0639    0.8371   -0.8840 C   0  0  0  0  0  0  0  0  0  0  0  0
    0.8262    1.5368   -0.5235 H   0  0  0  0  0  0  0  0  0  0  0  0
    0.3192    0.6060   -1.9235 H   0  0  0  0  0  0  0  0  0  0  0  0
   -1.3088    1.5394   -0.8976 C   0  0  0  0  0  0  0  0  0  0  0  0
   -2.1358    0.8290   -0.8549 H   0  0  0  0  0  0  0  0  0  0  0  0
   -1.3936    2.1943   -0.0244 H   0  0  0  0  0  0  0  0  0  0  0  0
   -1.5191    2.5090   -2.4445 S   0  0  0  0  0  0  0  0  0  0  0  0
   -0.1834    3.7646   -2.3141 C   0  0  0  0  0  0  0  0  0  0  0  0
    0.7991    3.2841   -2.3389 H   0  0  0  0  0  0  0  0  0  0  0  0
   -0.2473    4.4674   -3.1500 H   0  0  0  0  0  0  0  0  0  0  0  0
   -0.2782    4.3244   -1.3789 H   0  0  0  0  0  0  0  0  0  0  0  0
    0.6929   -0.1968    1.3080 C   0  0  0  0  0  0  0  0  0  0  0  0
    1.9001   -0.1128    1.4925 O   0  0  0  0  0  0  0  0  0  0  0  0
   -0.1682    0.2712    2.2844 N   0  0  0  0  0  0  0  0  0  0  0  0
   -1.1523    0.0756    2.1336 H   0  0  0  0  0  0  0  0  0  0  0  0
    0.2800    0.5972    3.6326 C   0  0  0  0  0  0  0  0  0  0  0  0
    1.0352    1.3899    3.6055 H   0  0  0  0  0  0  0  0  0  0  0  0
   -0.5620    0.9460    4.2379 H   0  0  0  0  0  0  0  0  0  0  0  0
    0.7137   -0.2853    4.1146 H   0  0  0  0  0  0  0  0  0  0  0  0
  1  2  1  0  0  0  0
  2  3  1  0  0  0  0
  2  4  1  0  0  0  0
  2  5  1  0  0  0  0
  5  6  2  0  0  0  0
  5  7  1  0  0  0  0
  7  8  1  0  0  0  0
  7  9  1  0  0  0  0
  9 10  1  0  0  0  0
  9 11  1  0  0  0  0
  9 22  1  0  0  0  0
 11 12  1  0  0  0  0
 11 13  1  0  0  0  0
 11 14  1  0  0  0  0
 14 15  1  0  0  0  0
 14 16  1  0  0  0  0
 14 17  1  0  0  0  0
 17 18  1  0  0  0  0
 18 19  1  0  0  0  0
 18 20  1  0  0  0  0
 18 21  1  0  0  0  0
 22 23  2  0  0  0  0
 22 24  1  0  0  0  0
 24 25  1  0  0  0  0
 24 26  1  0  0  0  0
 26 27  1  0  0  0  0
 26 28  1  0  0  0  0
 26 29  1  0  0  0  0
M  END
$$$$

  -OEChem-04042216023D

 29 28  0     1  0  0  0  0  0999 V2000
   -2.5354   -4.2387    0.7079 H   0  0  0  0  0  0  0  0  0  0  0  0
   -2.5662   -3.2727    0.1957 C   0  0  0  0  0  0  0  0  0  0  0  0
   -3.4270   -2.7079    0.5615 H   0  0  0  0  0  0  0  0  0  0  0  0
   -2.6814   -3.4483   -0.8766 H   0  0  0  0  0  0  0  0  0  0  0  0
   -1.2879   -2.5004    0.4608 C   0  0  0  0  0  0  0  0  0  0  0  0
   -0.4277   -2.9797    1.1761 O   0  0  0  0  0  0  0  0  0  0  0  0
   -1.1131   -1.2540   -0.1080 N   0  0  0  0  0  0  0  0  0  0  0  0
   -1.8029   -0.9900   -0.8061 H   0  0  0  0  0  0  0  0  0  0  0  0
    0.1684   -0.5178   -0.1111 C   0  0  1  0  0  0  0  0  0  0  0  0
    0.9234   -1.1474   -0.5955 H   0  0  0  0  0  0  0  0  0  0  0  0
    0.0818    0.8187   -0.8909 C   0  0  0  0  0  0  0  0  0  0  0  0
    0.8520    1.5138   -0.5380 H   0  0  0  0  0  0  0  0  0  0  0  0
    0.3381    0.5758   -1.9272 H   0  0  0  0  0  0  0  0  0  0  0  0
   -1.2852    1.5383   -0.9073 C   0  0  0  0  0  0  0  0  0  0  0  0
   -2.1020    0.8994   -0.5686 H   0  0  0  0  0  0  0  0  0  0  0  0
   -1.2484    2.3907   -0.2211 H   0  0  0  0  0  0  0  0  0  0  0  0
   -1.6949    2.1240   -2.6003 S   0  0  0  0  0  0  0  0  0  0  0  0
   -0.3982    3.3910   -2.8995 C   0  0  0  0  0  0  0  0  0  0  0  0
    0.5968    2.9374   -2.8717 H   0  0  0  0  0  0  0  0  0  0  0  0
   -0.5439    3.8503   -3.8817 H   0  0  0  0  0  0  0  0  0  0  0  0
   -0.4497    4.1734   -2.1365 H   0  0  0  0  0  0  0  0  0  0  0  0
    0.7095   -0.2138    1.3060 C   0  0  0  0  0  0  0  0  0  0  0  0
    1.9179   -0.1402    1.4883 O   0  0  0  0  0  0  0  0  0  0  0  0
   -0.1471    0.2654    2.2811 N   0  0  0  0  0  0  0  0  0  0  0  0
   -1.1324    0.0753    2.1308 H   0  0  0  0  0  0  0  0  0  0  0  0
    0.3022    0.5897    3.6292 C   0  0  0  0  0  0  0  0  0  0  0  0
    1.0772    1.3631    3.6008 H   0  0  0  0  0  0  0  0  0  0  0  0
   -0.5343    0.9641    4.2270 H   0  0  0  0  0  0  0  0  0  0  0  0
    0.7107   -0.3003    4.1196 H   0  0  0  0  0  0  0  0  0  0  0  0
  1  2  1  0  0  0  0
  2  3  1  0  0  0  0
  2  4  1  0  0  0  0
  2  5  1  0  0  0  0
  5  6  2  0  0  0  0
  5  7  1  0  0  0  0
  7  8  1  0  0  0  0
  7  9  1  0  0  0  0
  9 10  1  0  0  0  0
  9 11  1  0  0  0  0
  9 22  1  0  0  0  0
 11 12  1  0  0  0  0
 11 13  1  0  0  0  0
 11 14  1  0  0  0  0
 14 15  1  0  0  0  0
 14 16  1  0  0  0  0
 14 17  1  0  0  0  0
 17 18  1  0  0  0  0
 18 19  1  0  0  0  0
 18 20  1  0  0  0  0
 18 21  1  0  0  0  0
 22 23  2  0  0  0  0
 22 24  1  0  0  0  0
 24 25  1  0  0  0  0
 24 26  1  0  0  0  0
 26 27  1  0  0  0  0
 26 28  1  0  0  0  0
 26 29  1  0  0  0  0
M  END
$$$$

  -OEChem-04042216023D

 29 28  0     1  0  0  0  0  0999 V2000
   -2.5915   -4.2022    0.6985 H   0  0  0  0  0  0  0  0  0  0  0  0
   -2.6026   -3.2294    0.1985 C   0  0  0  0  0  0  0  0  0  0  0  0
   -3.4469   -2.6486    0.5772 H   0  0  0  0  0  0  0  0  0  0  0  0
   -2.7298   -3.3882   -0.8751 H   0  0  0  0  0  0  0  0  0  0  0  0
   -1.3043   -2.4913    0.4643 C   0  0  0  0  0  0  0  0  0  0  0  0
   -0.4612   -2.9876    1.1886 O   0  0  0  0  0  0  0  0  0  0  0  0
   -1.0934   -1.2531   -0.1097 N   0  0  0  0  0  0  0  0  0  0  0  0
   -1.7742   -0.9685   -0.8097 H   0  0  0  0  0  0  0  0  0  0  0  0
    0.2023   -0.5423   -0.1002 C   0  0  1  0  0  0  0  0  0  0  0  0
    0.9525   -1.1873   -0.5718 H   0  0  0  0  0  0  0  0  0  0  0  0
    0.1343    0.7839   -0.8981 C   0  0  0  0  0  0  0  0  0  0  0  0
    0.8938    1.4791   -0.5226 H   0  0  0  0  0  0  0  0  0  0  0  0
    0.4185    0.5477   -1.9282 H   0  0  0  0  0  0  0  0  0  0  0  0
   -1.2339    1.5011   -0.9246 C   0  0  0  0  0  0  0  0  0  0  0  0
   -1.9841    0.9981   -0.3107 H   0  0  0  0  0  0  0  0  0  0  0  0
   -1.1117    2.5014   -0.4965 H   0  0  0  0  0  0  0  0  0  0  0  0
   -1.8616    1.6731   -2.6434 S   0  0  0  0  0  0  0  0  0  0  0  0
   -0.7025    2.9021   -3.3673 C   0  0  0  0  0  0  0  0  0  0  0  0
    0.3232    2.5230   -3.3477 H   0  0  0  0  0  0  0  0  0  0  0  0
   -0.9770    3.1087   -4.4061 H   0  0  0  0  0  0  0  0  0  0  0  0
   -0.7420    3.8383   -2.8027 H   0  0  0  0  0  0  0  0  0  0  0  0
    0.7308   -0.2379    1.3214 C   0  0  0  0  0  0  0  0  0  0  0  0
    1.9378   -0.1885    1.5199 O   0  0  0  0  0  0  0  0  0  0  0  0
   -0.1282    0.2656    2.2820 N   0  0  0  0  0  0  0  0  0  0  0  0
   -1.1154    0.0975    2.1188 H   0  0  0  0  0  0  0  0  0  0  0  0
    0.3093    0.5853    3.6352 C   0  0  0  0  0  0  0  0  0  0  0  0
    1.1042    1.3382    3.6146 H   0  0  0  0  0  0  0  0  0  0  0  0
   -0.5260    0.9848    4.2182 H   0  0  0  0  0  0  0  0  0  0  0  0
    0.6871   -0.3120    4.1369 H   0  0  0  0  0  0  0  0  0  0  0  0
  1  2  1  0  0  0  0
  2  3  1  0  0  0  0
  2  4  1  0  0  0  0
  2  5  1  0  0  0  0
  5  6  2  0  0  0  0
  5  7  1  0  0  0  0
  7  8  1  0  0  0  0
  7  9  1  0  0  0  0
  9 10  1  0  0  0  0
  9 11  1  0  0  0  0
  9 22  1  0  0  0  0
 11 12  1  0  0  0  0
 11 13  1  0  0  0  0
 11 14  1  0  0  0  0
 14 15  1  0  0  0  0
 14 16  1  0  0  0  0
 14 17  1  0  0  0  0
 17 18  1  0  0  0  0
 18 19  1  0  0  0  0
 18 20  1  0  0  0  0
 18 21  1  0  0  0  0
 22 23  2  0  0  0  0
 22 24  1  0  0  0  0
 24 25  1  0  0  0  0
 24 26  1  0  0  0  0
 26 27  1  0  0  0  0
 26 28  1  0  0  0  0
 26 29  1  0  0  0  0
M  END
$$$$

  -OEChem-04042216023D

 29 28  0     1  0  0  0  0  0999 V2000
   -2.6395   -4.1640    0.6719 H   0  0  0  0  0  0  0  0  0  0  0  0
   -2.6291   -3.1866    0.1813 C   0  0  0  0  0  0  0  0  0  0  0  0
   -3.4683   -2.5954    0.5559 H   0  0  0  0  0  0  0  0  0  0  0  0
   -2.7462   -3.3333   -0.8952 H   0  0  0  0  0  0  0  0  0  0  0  0
   -1.3215   -2.4732    0.4678 C   0  0  0  0  0  0  0  0  0  0  0  0
   -0.5018   -2.9821    1.2101 O   0  0  0  0  0  0  0  0  0  0  0  0
   -1.0732   -1.2436   -0.1086 N   0  0  0  0  0  0  0  0  0  0  0  0
   -1.7396   -0.9391   -0.8155 H   0  0  0  0  0  0  0  0  0  0  0  0
    0.2354   -0.5580   -0.0792 C   0  0  1  0  0  0  0  0  0  0  0  0
    0.9809   -1.2197   -0.5340 H   0  0  0  0  0  0  0  0  0  0  0  0
    0.1884    0.7537   -0.8995 C   0  0  0  0  0  0  0  0  0  0  0  0
    0.9307    1.4541   -0.5004 H   0  0  0  0  0  0  0  0  0  0  0  0
    0.5006    0.5233   -1.9222 H   0  0  0  0  0  0  0  0  0  0  0  0
   -1.1850    1.4538   -0.9394 C   0  0  0  0  0  0  0  0  0  0  0  0
   -1.8346    1.1245   -0.1235 H   0  0  0  0  0  0  0  0  0  0  0  0
   -1.0336    2.5286   -0.7961 H   0  0  0  0  0  0  0  0  0  0  0  0
   -2.0086    1.2070   -2.5645 S   0  0  0  0  0  0  0  0  0  0  0  0
   -1.0426    2.3071   -3.6760 C   0  0  0  0  0  0  0  0  0  0  0  0
    0.0051    1.9954   -3.7123 H   0  0  0  0  0  0  0  0  0  0  0  0
   -1.4522    2.2675   -4.6897 H   0  0  0  0  0  0  0  0  0  0  0  0
   -1.0899    3.3408   -3.3208 H   0  0  0  0  0  0  0  0  0  0  0  0
    0.7490   -0.2517    1.3469 C   0  0  0  0  0  0  0  0  0  0  0  0
    1.9540   -0.2200    1.5603 O   0  0  0  0  0  0  0  0  0  0  0  0
   -0.1138    0.2763    2.2907 N   0  0  0  0  0  0  0  0  0  0  0  0
   -1.1005    0.1143    2.1183 H   0  0  0  0  0  0  0  0  0  0  0  0
    0.3113    0.5931    3.6484 C   0  0  0  0  0  0  0  0  0  0  0  0
    1.1179    1.3338    3.6357 H   0  0  0  0  0  0  0  0  0  0  0  0
   -0.5253    1.0061    4.2198 H   0  0  0  0  0  0  0  0  0  0  0  0
    0.6690   -0.3087    4.1564 H   0  0  0  0  0  0  0  0  0  0  0  0
  1  2  1  0  0  0  0
  2  3  1  0  0  0  0
  2  4  1  0  0  0  0
  2  5  1  0  0  0  0
  5  6  2  0  0  0  0
  5  7  1  0  0  0  0
  7  8  1  0  0  0  0
  7  9  1  0  0  0  0
  9 10  1  0  0  0  0
  9 11  1  0  0  0  0
  9 22  1  0  0  0  0
 11 12  1  0  0  0  0
 11 13  1  0  0  0  0
 11 14  1  0  0  0  0
 14 15  1  0  0  0  0
 14 16  1  0  0  0  0
 14 17  1  0  0  0  0
 17 18  1  0  0  0  0
 18 19  1  0  0  0  0
 18 20  1  0  0  0  0
 18 21  1  0  0  0  0
 22 23  2  0  0  0  0
 22 24  1  0  0  0  0
 24 25  1  0  0  0  0
 24 26  1  0  0  0  0
 26 27  1  0  0  0  0
 26 28  1  0  0  0  0
 26 29  1  0  0  0  0
M  END
$$$$

  -OEChem-04042216023D

 29 28  0     1  0  0  0  0  0999 V2000
   -2.6592   -4.1394    0.6694 H   0  0  0  0  0  0  0  0  0  0  0  0
   -2.6354   -3.1603    0.1822 C   0  0  0  0  0  0  0  0  0  0  0  0
   -3.4631   -2.5568    0.5624 H   0  0  0  0  0  0  0  0  0  0  0  0
   -2.7600   -3.3005   -0.8942 H   0  0  0  0  0  0  0  0  0  0  0  0
   -1.3157   -2.4684    0.4654 C   0  0  0  0  0  0  0  0  0  0  0  0
   -0.5011   -2.9904    1.2045 O   0  0  0  0  0  0  0  0  0  0  0  0
   -1.0517   -1.2414   -0.1080 N   0  0  0  0  0  0  0  0  0  0  0  0
   -1.7213   -0.9161   -0.8039 H   0  0  0  0  0  0  0  0  0  0  0  0
    0.2581   -0.5609   -0.0673 C   0  0  1  0  0  0  0  0  0  0  0  0
    1.0057   -1.2274   -0.5122 H   0  0  0  0  0  0  0  0  0  0  0  0
    0.2208    0.7449   -0.8977 C   0  0  0  0  0  0  0  0  0  0  0  0
    0.9516    1.4498   -0.4859 H   0  0  0  0  0  0  0  0  0  0  0  0
    0.5471    0.5193   -1.9167 H   0  0  0  0  0  0  0  0  0  0  0  0
   -1.1553    1.4333   -0.9499 C   0  0  0  0  0  0  0  0  0  0  0  0
   -1.6953    1.2903   -0.0086 H   0  0  0  0  0  0  0  0  0  0  0  0
   -1.0082    2.5116   -1.0709 H   0  0  0  0  0  0  0  0  0  0  0  0
   -2.1587    0.8277   -2.3701 S   0  0  0  0  0  0  0  0  0  0  0  0
   -1.3723    1.6519   -3.8128 C   0  0  0  0  0  0  0  0  0  0  0  0
   -0.3346    1.3258   -3.9258 H   0  0  0  0  0  0  0  0  0  0  0  0
   -1.9159    1.4012   -4.7287 H   0  0  0  0  0  0  0  0  0  0  0  0
   -1.3877    2.7384   -3.6841 H   0  0  0  0  0  0  0  0  0  0  0  0
    0.7580   -0.2548    1.3636 C   0  0  0  0  0  0  0  0  0  0  0  0
    1.9609   -0.2259    1.5894 O   0  0  0  0  0  0  0  0  0  0  0  0
   -0.1129    0.2772    2.2976 N   0  0  0  0  0  0  0  0  0  0  0  0
   -1.0982    0.1165    2.1155 H   0  0  0  0  0  0  0  0  0  0  0  0
    0.2988    0.5955    3.6590 C   0  0  0  0  0  0  0  0  0  0  0  0
    1.1047    1.3368    3.6536 H   0  0  0  0  0  0  0  0  0  0  0  0
   -0.5435    1.0085    4.2220 H   0  0  0  0  0  0  0  0  0  0  0  0
    0.6530   -0.3052    4.1715 H   0  0  0  0  0  0  0  0  0  0  0  0
  1  2  1  0  0  0  0
  2  3  1  0  0  0  0
  2  4  1  0  0  0  0
  2  5  1  0  0  0  0
  5  6  2  0  0  0  0
  5  7  1  0  0  0  0
  7  8  1  0  0  0  0
  7  9  1  0  0  0  0
  9 10  1  0  0  0  0
  9 11  1  0  0  0  0
  9 22  1  0  0  0  0
 11 12  1  0  0  0  0
 11 13  1  0  0  0  0
 11 14  1  0  0  0  0
 14 15  1  0  0  0  0
 14 16  1  0  0  0  0
 14 17  1  0  0  0  0
 17 18  1  0  0  0  0
 18 19  1  0  0  0  0
 18 20  1  0  0  0  0
 18 21  1  0  0  0  0
 22 23  2  0  0  0  0
 22 24  1  0  0  0  0
 24 25  1  0  0  0  0
 24 26  1  0  0  0  0
 26 27  1  0  0  0  0
 26 28  1  0  0  0  0
 26 29  1  0  0  0  0
M  END
$$$$

  -OEChem-04042216023D

 29 28  0     1  0  0  0  0  0999 V2000
   -2.6241   -4.1591    0.7234 H   0  0  0  0  0  0  0  0  0  0  0  0
   -2.6153   -3.1814    0.2334 C   0  0  0  0  0  0  0  0  0  0  0  0
   -3.4275   -2.5749    0.6412 H   0  0  0  0  0  0  0  0  0  0  0  0
   -2.7782   -3.3236   -0.8377 H   0  0  0  0  0  0  0  0  0  0  0  0
   -1.2852   -2.4912    0.4677 C   0  0  0  0  0  0  0  0  0  0  0  0
   -0.4357   -3.0226    1.1597 O   0  0  0  0  0  0  0  0  0  0  0  0
   -1.0491   -1.2567   -0.1013 N   0  0  0  0  0  0  0  0  0  0  0  0
   -1.7617   -0.9081   -0.7403 H   0  0  0  0  0  0  0  0  0  0  0  0
    0.2446   -0.5500   -0.0752 C   0  0  1  0  0  0  0  0  0  0  0  0
    0.9978   -1.2067   -0.5247 H   0  0  0  0  0  0  0  0  0  0  0  0
    0.2095    0.7639   -0.8978 C   0  0  0  0  0  0  0  0  0  0  0  0
    0.9474    1.4604   -0.4843 H   0  0  0  0  0  0  0  0  0  0  0  0
    0.5365    0.5365   -1.9160 H   0  0  0  0  0  0  0  0  0  0  0  0
   -1.1509    1.4835   -0.9744 C   0  0  0  0  0  0  0  0  0  0  0  0
   -1.5818    1.5525    0.0297 H   0  0  0  0  0  0  0  0  0  0  0  0
   -0.9888    2.5071   -1.3276 H   0  0  0  0  0  0  0  0  0  0  0  0
   -2.3571    0.6658   -2.1069 S   0  0  0  0  0  0  0  0  0  0  0  0
   -1.6535    0.9895   -3.7733 C   0  0  0  0  0  0  0  0  0  0  0  0
   -0.6930    0.4805   -3.8926 H   0  0  0  0  0  0  0  0  0  0  0  0
   -2.3372    0.6235   -4.5451 H   0  0  0  0  0  0  0  0  0  0  0  0
   -1.5045    2.0634   -3.9202 H   0  0  0  0  0  0  0  0  0  0  0  0
    0.7469   -0.2452    1.3550 C   0  0  0  0  0  0  0  0  0  0  0  0
    1.9499   -0.1965    1.5760 O   0  0  0  0  0  0  0  0  0  0  0  0
   -0.1293    0.2607    2.2986 N   0  0  0  0  0  0  0  0  0  0  0  0
   -1.1138    0.0980    2.1137 H   0  0  0  0  0  0  0  0  0  0  0  0
    0.2814    0.5754    3.6610 C   0  0  0  0  0  0  0  0  0  0  0  0
    1.0750    1.3301    3.6586 H   0  0  0  0  0  0  0  0  0  0  0  0
   -0.5657    0.9700    4.2299 H   0  0  0  0  0  0  0  0  0  0  0  0
    0.6517   -0.3235    4.1652 H   0  0  0  0  0  0  0  0  0  0  0  0
  1  2  1  0  0  0  0
  2  3  1  0  0  0  0
  2  4  1  0  0  0  0
  2  5  1  0  0  0  0
  5  6  2  0  0  0  0
  5  7  1  0  0  0  0
  7  8  1  0  0  0  0
  7  9  1  0  0  0  0
  9 10  1  0  0  0  0
  9 11  1  0  0  0  0
  9 22  1  0  0  0  0
 11 12  1  0  0  0  0
 11 13  1  0  0  0  0
 11 14  1  0  0  0  0
 14 15  1  0  0  0  0
 14 16  1  0  0  0  0
 14 17  1  0  0  0  0
 17 18  1  0  0  0  0
 18 19  1  0  0  0  0
 18 20  1  0  0  0  0
 18 21  1  0  0  0  0
 22 23  2  0  0  0  0
 22 24  1  0  0  0  0
 24 25  1  0  0  0  0
 24 26  1  0  0  0  0
 26 27  1  0  0  0  0
 26 28  1  0  0  0  0
 26 29  1  0  0  0  0
M  END
$$$$

  -OEChem-04042216023D

 29 28  0     1  0  0  0  0  0999 V2000
   -2.5817   -4.1794    0.7740 H   0  0  0  0  0  0  0  0  0  0  0  0
   -2.5927   -3.2051    0.2769 C   0  0  0  0  0  0  0  0  0  0  0  0
   -3.3831   -2.5934    0.7184 H   0  0  0  0  0  0  0  0  0  0  0  0
   -2.8063   -3.3540   -0.7843 H   0  0  0  0  0  0  0  0  0  0  0  0
   -1.2502   -2.5187    0.4433 C   0  0  0  0  0  0  0  0  0  0  0  0
   -0.3585   -3.0665    1.0659 O   0  0  0  0  0  0  0  0  0  0  0  0
   -1.0475   -1.2735   -0.1151 N   0  0  0  0  0  0  0  0  0  0  0  0
   -1.8100   -0.8935   -0.6713 H   0  0  0  0  0  0  0  0  0  0  0  0
    0.2278   -0.5374   -0.1008 C   0  0  1  0  0  0  0  0  0  0  0  0
    0.9885   -1.1794   -0.5594 H   0  0  0  0  0  0  0  0  0  0  0  0
    0.1925    0.7949   -0.9002 C   0  0  0  0  0  0  0  0  0  0  0  0
    0.9506    1.4730   -0.4921 H   0  0  0  0  0  0  0  0  0  0  0  0
    0.5093    0.5633   -1.9210 H   0  0  0  0  0  0  0  0  0  0  0  0
   -1.1396    1.5717   -1.0039 C   0  0  0  0  0  0  0  0  0  0  0  0
   -1.4445    1.8658    0.0055 H   0  0  0  0  0  0  0  0  0  0  0  0
   -0.9557    2.4931   -1.5661 H   0  0  0  0  0  0  0  0  0  0  0  0
   -2.5539    0.6904   -1.7998 S   0  0  0  0  0  0  0  0  0  0  0  0
   -1.9203    0.3383   -3.4881 C   0  0  0  0  0  0  0  0  0  0  0  0
   -1.0794   -0.3603   -3.4450 H   0  0  0  0  0  0  0  0  0  0  0  0
   -2.7108   -0.1071   -4.0998 H   0  0  0  0  0  0  0  0  0  0  0  0
   -1.5869    1.2632   -3.9685 H   0  0  0  0  0  0  0  0  0  0  0  0
    0.7322   -0.2415    1.3309 C   0  0  0  0  0  0  0  0  0  0  0  0
    1.9349   -0.1739    1.5491 O   0  0  0  0  0  0  0  0  0  0  0  0
   -0.1498    0.2300    2.2869 N   0  0  0  0  0  0  0  0  0  0  0  0
   -1.1342    0.0722    2.0972 H   0  0  0  0  0  0  0  0  0  0  0  0
    0.2595    0.5499    3.6486 C   0  0  0  0  0  0  0  0  0  0  0  0
    1.0238    1.3341    3.6457 H   0  0  0  0  0  0  0  0  0  0  0  0
   -0.5973    0.9078    4.2273 H   0  0  0  0  0  0  0  0  0  0  0  0
    0.6676   -0.3377    4.1434 H   0  0  0  0  0  0  0  0  0  0  0  0
  1  2  1  0  0  0  0
  2  3  1  0  0  0  0
  2  4  1  0  0  0  0
  2  5  1  0  0  0  0
  5  6  2  0  0  0  0
  5  7  1  0  0  0  0
  7  8  1  0  0  0  0
  7  9  1  0  0  0  0
  9 10  1  0  0  0  0
  9 11  1  0  0  0  0
  9 22  1  0  0  0  0
 11 12  1  0  0  0  0
 11 13  1  0  0  0  0
 11 14  1  0  0  0  0
 14 15  1  0  0  0  0
 14 16  1  0  0  0  0
 14 17  1  0  0  0  0
 17 18  1  0  0  0  0
 18 19  1  0  0  0  0
 18 20  1  0  0  0  0
 18 21  1  0  0  0  0
 22 23  2  0  0  0  0
 22 24  1  0  0  0  0
 24 25  1  0  0  0  0
 24 26  1  0  0  0  0
 26 27  1  0  0  0  0
 26 28  1  0  0  0  0
 26 29  1  0  0  0  0
M  END
$$$$

  -OEChem-04042216023D

 29 28  0     1  0  0  0  0  0999 V2000
   -2.5043   -4.2328    0.8986 H   0  0  0  0  0  0  0  0  0  0  0  0
   -2.5392   -3.2668    0.3867 C   0  0  0  0  0  0  0  0  0  0  0  0
   -3.3040   -2.6461    0.8593 H   0  0  0  0  0  0  0  0  0  0  0  0
   -2.8088   -3.4322   -0.6592 H   0  0  0  0  0  0  0  0  0  0  0  0
   -1.1886   -2.5818    0.4719 C   0  0  0  0  0  0  0  0  0  0  0  0
   -0.2632   -3.1279    1.0448 O   0  0  0  0  0  0  0  0  0  0  0  0
   -1.0164   -1.3395   -0.1029 N   0  0  0  0  0  0  0  0  0  0  0  0
   -1.8210   -0.9394   -0.5781 H   0  0  0  0  0  0  0  0  0  0  0  0
    0.2391   -0.5711   -0.0953 C   0  0  1  0  0  0  0  0  0  0  0  0
    1.0158   -1.2064   -0.5360 H   0  0  0  0  0  0  0  0  0  0  0  0
    0.2091    0.7565   -0.9076 C   0  0  0  0  0  0  0  0  0  0  0  0
    0.9811    1.4296   -0.5172 H   0  0  0  0  0  0  0  0  0  0  0  0
    0.5244    0.4891   -1.9208 H   0  0  0  0  0  0  0  0  0  0  0  0
   -1.0956    1.5753   -1.0767 C   0  0  0  0  0  0  0  0  0  0  0  0
   -1.2775    2.0971   -0.1315 H   0  0  0  0  0  0  0  0  0  0  0  0
   -0.9188    2.3437   -1.8364 H   0  0  0  0  0  0  0  0  0  0  0  0
   -2.6538    0.6873   -1.5095 S   0  0  0  0  0  0  0  0  0  0  0  0
   -2.2298   -0.0504   -3.1383 C   0  0  0  0  0  0  0  0  0  0  0  0
   -1.4006   -0.7569   -3.0361 H   0  0  0  0  0  0  0  0  0  0  0  0
   -3.0944   -0.5831   -3.5458 H   0  0  0  0  0  0  0  0  0  0  0  0
   -1.9385    0.7328   -3.8447 H   0  0  0  0  0  0  0  0  0  0  0  0
    0.7219   -0.2485    1.3380 C   0  0  0  0  0  0  0  0  0  0  0  0
    1.9204   -0.1617    1.5717 O   0  0  0  0  0  0  0  0  0  0  0  0
   -0.1798    0.2099    2.2819 N   0  0  0  0  0  0  0  0  0  0  0  0
   -1.1612    0.0579    2.0730 H   0  0  0  0  0  0  0  0  0  0  0  0
    0.2061    0.5464    3.6466 C   0  0  0  0  0  0  0  0  0  0  0  0
    0.9596    1.3412    3.6482 H   0  0  0  0  0  0  0  0  0  0  0  0
   -0.6637    0.8966    4.2105 H   0  0  0  0  0  0  0  0  0  0  0  0
    0.6192   -0.3319    4.1540 H   0  0  0  0  0  0  0  0  0  0  0  0
  1  2  1  0  0  0  0
  2  3  1  0  0  0  0
  2  4  1  0  0  0  0
  2  5  1  0  0  0  0
  5  6  2  0  0  0  0
  5  7  1  0  0  0  0
  7  8  1  0  0  0  0
  7  9  1  0  0  0  0
  9 10  1  0  0  0  0
  9 11  1  0  0  0  0
  9 22  1  0  0  0  0
 11 12  1  0  0  0  0
 11 13  1  0  0  0  0
 11 14  1  0  0  0  0
 14 15  1  0  0  0  0
 14 16  1  0  0  0  0
 14 17  1  0  0  0  0
 17 18  1  0  0  0  0
 18 19  1  0  0  0  0
 18 20  1  0  0  0  0
 18 21  1  0  0  0  0
 22 23  2  0  0  0  0
 22 24  1  0  0  0  0
 24 25  1  0  0  0  0
 24 26  1  0  0  0  0
 26 27  1  0  0  0  0
 26 28  1  0  0  0  0
 26 29  1  0  0  0  0
M  END
$$$$

  -OEChem-04042216023D

 29 28  0     1  0  0  0  0  0999 V2000
   -2.3669   -4.3150    1.0660 H   0  0  0  0  0  0  0  0  0  0  0  0
   -2.4250   -3.3691    0.5202 C   0  0  0  0  0  0  0  0  0  0  0  0
   -3.1869   -2.7401    0.9865 H   0  0  0  0  0  0  0  0  0  0  0  0
   -2.7144   -3.5759   -0.5127 H   0  0  0  0  0  0  0  0  0  0  0  0
   -1.0813   -2.6664    0.5498 C   0  0  0  0  0  0  0  0  0  0  0  0
   -0.1317   -3.1903    1.1032 O   0  0  0  0  0  0  0  0  0  0  0  0
   -0.9419   -1.4354   -0.0573 N   0  0  0  0  0  0  0  0  0  0  0  0
   -1.7756   -1.0364   -0.4795 H   0  0  0  0  0  0  0  0  0  0  0  0
    0.2894   -0.6300   -0.0553 C   0  0  1  0  0  0  0  0  0  0  0  0
    1.0911   -1.2533   -0.4678 H   0  0  0  0  0  0  0  0  0  0  0  0
    0.2422    0.6818   -0.8938 C   0  0  0  0  0  0  0  0  0  0  0  0
    1.0121    1.3690   -0.5245 H   0  0  0  0  0  0  0  0  0  0  0  0
    0.5639    0.3808   -1.8959 H   0  0  0  0  0  0  0  0  0  0  0  0
   -1.0583    1.5000   -1.1204 C   0  0  0  0  0  0  0  0  0  0  0  0
   -1.1158    2.2234   -0.3004 H   0  0  0  0  0  0  0  0  0  0  0  0
   -0.9436    2.0789   -2.0426 H   0  0  0  0  0  0  0  0  0  0  0  0
   -2.6958    0.6545   -1.1652 S   0  0  0  0  0  0  0  0  0  0  0  0
   -2.6087   -0.2121   -2.7833 C   0  0  0  0  0  0  0  0  0  0  0  0
   -1.7593   -0.9015   -2.8058 H   0  0  0  0  0  0  0  0  0  0  0  0
   -3.5272   -0.7815   -2.9550 H   0  0  0  0  0  0  0  0  0  0  0  0
   -2.4919    0.5133   -3.5942 H   0  0  0  0  0  0  0  0  0  0  0  0
    0.7356   -0.2596    1.3781 C   0  0  0  0  0  0  0  0  0  0  0  0
    1.9262   -0.1416    1.6369 O   0  0  0  0  0  0  0  0  0  0  0  0
   -0.1977    0.1933    2.2935 N   0  0  0  0  0  0  0  0  0  0  0  0
   -1.1729    0.0432    2.0554 H   0  0  0  0  0  0  0  0  0  0  0  0
    0.1474    0.5827    3.6547 C   0  0  0  0  0  0  0  0  0  0  0  0
    0.8798    1.3969    3.6479 H   0  0  0  0  0  0  0  0  0  0  0  0
   -0.7439    0.9271    4.1875 H   0  0  0  0  0  0  0  0  0  0  0  0
    0.5714   -0.2678    4.1989 H   0  0  0  0  0  0  0  0  0  0  0  0
  1  2  1  0  0  0  0
  2  3  1  0  0  0  0
  2  4  1  0  0  0  0
  2  5  1  0  0  0  0
  5  6  2  0  0  0  0
  5  7  1  0  0  0  0
  7  8  1  0  0  0  0
  7  9  1  0  0  0  0
  9 10  1  0  0  0  0
  9 11  1  0  0  0  0
  9 22  1  0  0  0  0
 11 12  1  0  0  0  0
 11 13  1  0  0  0  0
 11 14  1  0  0  0  0
 14 15  1  0  0  0  0
 14 16  1  0  0  0  0
 14 17  1  0  0  0  0
 17 18  1  0  0  0  0
 18 19  1  0  0  0  0
 18 20  1  0  0  0  0
 18 21  1  0  0  0  0
 22 23  2  0  0  0  0
 22 24  1  0  0  0  0
 24 25  1  0  0  0  0
 24 26  1  0  0  0  0
 26 27  1  0  0  0  0
 26 28  1  0  0  0  0
 26 29  1  0  0  0  0
M  END
$$$$

  -OEChem-04042216023D

 29 28  0     1  0  0  0  0  0999 V2000
   -2.2024   -4.3802    1.2181 H   0  0  0  0  0  0  0  0  0  0  0  0
   -2.2797   -3.4664    0.6221 C   0  0  0  0  0  0  0  0  0  0  0  0
   -3.0496   -2.8261    1.0591 H   0  0  0  0  0  0  0  0  0  0  0  0
   -2.5716   -3.7339   -0.3962 H   0  0  0  0  0  0  0  0  0  0  0  0
   -0.9473   -2.7414    0.6046 C   0  0  0  0  0  0  0  0  0  0  0  0
    0.0262   -3.2439    1.1360 O   0  0  0  0  0  0  0  0  0  0  0  0
   -0.8451   -1.5157   -0.0210 N   0  0  0  0  0  0  0  0  0  0  0  0
   -1.7023   -1.1228   -0.3987 H   0  0  0  0  0  0  0  0  0  0  0  0
    0.3595   -0.6710   -0.0180 C   0  0  1  0  0  0  0  0  0  0  0  0
    1.1865   -1.2697   -0.4169 H   0  0  0  0  0  0  0  0  0  0  0  0
    0.2695    0.6316   -0.8663 C   0  0  0  0  0  0  0  0  0  0  0  0
    1.0197    1.3429   -0.5018 H   0  0  0  0  0  0  0  0  0  0  0  0
    0.6053    0.3309   -1.8638 H   0  0  0  0  0  0  0  0  0  0  0  0
   -1.0513    1.4155   -1.1117 C   0  0  0  0  0  0  0  0  0  0  0  0
   -1.0009    2.3021   -0.4710 H   0  0  0  0  0  0  0  0  0  0  0  0
   -1.0524    1.7794   -2.1444 H   0  0  0  0  0  0  0  0  0  0  0  0
   -2.6891    0.6452   -0.7606 S   0  0  0  0  0  0  0  0  0  0  0  0
   -3.0050   -0.2523   -2.3331 C   0  0  0  0  0  0  0  0  0  0  0  0
   -2.1960   -0.9587   -2.5429 H   0  0  0  0  0  0  0  0  0  0  0  0
   -3.9469   -0.8055   -2.2683 H   0  0  0  0  0  0  0  0  0  0  0  0
   -3.0743    0.4561   -3.1643 H   0  0  0  0  0  0  0  0  0  0  0  0
    0.7749   -0.2671    1.4156 C   0  0  0  0  0  0  0  0  0  0  0  0
    1.9579   -0.1160    1.6916 O   0  0  0  0  0  0  0  0  0  0  0  0
   -0.1846    0.1678    2.3125 N   0  0  0  0  0  0  0  0  0  0  0  0
   -1.1542    0.0317    2.0445 H   0  0  0  0  0  0  0  0  0  0  0  0
    0.1258    0.6064    3.6667 C   0  0  0  0  0  0  0  0  0  0  0  0
    0.8127    1.4592    3.6463 H   0  0  0  0  0  0  0  0  0  0  0  0
   -0.7883    0.9127    4.1842 H   0  0  0  0  0  0  0  0  0  0  0  0
    0.5903   -0.2073    4.2338 H   0  0  0  0  0  0  0  0  0  0  0  0
  1  2  1  0  0  0  0
  2  3  1  0  0  0  0
  2  4  1  0  0  0  0
  2  5  1  0  0  0  0
  5  6  2  0  0  0  0
  5  7  1  0  0  0  0
  7  8  1  0  0  0  0
  7  9  1  0  0  0  0
  9 10  1  0  0  0  0
  9 11  1  0  0  0  0
  9 22  1  0  0  0  0
 11 12  1  0  0  0  0
 11 13  1  0  0  0  0
 11 14  1  0  0  0  0
 14 15  1  0  0  0  0
 14 16  1  0  0  0  0
 14 17  1  0  0  0  0
 17 18  1  0  0  0  0
 18 19  1  0  0  0  0
 18 20  1  0  0  0  0
 18 21  1  0  0  0  0
 22 23  2  0  0  0  0
 22 24  1  0  0  0  0
 24 25  1  0  0  0  0
 24 26  1  0  0  0  0
 26 27  1  0  0  0  0
 26 28  1  0  0  0  0
 26 29  1  0  0  0  0
M  END
$$$$

  -OEChem-04042216023D

 29 28  0     1  0  0  0  0  0999 V2000
   -2.0040   -4.4782    1.2331 H   0  0  0  0  0  0  0  0  0  0  0  0
   -2.1208   -3.5427    0.6787 C   0  0  0  0  0  0  0  0  0  0  0  0
   -2.8695   -2.9266    1.1822 H   0  0  0  0  0  0  0  0  0  0  0  0
   -2.4667   -3.7732   -0.3317 H   0  0  0  0  0  0  0  0  0  0  0  0
   -0.7974   -2.8045    0.6170 C   0  0  0  0  0  0  0  0  0  0  0  0
    0.1993   -3.2974    1.1138 O   0  0  0  0  0  0  0  0  0  0  0  0
   -0.7317   -1.5758   -0.0072 N   0  0  0  0  0  0  0  0  0  0  0  0
   -1.6111   -1.1825   -0.3289 H   0  0  0  0  0  0  0  0  0  0  0  0
    0.4478   -0.6961    0.0085 C   0  0  1  0  0  0  0  0  0  0  0  0
    1.2971   -1.2618   -0.3914 H   0  0  0  0  0  0  0  0  0  0  0  0
    0.2991    0.6019   -0.8362 C   0  0  0  0  0  0  0  0  0  0  0  0
    1.0065    1.3458   -0.4520 H   0  0  0  0  0  0  0  0  0  0  0  0
    0.6616    0.3374   -1.8349 H   0  0  0  0  0  0  0  0  0  0  0  0
   -1.0619    1.3207   -1.0667 C   0  0  0  0  0  0  0  0  0  0  0  0
   -0.9518    2.3379   -0.6754 H   0  0  0  0  0  0  0  0  0  0  0  0
   -1.2174    1.4203   -2.1459 H   0  0  0  0  0  0  0  0  0  0  0  0
   -2.6107    0.6459   -0.3229 S   0  0  0  0  0  0  0  0  0  0  0  0
   -3.4038   -0.1482   -1.7783 C   0  0  0  0  0  0  0  0  0  0  0  0
   -2.7404   -0.9012   -2.2143 H   0  0  0  0  0  0  0  0  0  0  0  0
   -4.3381   -0.6337   -1.4803 H   0  0  0  0  0  0  0  0  0  0  0  0
   -3.6309    0.6027   -2.5415 H   0  0  0  0  0  0  0  0  0  0  0  0
    0.8402   -0.2824    1.4458 C   0  0  0  0  0  0  0  0  0  0  0  0
    2.0170   -0.1128    1.7370 O   0  0  0  0  0  0  0  0  0  0  0  0
   -0.1384    0.1235    2.3354 N   0  0  0  0  0  0  0  0  0  0  0  0
   -1.1032    0.0328    2.0311 H   0  0  0  0  0  0  0  0  0  0  0  0
    0.1468    0.6107    3.6781 C   0  0  0  0  0  0  0  0  0  0  0  0
    0.7762    1.5057    3.6360 H   0  0  0  0  0  0  0  0  0  0  0  0
   -0.7838    0.8665    4.1932 H   0  0  0  0  0  0  0  0  0  0  0  0
    0.6656   -0.1582    4.2602 H   0  0  0  0  0  0  0  0  0  0  0  0
  1  2  1  0  0  0  0
  2  3  1  0  0  0  0
  2  4  1  0  0  0  0
  2  5  1  0  0  0  0
  5  6  2  0  0  0  0
  5  7  1  0  0  0  0
  7  8  1  0  0  0  0
  7  9  1  0  0  0  0
  9 10  1  0  0  0  0
  9 11  1  0  0  0  0
  9 22  1  0  0  0  0
 11 12  1  0  0  0  0
 11 13  1  0  0  0  0
 11 14  1  0  0  0  0
 14 15  1  0  0  0  0
 14 16  1  0  0  0  0
 14 17  1  0  0  0  0
 17 18  1  0  0  0  0
 18 19  1  0  0  0  0
 18 20  1  0  0  0  0
 18 21  1  0  0  0  0
 22 23  2  0  0  0  0
 22 24  1  0  0  0  0
 24 25  1  0  0  0  0
 24 26  1  0  0  0  0
 26 27  1  0  0  0  0
 26 28  1  0  0  0  0
 26 29  1  0  0  0  0
M  END
$$$$

  -OEChem-04042216023D

 29 28  0     1  0  0  0  0  0999 V2000
   -1.1074   -4.9053    1.2129 H   0  0  0  0  0  0  0  0  0  0  0  0
   -1.3884   -4.0191    0.6370 C   0  0  0  0  0  0  0  0  0  0  0  0
   -2.2543   -3.5516    1.1115 H   0  0  0  0  0  0  0  0  0  0  0  0
   -1.6574   -4.3278   -0.3758 H   0  0  0  0  0  0  0  0  0  0  0  0
   -0.2305   -3.0404    0.5893 C   0  0  0  0  0  0  0  0  0  0  0  0
    0.8309   -3.3279    1.1134 O   0  0  0  0  0  0  0  0  0  0  0  0
   -0.3851   -1.8287   -0.0527 N   0  0  0  0  0  0  0  0  0  0  0  0
   -1.3184   -1.6083   -0.3913 H   0  0  0  0  0  0  0  0  0  0  0  0
    0.6046   -0.7389   -0.0143 C   0  0  1  0  0  0  0  0  0  0  0  0
    1.5587   -1.1349   -0.3810 H   0  0  0  0  0  0  0  0  0  0  0  0
    0.2187    0.4731   -0.9061 C   0  0  0  0  0  0  0  0  0  0  0  0
    0.7171    1.3603   -0.4988 H   0  0  0  0  0  0  0  0  0  0  0  0
    0.6747    0.2965   -1.8856 H   0  0  0  0  0  0  0  0  0  0  0  0
   -1.2628    0.8545   -1.1755 C   0  0  0  0  0  0  0  0  0  0  0  0
   -1.3429    1.9454   -1.1243 H   0  0  0  0  0  0  0  0  0  0  0  0
   -1.4973    0.5661   -2.2054 H   0  0  0  0  0  0  0  0  0  0  0  0
   -2.5762    0.1306   -0.0986 S   0  0  0  0  0  0  0  0  0  0  0  0
   -4.0738    0.9755   -0.7427 C   0  0  0  0  0  0  0  0  0  0  0  0
   -3.9734    2.0597   -0.6350 H   0  0  0  0  0  0  0  0  0  0  0  0
   -4.9580    0.6503   -0.1862 H   0  0  0  0  0  0  0  0  0  0  0  0
   -4.2192    0.7388   -1.8010 H   0  0  0  0  0  0  0  0  0  0  0  0
    0.8756   -0.2331    1.4222 C   0  0  0  0  0  0  0  0  0  0  0  0
    1.9888    0.1729    1.7295 O   0  0  0  0  0  0  0  0  0  0  0  0
   -0.1816   -0.0047    2.2842 N   0  0  0  0  0  0  0  0  0  0  0  0
   -1.1099   -0.2375    1.9423 H   0  0  0  0  0  0  0  0  0  0  0  0
   -0.0355    0.6182    3.5926 C   0  0  0  0  0  0  0  0  0  0  0  0
    0.3228    1.6476    3.4885 H   0  0  0  0  0  0  0  0  0  0  0  0
   -0.9980    0.6357    4.1125 H   0  0  0  0  0  0  0  0  0  0  0  0
    0.6778    0.0570    4.2055 H   0  0  0  0  0  0  0  0  0  0  0  0
  1  2  1  0  0  0  0
  2  3  1  0  0  0  0
  2  4  1  0  0  0  0
  2  5  1  0  0  0  0
  5  6  2  0  0  0  0
  5  7  1  0  0  0  0
  7  8  1  0  0  0  0
  7  9  1  0  0  0  0
  9 10  1  0  0  0  0
  9 11  1  0  0  0  0
  9 22  1  0  0  0  0
 11 12  1  0  0  0  0
 11 13  1  0  0  0  0
 11 14  1  0  0  0  0
 14 15  1  0  0  0  0
 14 16  1  0  0  0  0
 14 17  1  0  0  0  0
 17 18  1  0  0  0  0
 18 19  1  0  0  0  0
 18 20  1  0  0  0  0
 18 21  1  0  0  0  0
 22 23  2  0  0  0  0
 22 24  1  0  0  0  0
 24 25  1  0  0  0  0
 24 26  1  0  0  0  0
 26 27  1  0  0  0  0
 26 28  1  0  0  0  0
 26 29  1  0  0  0  0
M  END
$$$$

  -OEChem-04042216023D

 29 28  0     1  0  0  0  0  0999 V2000
   -0.9858   -4.9293    0.5533 H   0  0  0  0  0  0  0  0  0  0  0  0
   -1.3762   -3.9439    0.2836 C   0  0  0  0  0  0  0  0  0  0  0  0
   -2.0686   -3.6142    1.0618 H   0  0  0  0  0  0  0  0  0  0  0  0
   -1.9140   -4.0260   -0.6638 H   0  0  0  0  0  0  0  0  0  0  0  0
   -0.2373   -2.9512    0.1495 C   0  0  0  0  0  0  0  0  0  0  0  0
    0.9054   -3.2994    0.3881 O   0  0  0  0  0  0  0  0  0  0  0  0
   -0.5048   -1.6553   -0.2412 N   0  0  0  0  0  0  0  0  0  0  0  0
   -1.4863   -1.3956   -0.2939 H   0  0  0  0  0  0  0  0  0  0  0  0
    0.4829   -0.5631   -0.1840 C   0  0  1  0  0  0  0  0  0  0  0  0
    1.3579   -0.8818   -0.7623 H   0  0  0  0  0  0  0  0  0  0  0  0
   -0.0497    0.7362   -0.8417 C   0  0  0  0  0  0  0  0  0  0  0  0
    0.4669    1.5829   -0.3759 H   0  0  0  0  0  0  0  0  0  0  0  0
    0.2611    0.7260   -1.8915 H   0  0  0  0  0  0  0  0  0  0  0  0
   -1.5673    1.0427   -0.8204 C   0  0  0  0  0  0  0  0  0  0  0  0
   -1.7021    2.1278   -0.8785 H   0  0  0  0  0  0  0  0  0  0  0  0
   -2.0098    0.6137   -1.7253 H   0  0  0  0  0  0  0  0  0  0  0  0
   -2.5242    0.3968    0.6189 S   0  0  0  0  0  0  0  0  0  0  0  0
   -4.1920    1.0872    0.2825 C   0  0  0  0  0  0  0  0  0  0  0  0
   -4.1549    2.1808    0.2724 H   0  0  0  0  0  0  0  0  0  0  0  0
   -4.8943    0.7692    1.0591 H   0  0  0  0  0  0  0  0  0  0  0  0
   -4.5603    0.7384   -0.6870 H   0  0  0  0  0  0  0  0  0  0  0  0
    1.0207   -0.2755    1.2387 C   0  0  0  0  0  0  0  0  0  0  0  0
    2.1791    0.0912    1.3873 O   0  0  0  0  0  0  0  0  0  0  0  0
    0.1577   -0.2050    2.3171 N   0  0  0  0  0  0  0  0  0  0  0  0
   -0.8286   -0.3561    2.1238 H   0  0  0  0  0  0  0  0  0  0  0  0
    0.5653    0.2248    3.6480 C   0  0  0  0  0  0  0  0  0  0  0  0
    0.9205    1.2603    3.6242 H   0  0  0  0  0  0  0  0  0  0  0  0
   -0.2794    0.1633    4.3406 H   0  0  0  0  0  0  0  0  0  0  0  0
    1.3691   -0.4153    4.0268 H   0  0  0  0  0  0  0  0  0  0  0  0
  1  2  1  0  0  0  0
  2  3  1  0  0  0  0
  2  4  1  0  0  0  0
  2  5  1  0  0  0  0
  5  6  2  0  0  0  0
  5  7  1  0  0  0  0
  7  8  1  0  0  0  0
  7  9  1  0  0  0  0
  9 10  1  0  0  0  0
  9 11  1  0  0  0  0
  9 22  1  0  0  0  0
 11 12  1  0  0  0  0
 11 13  1  0  0  0  0
 11 14  1  0  0  0  0
 14 15  1  0  0  0  0
 14 16  1  0  0  0  0
 14 17  1  0  0  0  0
 17 18  1  0  0  0  0
 18 19  1  0  0  0  0
 18 20  1  0  0  0  0
 18 21  1  0  0  0  0
 22 23  2  0  0  0  0
 22 24  1  0  0  0  0
 24 25  1  0  0  0  0
 24 26  1  0  0  0  0
 26 27  1  0  0  0  0
 26 28  1  0  0  0  0
 26 29  1  0  0  0  0
M  END
$$$$

  -OEChem-04042216023D

 29 28  0     1  0  0  0  0  0999 V2000
   -1.3591   -4.8501    0.8558 H   0  0  0  0  0  0  0  0  0  0  0  0
   -1.6671   -3.8503    0.5363 C   0  0  0  0  0  0  0  0  0  0  0  0
   -2.3156   -3.4200    1.3031 H   0  0  0  0  0  0  0  0  0  0  0  0
   -2.2246   -3.9365   -0.3995 H   0  0  0  0  0  0  0  0  0  0  0  0
   -0.4489   -2.9692    0.3348 C   0  0  0  0  0  0  0  0  0  0  0  0
    0.6640   -3.4082    0.5638 O   0  0  0  0  0  0  0  0  0  0  0  0
   -0.6112   -1.6710   -0.1046 N   0  0  0  0  0  0  0  0  0  0  0  0
   -1.5666   -1.3265   -0.1355 H   0  0  0  0  0  0  0  0  0  0  0  0
    0.4684   -0.6671   -0.0856 C   0  0  1  0  0  0  0  0  0  0  0  0
    1.3107   -1.0950   -0.6419 H   0  0  0  0  0  0  0  0  0  0  0  0
    0.0538    0.6188   -0.8420 C   0  0  0  0  0  0  0  0  0  0  0  0
    0.6146    1.4613   -0.4223 H   0  0  0  0  0  0  0  0  0  0  0  0
    0.3753    0.5154   -1.8832 H   0  0  0  0  0  0  0  0  0  0  0  0
   -1.4432    0.9928   -0.8558 C   0  0  0  0  0  0  0  0  0  0  0  0
   -1.5401    2.0209   -1.2199 H   0  0  0  0  0  0  0  0  0  0  0  0
   -1.9605    0.3448   -1.5706 H   0  0  0  0  0  0  0  0  0  0  0  0
   -2.2887    0.8539    0.7736 S   0  0  0  0  0  0  0  0  0  0  0  0
   -3.9539    1.5179    0.3769 C   0  0  0  0  0  0  0  0  0  0  0  0
   -4.4266    0.9191   -0.4074 H   0  0  0  0  0  0  0  0  0  0  0  0
   -4.5900    1.4943    1.2669 H   0  0  0  0  0  0  0  0  0  0  0  0
   -3.8765    2.5535    0.0316 H   0  0  0  0  0  0  0  0  0  0  0  0
    1.0501   -0.3578    1.3159 C   0  0  0  0  0  0  0  0  0  0  0  0
    2.2415   -0.1009    1.4312 O   0  0  0  0  0  0  0  0  0  0  0  0
    0.2218   -0.1610    2.4055 N   0  0  0  0  0  0  0  0  0  0  0  0
   -0.7781   -0.1806    2.2245 H   0  0  0  0  0  0  0  0  0  0  0  0
    0.6958    0.3140    3.6987 C   0  0  0  0  0  0  0  0  0  0  0  0
    1.1118    1.3228    3.6074 H   0  0  0  0  0  0  0  0  0  0  0  0
   -0.1296    0.3417    4.4164 H   0  0  0  0  0  0  0  0  0  0  0  0
    1.4708   -0.3531    4.0910 H   0  0  0  0  0  0  0  0  0  0  0  0
  1  2  1  0  0  0  0
  2  3  1  0  0  0  0
  2  4  1  0  0  0  0
  2  5  1  0  0  0  0
  5  6  2  0  0  0  0
  5  7  1  0  0  0  0
  7  8  1  0  0  0  0
  7  9  1  0  0  0  0
  9 10  1  0  0  0  0
  9 11  1  0  0  0  0
  9 22  1  0  0  0  0
 11 12  1  0  0  0  0
 11 13  1  0  0  0  0
 11 14  1  0  0  0  0
 14 15  1  0  0  0  0
 14 16  1  0  0  0  0
 14 17  1  0  0  0  0
 17 18  1  0  0  0  0
 18 19  1  0  0  0  0
 18 20  1  0  0  0  0
 18 21  1  0  0  0  0
 22 23  2  0  0  0  0
 22 24  1  0  0  0  0
 24 25  1  0  0  0  0
 24 26  1  0  0  0  0
 26 27  1  0  0  0  0
 26 28  1  0  0  0  0
 26 29  1  0  0  0  0
M  END
$$$$

  -OEChem-04042216023D

 29 28  0     1  0  0  0  0  0999 V2000
   -1.4723   -4.8030    0.7556 H   0  0  0  0  0  0  0  0  0  0  0  0
   -1.7611   -3.7793    0.5004 C   0  0  0  0  0  0  0  0  0  0  0  0
   -2.3661   -3.3715    1.3137 H   0  0  0  0  0  0  0  0  0  0  0  0
   -2.3566   -3.8003   -0.4153 H   0  0  0  0  0  0  0  0  0  0  0  0
   -0.5244   -2.9249    0.2958 C   0  0  0  0  0  0  0  0  0  0  0  0
    0.5812   -3.4046    0.4714 O   0  0  0  0  0  0  0  0  0  0  0  0
   -0.6613   -1.6062   -0.0890 N   0  0  0  0  0  0  0  0  0  0  0  0
   -1.6067   -1.2368   -0.0811 H   0  0  0  0  0  0  0  0  0  0  0  0
    0.4493   -0.6358   -0.0603 C   0  0  1  0  0  0  0  0  0  0  0  0
    1.2638   -1.0715   -0.6511 H   0  0  0  0  0  0  0  0  0  0  0  0
    0.0651    0.6875   -0.7664 C   0  0  0  0  0  0  0  0  0  0  0  0
    0.6614    1.5040   -0.3440 H   0  0  0  0  0  0  0  0  0  0  0  0
    0.3514    0.5978   -1.8193 H   0  0  0  0  0  0  0  0  0  0  0  0
   -1.4218    1.0854   -0.7264 C   0  0  0  0  0  0  0  0  0  0  0  0
   -1.5375    2.0322   -1.2641 H   0  0  0  0  0  0  0  0  0  0  0  0
   -2.0231    0.3398   -1.2557 H   0  0  0  0  0  0  0  0  0  0  0  0
   -2.0659    1.3034    0.9798 S   0  0  0  0  0  0  0  0  0  0  0  0
   -3.7601    1.9297    0.6484 C   0  0  0  0  0  0  0  0  0  0  0  0
   -4.3298    1.1999    0.0655 H   0  0  0  0  0  0  0  0  0  0  0  0
   -4.2847    2.1101    1.5914 H   0  0  0  0  0  0  0  0  0  0  0  0
   -3.7147    2.8693    0.0893 H   0  0  0  0  0  0  0  0  0  0  0  0
    1.0771   -0.3985    1.3351 C   0  0  0  0  0  0  0  0  0  0  0  0
    2.2807   -0.1946    1.4272 O   0  0  0  0  0  0  0  0  0  0  0  0
    0.2862   -0.2192    2.4553 N   0  0  0  0  0  0  0  0  0  0  0  0
   -0.7153   -0.1589    2.2950 H   0  0  0  0  0  0  0  0  0  0  0  0
    0.8164    0.2027    3.7455 C   0  0  0  0  0  0  0  0  0  0  0  0
    1.2404    1.2098    3.6747 H   0  0  0  0  0  0  0  0  0  0  0  0
    0.0210    0.2114    4.4968 H   0  0  0  0  0  0  0  0  0  0  0  0
    1.5986   -0.4863    4.0816 H   0  0  0  0  0  0  0  0  0  0  0  0
  1  2  1  0  0  0  0
  2  3  1  0  0  0  0
  2  4  1  0  0  0  0
  2  5  1  0  0  0  0
  5  6  2  0  0  0  0
  5  7  1  0  0  0  0
  7  8  1  0  0  0  0
  7  9  1  0  0  0  0
  9 10  1  0  0  0  0
  9 11  1  0  0  0  0
  9 22  1  0  0  0  0
 11 12  1  0  0  0  0
 11 13  1  0  0  0  0
 11 14  1  0  0  0  0
 14 15  1  0  0  0  0
 14 16  1  0  0  0  0
 14 17  1  0  0  0  0
 17 18  1  0  0  0  0
 18 19  1  0  0  0  0
 18 20  1  0  0  0  0
 18 21  1  0  0  0  0
 22 23  2  0  0  0  0
 22 24  1  0  0  0  0
 24 25  1  0  0  0  0
 24 26  1  0  0  0  0
 26 27  1  0  0  0  0
 26 28  1  0  0  0  0
 26 29  1  0  0  0  0
M  END
$$$$

  -OEChem-04042216023D

 29 28  0     1  0  0  0  0  0999 V2000
   -1.2810   -4.7866    0.7785 H   0  0  0  0  0  0  0  0  0  0  0  0
   -1.5864   -3.7937    0.4358 C   0  0  0  0  0  0  0  0  0  0  0  0
   -2.3114   -3.3858    1.1441 H   0  0  0  0  0  0  0  0  0  0  0  0
   -2.0568   -3.8896   -0.5458 H   0  0  0  0  0  0  0  0  0  0  0  0
   -0.3784   -2.8808    0.3446 C   0  0  0  0  0  0  0  0  0  0  0  0
    0.7288   -3.3102    0.6130 O   0  0  0  0  0  0  0  0  0  0  0  0
   -0.5421   -1.5676   -0.0494 N   0  0  0  0  0  0  0  0  0  0  0  0
   -1.4987   -1.2460   -0.1460 H   0  0  0  0  0  0  0  0  0  0  0  0
    0.5274   -0.5540    0.0348 C   0  0  1  0  0  0  0  0  0  0  0  0
    1.3889   -0.9483   -0.5169 H   0  0  0  0  0  0  0  0  0  0  0  0
    0.1298    0.7746   -0.6557 C   0  0  0  0  0  0  0  0  0  0  0  0
    0.6961    1.6033   -0.2158 H   0  0  0  0  0  0  0  0  0  0  0  0
    0.4447    0.6985   -1.7014 H   0  0  0  0  0  0  0  0  0  0  0  0
   -1.3683    1.1275   -0.6612 C   0  0  0  0  0  0  0  0  0  0  0  0
   -1.5194    1.9464   -1.3723 H   0  0  0  0  0  0  0  0  0  0  0  0
   -1.9790    0.2909   -1.0102 H   0  0  0  0  0  0  0  0  0  0  0  0
   -1.9321    1.7021    0.9884 S   0  0  0  0  0  0  0  0  0  0  0  0
   -3.6478    2.2424    0.6215 C   0  0  0  0  0  0  0  0  0  0  0  0
   -4.2369    1.4058    0.2346 H   0  0  0  0  0  0  0  0  0  0  0  0
   -4.1259    2.6163    1.5320 H   0  0  0  0  0  0  0  0  0  0  0  0
   -3.6417    3.0438   -0.1233 H   0  0  0  0  0  0  0  0  0  0  0  0
    1.0579   -0.3061    1.4677 C   0  0  0  0  0  0  0  0  0  0  0  0
    2.2450   -0.0619    1.6396 O   0  0  0  0  0  0  0  0  0  0  0  0
    0.1854   -0.1668    2.5321 N   0  0  0  0  0  0  0  0  0  0  0  0
   -0.8024   -0.1276    2.3005 H   0  0  0  0  0  0  0  0  0  0  0  0
    0.6098    0.2770    3.8534 C   0  0  0  0  0  0  0  0  0  0  0  0
    0.9763    1.3079    3.8113 H   0  0  0  0  0  0  0  0  0  0  0  0
   -0.2295    0.2338    4.5537 H   0  0  0  0  0  0  0  0  0  0  0  0
    1.4095   -0.3667    4.2352 H   0  0  0  0  0  0  0  0  0  0  0  0
  1  2  1  0  0  0  0
  2  3  1  0  0  0  0
  2  4  1  0  0  0  0
  2  5  1  0  0  0  0
  5  6  2  0  0  0  0
  5  7  1  0  0  0  0
  7  8  1  0  0  0  0
  7  9  1  0  0  0  0
  9 10  1  0  0  0  0
  9 11  1  0  0  0  0
  9 22  1  0  0  0  0
 11 12  1  0  0  0  0
 11 13  1  0  0  0  0
 11 14  1  0  0  0  0
 14 15  1  0  0  0  0
 14 16  1  0  0  0  0
 14 17  1  0  0  0  0
 17 18  1  0  0  0  0
 18 19  1  0  0  0  0
 18 20  1  0  0  0  0
 18 21  1  0  0  0  0
 22 23  2  0  0  0  0
 22 24  1  0  0  0  0
 24 25  1  0  0  0  0
 24 26  1  0  0  0  0
 26 27  1  0  0  0  0
 26 28  1  0  0  0  0
 26 29  1  0  0  0  0
M  END
$$$$

  -OEChem-04042216023D

 29 28  0     1  0  0  0  0  0999 V2000
   -2.5343   -4.4412    0.6281 H   0  0  0  0  0  0  0  0  0  0  0  0
   -2.5472   -3.4098    0.2641 C   0  0  0  0  0  0  0  0  0  0  0  0
   -3.2286   -2.8267    0.8881 H   0  0  0  0  0  0  0  0  0  0  0  0
   -2.9100   -3.4053   -0.7665 H   0  0  0  0  0  0  0  0  0  0  0  0
   -1.1512   -2.8189    0.3251 C   0  0  0  0  0  0  0  0  0  0  0  0
   -0.2161   -3.5105    0.6838 O   0  0  0  0  0  0  0  0  0  0  0  0
   -0.9486   -1.5041   -0.0459 N   0  0  0  0  0  0  0  0  0  0  0  0
   -1.7566   -0.9952   -0.3844 H   0  0  0  0  0  0  0  0  0  0  0  0
    0.3647   -0.8285   -0.0238 C   0  0  1  0  0  0  0  0  0  0  0  0
    1.0505   -1.4158   -0.6452 H   0  0  0  0  0  0  0  0  0  0  0  0
    0.3124    0.6034   -0.6160 C   0  0  0  0  0  0  0  0  0  0  0  0
    1.1368    1.2060   -0.2172 H   0  0  0  0  0  0  0  0  0  0  0  0
    0.4970    0.4988   -1.6898 H   0  0  0  0  0  0  0  0  0  0  0  0
   -1.0123    1.3776   -0.4700 C   0  0  0  0  0  0  0  0  0  0  0  0
   -1.0805    2.0922   -1.2968 H   0  0  0  0  0  0  0  0  0  0  0  0
   -1.8926    0.7361   -0.5348 H   0  0  0  0  0  0  0  0  0  0  0  0
   -1.0234    2.3342    1.0964 S   0  0  0  0  0  0  0  0  0  0  0  0
   -2.5703    3.3075    0.9249 C   0  0  0  0  0  0  0  0  0  0  0  0
   -2.5164    3.9525    0.0429 H   0  0  0  0  0  0  0  0  0  0  0  0
   -2.7170    3.9365    1.8082 H   0  0  0  0  0  0  0  0  0  0  0  0
   -3.4315    2.6409    0.8227 H   0  0  0  0  0  0  0  0  0  0  0  0
    1.0167   -0.7794    1.3793 C   0  0  0  0  0  0  0  0  0  0  0  0
    2.2329   -0.8722    1.4856 O   0  0  0  0  0  0  0  0  0  0  0  0
    0.2694   -0.4322    2.4901 N   0  0  0  0  0  0  0  0  0  0  0  0
   -0.6943   -0.1629    2.3219 H   0  0  0  0  0  0  0  0  0  0  0  0
    0.8567   -0.1709    3.7975 C   0  0  0  0  0  0  0  0  0  0  0  0
    1.4978    0.7157    3.7585 H   0  0  0  0  0  0  0  0  0  0  0  0
    0.0695    0.0004    4.5376 H   0  0  0  0  0  0  0  0  0  0  0  0
    1.4568   -1.0261    4.1261 H   0  0  0  0  0  0  0  0  0  0  0  0
  1  2  1  0  0  0  0
  2  3  1  0  0  0  0
  2  4  1  0  0  0  0
  2  5  1  0  0  0  0
  5  6  2  0  0  0  0
  5  7  1  0  0  0  0
  7  8  1  0  0  0  0
  7  9  1  0  0  0  0
  9 10  1  0  0  0  0
  9 11  1  0  0  0  0
  9 22  1  0  0  0  0
 11 12  1  0  0  0  0
 11 13  1  0  0  0  0
 11 14  1  0  0  0  0
 14 15  1  0  0  0  0
 14 16  1  0  0  0  0
 14 17  1  0  0  0  0
 17 18  1  0  0  0  0
 18 19  1  0  0  0  0
 18 20  1  0  0  0  0
 18 21  1  0  0  0  0
 22 23  2  0  0  0  0
 22 24  1  0  0  0  0
 24 25  1  0  0  0  0
 24 26  1  0  0  0  0
 26 27  1  0  0  0  0
 26 28  1  0  0  0  0
 26 29  1  0  0  0  0
M  END
$$$$

  -OEChem-04042216023D

 29 28  0     1  0  0  0  0  0999 V2000
   -2.4702   -4.3674    0.5156 H   0  0  0  0  0  0  0  0  0  0  0  0
   -2.5314   -3.3629    0.0870 C   0  0  0  0  0  0  0  0  0  0  0  0
   -3.3801   -2.8411    0.5358 H   0  0  0  0  0  0  0  0  0  0  0  0
   -2.6926   -3.4505   -0.9901 H   0  0  0  0  0  0  0  0  0  0  0  0
   -1.2480   -2.6012    0.3598 C   0  0  0  0  0  0  0  0  0  0  0  0
   -0.3402   -3.1398    0.9658 O   0  0  0  0  0  0  0  0  0  0  0  0
   -1.1197   -1.2959   -0.0742 N   0  0  0  0  0  0  0  0  0  0  0  0
   -1.8733   -0.9400   -0.6528 H   0  0  0  0  0  0  0  0  0  0  0  0
    0.1325   -0.5147    0.0006 C   0  0  1  0  0  0  0  0  0  0  0  0
    0.8967   -1.1471   -0.4671 H   0  0  0  0  0  0  0  0  0  0  0  0
    0.1108    0.7757   -0.8682 C   0  0  0  0  0  0  0  0  0  0  0  0
    0.8338    1.4925   -0.4640 H   0  0  0  0  0  0  0  0  0  0  0  0
    0.4889    0.4862   -1.8541 H   0  0  0  0  0  0  0  0  0  0  0  0
   -1.2323    1.5029   -1.1166 C   0  0  0  0  0  0  0  0  0  0  0  0
   -1.2870    1.7584   -2.1799 H   0  0  0  0  0  0  0  0  0  0  0  0
   -2.0783    0.8459   -0.9091 H   0  0  0  0  0  0  0  0  0  0  0  0
   -1.4803    3.0689   -0.1730 S   0  0  0  0  0  0  0  0  0  0  0  0
   -1.0266    2.8311    1.5839 C   0  0  0  0  0  0  0  0  0  0  0  0
    0.0211    2.5309    1.6707 H   0  0  0  0  0  0  0  0  0  0  0  0
   -1.1595    3.7683    2.1320 H   0  0  0  0  0  0  0  0  0  0  0  0
   -1.6687    2.0737    2.0393 H   0  0  0  0  0  0  0  0  0  0  0  0
    0.6827   -0.3292    1.4343 C   0  0  0  0  0  0  0  0  0  0  0  0
    1.8909   -0.2279    1.6022 O   0  0  0  0  0  0  0  0  0  0  0  0
   -0.1575    0.0133    2.4764 N   0  0  0  0  0  0  0  0  0  0  0  0
   -1.1435   -0.1744    2.3273 H   0  0  0  0  0  0  0  0  0  0  0  0
    0.3185    0.2118    3.8400 C   0  0  0  0  0  0  0  0  0  0  0  0
    1.0498    1.0262    3.8767 H   0  0  0  0  0  0  0  0  0  0  0  0
   -0.5162    0.4700    4.4985 H   0  0  0  0  0  0  0  0  0  0  0  0
    0.7900   -0.7021    4.2169 H   0  0  0  0  0  0  0  0  0  0  0  0
  1  2  1  0  0  0  0
  2  3  1  0  0  0  0
  2  4  1  0  0  0  0
  2  5  1  0  0  0  0
  5  6  2  0  0  0  0
  5  7  1  0  0  0  0
  7  8  1  0  0  0  0
  7  9  1  0  0  0  0
  9 10  1  0  0  0  0
  9 11  1  0  0  0  0
  9 22  1  0  0  0  0
 11 12  1  0  0  0  0
 11 13  1  0  0  0  0
 11 14  1  0  0  0  0
 14 15  1  0  0  0  0
 14 16  1  0  0  0  0
 14 17  1  0  0  0  0
 17 18  1  0  0  0  0
 18 19  1  0  0  0  0
 18 20  1  0  0  0  0
 18 21  1  0  0  0  0
 22 23  2  0  0  0  0
 22 24  1  0  0  0  0
 24 25  1  0  0  0  0
 24 26  1  0  0  0  0
 26 27  1  0  0  0  0
 26 28  1  0  0  0  0
 26 29  1  0  0  0  0
M  END
$$$$

  -OEChem-04042216023D

 29 28  0     1  0  0  0  0  0999 V2000
   -2.5284   -4.2901    0.5819 H   0  0  0  0  0  0  0  0  0  0  0  0
   -2.5614   -3.3003    0.1175 C   0  0  0  0  0  0  0  0  0  0  0  0
   -3.4168   -2.7525    0.5196 H   0  0  0  0  0  0  0  0  0  0  0  0
   -2.6886   -3.4237   -0.9606 H   0  0  0  0  0  0  0  0  0  0  0  0
   -1.2772   -2.5460    0.4066 C   0  0  0  0  0  0  0  0  0  0  0  0
   -0.4134   -3.0618    1.0912 O   0  0  0  0  0  0  0  0  0  0  0  0
   -1.0984   -1.2749   -0.1044 N   0  0  0  0  0  0  0  0  0  0  0  0
   -1.8022   -0.9599   -0.7644 H   0  0  0  0  0  0  0  0  0  0  0  0
    0.1779   -0.5301   -0.0484 C   0  0  1  0  0  0  0  0  0  0  0  0
    0.9427   -1.1711   -0.5023 H   0  0  0  0  0  0  0  0  0  0  0  0
    0.1482    0.7778   -0.8850 C   0  0  0  0  0  0  0  0  0  0  0  0
    0.8956    1.4735   -0.4888 H   0  0  0  0  0  0  0  0  0  0  0  0
    0.4845    0.5193   -1.8941 H   0  0  0  0  0  0  0  0  0  0  0  0
   -1.2060    1.5064   -1.0400 C   0  0  0  0  0  0  0  0  0  0  0  0
   -1.4704    1.5464   -2.1017 H   0  0  0  0  0  0  0  0  0  0  0  0
   -2.0080    0.9760   -0.5229 H   0  0  0  0  0  0  0  0  0  0  0  0
   -1.1713    3.2260   -0.3783 S   0  0  0  0  0  0  0  0  0  0  0  0
   -0.6985    3.1184    1.3909 C   0  0  0  0  0  0  0  0  0  0  0  0
    0.3039    2.6933    1.4961 H   0  0  0  0  0  0  0  0  0  0  0  0
   -0.6963    4.1176    1.8363 H   0  0  0  0  0  0  0  0  0  0  0  0
   -1.4136    2.4978    1.9370 H   0  0  0  0  0  0  0  0  0  0  0  0
    0.6860   -0.2835    1.3914 C   0  0  0  0  0  0  0  0  0  0  0  0
    1.8897   -0.2107    1.6003 O   0  0  0  0  0  0  0  0  0  0  0  0
   -0.1857    0.1450    2.3754 N   0  0  0  0  0  0  0  0  0  0  0  0
   -1.1692   -0.0286    2.1965 H   0  0  0  0  0  0  0  0  0  0  0  0
    0.2407    0.3976    3.7463 C   0  0  0  0  0  0  0  0  0  0  0  0
    1.0100    1.1767    3.7721 H   0  0  0  0  0  0  0  0  0  0  0  0
   -0.6075    0.7330    4.3504 H   0  0  0  0  0  0  0  0  0  0  0  0
    0.6483   -0.5150    4.1938 H   0  0  0  0  0  0  0  0  0  0  0  0
  1  2  1  0  0  0  0
  2  3  1  0  0  0  0
  2  4  1  0  0  0  0
  2  5  1  0  0  0  0
  5  6  2  0  0  0  0
  5  7  1  0  0  0  0
  7  8  1  0  0  0  0
  7  9  1  0  0  0  0
  9 10  1  0  0  0  0
  9 11  1  0  0  0  0
  9 22  1  0  0  0  0
 11 12  1  0  0  0  0
 11 13  1  0  0  0  0
 11 14  1  0  0  0  0
 14 15  1  0  0  0  0
 14 16  1  0  0  0  0
 14 17  1  0  0  0  0
 17 18  1  0  0  0  0
 18 19  1  0  0  0  0
 18 20  1  0  0  0  0
 18 21  1  0  0  0  0
 22 23  2  0  0  0  0
 22 24  1  0  0  0  0
 24 25  1  0  0  0  0
 24 26  1  0  0  0  0
 26 27  1  0  0  0  0
 26 28  1  0  0  0  0
 26 29  1  0  0  0  0
M  END
$$$$

  -OEChem-04042216023D

 29 28  0     1  0  0  0  0  0999 V2000
   -2.5856   -4.2149    0.6391 H   0  0  0  0  0  0  0  0  0  0  0  0
   -2.5912   -3.2392    0.1444 C   0  0  0  0  0  0  0  0  0  0  0  0
   -3.4371   -2.6593    0.5214 H   0  0  0  0  0  0  0  0  0  0  0  0
   -2.7116   -3.3928   -0.9308 H   0  0  0  0  0  0  0  0  0  0  0  0
   -1.2924   -2.5062    0.4233 C   0  0  0  0  0  0  0  0  0  0  0  0
   -0.4554   -3.0110    1.1483 O   0  0  0  0  0  0  0  0  0  0  0  0
   -1.0716   -1.2653   -0.1428 N   0  0  0  0  0  0  0  0  0  0  0  0
   -1.7522   -0.9667   -0.8344 H   0  0  0  0  0  0  0  0  0  0  0  0
    0.2232   -0.5512   -0.0966 C   0  0  1  0  0  0  0  0  0  0  0  0
    0.9866   -1.1994   -0.5419 H   0  0  0  0  0  0  0  0  0  0  0  0
    0.1878    0.7687   -0.9070 C   0  0  0  0  0  0  0  0  0  0  0  0
    0.9438    1.4529   -0.5076 H   0  0  0  0  0  0  0  0  0  0  0  0
    0.4971    0.5452   -1.9327 H   0  0  0  0  0  0  0  0  0  0  0  0
   -1.1796    1.4776   -0.9821 C   0  0  0  0  0  0  0  0  0  0  0  0
   -1.6332    1.3027   -1.9629 H   0  0  0  0  0  0  0  0  0  0  0  0
   -1.8650    1.0973   -0.2201 H   0  0  0  0  0  0  0  0  0  0  0  0
   -1.0034    3.2851   -0.6915 S   0  0  0  0  0  0  0  0  0  0  0  0
   -0.5039    3.4002    1.0741 C   0  0  0  0  0  0  0  0  0  0  0  0
    0.4674    2.9226    1.2337 H   0  0  0  0  0  0  0  0  0  0  0  0
   -0.4257    4.4501    1.3719 H   0  0  0  0  0  0  0  0  0  0  0  0
   -1.2458    2.9111    1.7116 H   0  0  0  0  0  0  0  0  0  0  0  0
    0.7104   -0.2509    1.3410 C   0  0  0  0  0  0  0  0  0  0  0  0
    1.9107   -0.2015    1.5748 O   0  0  0  0  0  0  0  0  0  0  0  0
   -0.1743    0.2469    2.2812 N   0  0  0  0  0  0  0  0  0  0  0  0
   -1.1575    0.0875    2.0886 H   0  0  0  0  0  0  0  0  0  0  0  0
    0.2274    0.5637    3.6461 C   0  0  0  0  0  0  0  0  0  0  0  0
    1.0122    1.3275    3.6485 H   0  0  0  0  0  0  0  0  0  0  0  0
   -0.6264    0.9469    4.2128 H   0  0  0  0  0  0  0  0  0  0  0  0
    0.6066   -0.3317    4.1500 H   0  0  0  0  0  0  0  0  0  0  0  0
  1  2  1  0  0  0  0
  2  3  1  0  0  0  0
  2  4  1  0  0  0  0
  2  5  1  0  0  0  0
  5  6  2  0  0  0  0
  5  7  1  0  0  0  0
  7  8  1  0  0  0  0
  7  9  1  0  0  0  0
  9 10  1  0  0  0  0
  9 11  1  0  0  0  0
  9 22  1  0  0  0  0
 11 12  1  0  0  0  0
 11 13  1  0  0  0  0
 11 14  1  0  0  0  0
 14 15  1  0  0  0  0
 14 16  1  0  0  0  0
 14 17  1  0  0  0  0
 17 18  1  0  0  0  0
 18 19  1  0  0  0  0
 18 20  1  0  0  0  0
 18 21  1  0  0  0  0
 22 23  2  0  0  0  0
 22 24  1  0  0  0  0
 24 25  1  0  0  0  0
 24 26  1  0  0  0  0
 26 27  1  0  0  0  0
 26 28  1  0  0  0  0
 26 29  1  0  0  0  0
M  END
$$$$

  -OEChem-04042216023D

 29 28  0     1  0  0  0  0  0999 V2000
   -2.6159   -4.1806    0.6486 H   0  0  0  0  0  0  0  0  0  0  0  0
   -2.6129   -3.2034    0.1572 C   0  0  0  0  0  0  0  0  0  0  0  0
   -3.4509   -2.6154    0.5394 H   0  0  0  0  0  0  0  0  0  0  0  0
   -2.7395   -3.3522   -0.9178 H   0  0  0  0  0  0  0  0  0  0  0  0
   -1.3051   -2.4852    0.4323 C   0  0  0  0  0  0  0  0  0  0  0  0
   -0.4801   -2.9894    1.1713 O   0  0  0  0  0  0  0  0  0  0  0  0
   -1.0634   -1.2566   -0.1514 N   0  0  0  0  0  0  0  0  0  0  0  0
   -1.7378   -0.9569   -0.8486 H   0  0  0  0  0  0  0  0  0  0  0  0
    0.2425   -0.5624   -0.1111 C   0  0  1  0  0  0  0  0  0  0  0  0
    0.9988   -1.2205   -0.5537 H   0  0  0  0  0  0  0  0  0  0  0  0
    0.2120    0.7539   -0.9235 C   0  0  0  0  0  0  0  0  0  0  0  0
    0.9665    1.4374   -0.5209 H   0  0  0  0  0  0  0  0  0  0  0  0
    0.5127    0.5377   -1.9536 H   0  0  0  0  0  0  0  0  0  0  0  0
   -1.1594    1.4493   -0.9719 C   0  0  0  0  0  0  0  0  0  0  0  0
   -1.7411    1.0678   -1.8169 H   0  0  0  0  0  0  0  0  0  0  0  0
   -1.7226    1.2555   -0.0540 H   0  0  0  0  0  0  0  0  0  0  0  0
   -0.9548    3.2681   -1.1257 S   0  0  0  0  0  0  0  0  0  0  0  0
   -0.3887    3.7517    0.5562 C   0  0  0  0  0  0  0  0  0  0  0  0
    0.5694    3.2807    0.7943 H   0  0  0  0  0  0  0  0  0  0  0  0
   -0.2631    4.8373    0.6095 H   0  0  0  0  0  0  0  0  0  0  0  0
   -1.1243    3.4477    1.3064 H   0  0  0  0  0  0  0  0  0  0  0  0
    0.7328   -0.2472    1.3227 C   0  0  0  0  0  0  0  0  0  0  0  0
    1.9334   -0.2124    1.5576 O   0  0  0  0  0  0  0  0  0  0  0  0
   -0.1463    0.2799    2.2524 N   0  0  0  0  0  0  0  0  0  0  0  0
   -1.1302    0.1182    2.0661 H   0  0  0  0  0  0  0  0  0  0  0  0
    0.2586    0.6119    3.6126 C   0  0  0  0  0  0  0  0  0  0  0  0
    1.0564    1.3621    3.6038 H   0  0  0  0  0  0  0  0  0  0  0  0
   -0.5894    1.0189    4.1713 H   0  0  0  0  0  0  0  0  0  0  0  0
    0.6212   -0.2817    4.1317 H   0  0  0  0  0  0  0  0  0  0  0  0
  1  2  1  0  0  0  0
  2  3  1  0  0  0  0
  2  4  1  0  0  0  0
  2  5  1  0  0  0  0
  5  6  2  0  0  0  0
  5  7  1  0  0  0  0
  7  8  1  0  0  0  0
  7  9  1  0  0  0  0
  9 10  1  0  0  0  0
  9 11  1  0  0  0  0
  9 22  1  0  0  0  0
 11 12  1  0  0  0  0
 11 13  1  0  0  0  0
 11 14  1  0  0  0  0
 14 15  1  0  0  0  0
 14 16  1  0  0  0  0
 14 17  1  0  0  0  0
 17 18  1  0  0  0  0
 18 19  1  0  0  0  0
 18 20  1  0  0  0  0
 18 21  1  0  0  0  0
 22 23  2  0  0  0  0
 22 24  1  0  0  0  0
 24 25  1  0  0  0  0
 24 26  1  0  0  0  0
 26 27  1  0  0  0  0
 26 28  1  0  0  0  0
 26 29  1  0  0  0  0
M  END
$$$$

  -OEChem-04042216023D

 29 28  0     1  0  0  0  0  0999 V2000
   -2.6246   -4.1757    0.6674 H   0  0  0  0  0  0  0  0  0  0  0  0
   -2.6173   -3.2059    0.1613 C   0  0  0  0  0  0  0  0  0  0  0  0
   -3.4593   -2.6129    0.5261 H   0  0  0  0  0  0  0  0  0  0  0  0
   -2.7330   -3.3709   -0.9127 H   0  0  0  0  0  0  0  0  0  0  0  0
   -1.3123   -2.4838    0.4389 C   0  0  0  0  0  0  0  0  0  0  0  0
   -0.4861   -2.9883    1.1763 O   0  0  0  0  0  0  0  0  0  0  0  0
   -1.0727   -1.2540   -0.1429 N   0  0  0  0  0  0  0  0  0  0  0  0
   -1.7454   -0.9573   -0.8426 H   0  0  0  0  0  0  0  0  0  0  0  0
    0.2340   -0.5615   -0.1050 C   0  0  1  0  0  0  0  0  0  0  0  0
    0.9867   -1.2233   -0.5487 H   0  0  0  0  0  0  0  0  0  0  0  0
    0.2064    0.7514   -0.9234 C   0  0  0  0  0  0  0  0  0  0  0  0
    0.9568    1.4398   -0.5216 H   0  0  0  0  0  0  0  0  0  0  0  0
    0.5067    0.5280   -1.9522 H   0  0  0  0  0  0  0  0  0  0  0  0
   -1.1644    1.4428   -0.9734 C   0  0  0  0  0  0  0  0  0  0  0  0
   -1.8347    0.8970   -1.6443 H   0  0  0  0  0  0  0  0  0  0  0  0
   -1.6164    1.4604    0.0232 H   0  0  0  0  0  0  0  0  0  0  0  0
   -0.9916    3.1709   -1.5709 S   0  0  0  0  0  0  0  0  0  0  0  0
   -0.2695    4.0347   -0.1172 C   0  0  0  0  0  0  0  0  0  0  0  0
    0.7274    3.6455    0.1087 H   0  0  0  0  0  0  0  0  0  0  0  0
   -0.1840    5.1057   -0.3239 H   0  0  0  0  0  0  0  0  0  0  0  0
   -0.9074    3.8983    0.7608 H   0  0  0  0  0  0  0  0  0  0  0  0
    0.7324   -0.2488    1.3266 C   0  0  0  0  0  0  0  0  0  0  0  0
    1.9346   -0.2168    1.5539 O   0  0  0  0  0  0  0  0  0  0  0  0
   -0.1404    0.2780    2.2622 N   0  0  0  0  0  0  0  0  0  0  0  0
   -1.1259    0.1204    2.0810 H   0  0  0  0  0  0  0  0  0  0  0  0
    0.2731    0.6104    3.6197 C   0  0  0  0  0  0  0  0  0  0  0  0
    1.0678    1.3638    3.6055 H   0  0  0  0  0  0  0  0  0  0  0  0
   -0.5726    1.0138    4.1845 H   0  0  0  0  0  0  0  0  0  0  0  0
    0.6430   -0.2819    4.1360 H   0  0  0  0  0  0  0  0  0  0  0  0
  1  2  1  0  0  0  0
  2  3  1  0  0  0  0
  2  4  1  0  0  0  0
  2  5  1  0  0  0  0
  5  6  2  0  0  0  0
  5  7  1  0  0  0  0
  7  8  1  0  0  0  0
  7  9  1  0  0  0  0
  9 10  1  0  0  0  0
  9 11  1  0  0  0  0
  9 22  1  0  0  0  0
 11 12  1  0  0  0  0
 11 13  1  0  0  0  0
 11 14  1  0  0  0  0
 14 15  1  0  0  0  0
 14 16  1  0  0  0  0
 14 17  1  0  0  0  0
 17 18  1  0  0  0  0
 18 19  1  0  0  0  0
 18 20  1  0  0  0  0
 18 21  1  0  0  0  0
 22 23  2  0  0  0  0
 22 24  1  0  0  0  0
 24 25  1  0  0  0  0
 24 26  1  0  0  0  0
 26 27  1  0  0  0  0
 26 28  1  0  0  0  0
 26 29  1  0  0  0  0
M  END
$$$$

  -OEChem-04042216023D

 29 28  0     1  0  0  0  0  0999 V2000
   -2.6180   -4.1749    0.6252 H   0  0  0  0  0  0  0  0  0  0  0  0
   -2.6157   -3.1961    0.1369 C   0  0  0  0  0  0  0  0  0  0  0  0
   -3.4607   -2.6142    0.5125 H   0  0  0  0  0  0  0  0  0  0  0  0
   -2.7305   -3.3419   -0.9398 H   0  0  0  0  0  0  0  0  0  0  0  0
   -1.3148   -2.4719    0.4280 C   0  0  0  0  0  0  0  0  0  0  0  0
   -0.4891   -2.9807    1.1632 O   0  0  0  0  0  0  0  0  0  0  0  0
   -1.0808   -1.2311   -0.1323 N   0  0  0  0  0  0  0  0  0  0  0  0
   -1.7504   -0.9284   -0.8332 H   0  0  0  0  0  0  0  0  0  0  0  0
    0.2210   -0.5337   -0.0802 C   0  0  1  0  0  0  0  0  0  0  0  0
    0.9732   -1.1910   -0.5311 H   0  0  0  0  0  0  0  0  0  0  0  0
    0.1818    0.7697   -0.9062 C   0  0  0  0  0  0  0  0  0  0  0  0
    1.0766    1.3589   -0.6809 H   0  0  0  0  0  0  0  0  0  0  0  0
    0.2294    0.5069   -1.9679 H   0  0  0  0  0  0  0  0  0  0  0  0
   -1.0737    1.6272   -0.6834 C   0  0  0  0  0  0  0  0  0  0  0  0
   -1.9724    1.0676   -0.9556 H   0  0  0  0  0  0  0  0  0  0  0  0
   -1.1574    1.9120    0.3697 H   0  0  0  0  0  0  0  0  0  0  0  0
   -1.0010    3.1431   -1.7182 S   0  0  0  0  0  0  0  0  0  0  0  0
    0.2814    4.1566   -0.8775 C   0  0  0  0  0  0  0  0  0  0  0  0
    1.2563    3.6636   -0.9269 H   0  0  0  0  0  0  0  0  0  0  0  0
    0.3626    5.1334   -1.3636 H   0  0  0  0  0  0  0  0  0  0  0  0
    0.0169    4.3100    0.1730 H   0  0  0  0  0  0  0  0  0  0  0  0
    0.7304   -0.2356    1.3502 C   0  0  0  0  0  0  0  0  0  0  0  0
    1.9352   -0.1930    1.5621 O   0  0  0  0  0  0  0  0  0  0  0  0
   -0.1328    0.2753    2.3032 N   0  0  0  0  0  0  0  0  0  0  0  0
   -1.1194    0.1082    2.1353 H   0  0  0  0  0  0  0  0  0  0  0  0
    0.2976    0.5930    3.6592 C   0  0  0  0  0  0  0  0  0  0  0  0
    1.0918    1.3471    3.6438 H   0  0  0  0  0  0  0  0  0  0  0  0
   -0.5411    0.9898    4.2390 H   0  0  0  0  0  0  0  0  0  0  0  0
    0.6741   -0.3049    4.1605 H   0  0  0  0  0  0  0  0  0  0  0  0
  1  2  1  0  0  0  0
  2  3  1  0  0  0  0
  2  4  1  0  0  0  0
  2  5  1  0  0  0  0
  5  6  2  0  0  0  0
  5  7  1  0  0  0  0
  7  8  1  0  0  0  0
  7  9  1  0  0  0  0
  9 10  1  0  0  0  0
  9 11  1  0  0  0  0
  9 22  1  0  0  0  0
 11 12  1  0  0  0  0
 11 13  1  0  0  0  0
 11 14  1  0  0  0  0
 14 15  1  0  0  0  0
 14 16  1  0  0  0  0
 14 17  1  0  0  0  0
 17 18  1  0  0  0  0
 18 19  1  0  0  0  0
 18 20  1  0  0  0  0
 18 21  1  0  0  0  0
 22 23  2  0  0  0  0
 22 24  1  0  0  0  0
 24 25  1  0  0  0  0
 24 26  1  0  0  0  0
 26 27  1  0  0  0  0
 26 28  1  0  0  0  0
 26 29  1  0  0  0  0
M  END
$$$$

  -OEChem-04042216023D

 29 28  0     1  0  0  0  0  0999 V2000
   -2.5846   -4.1961    0.6291 H   0  0  0  0  0  0  0  0  0  0  0  0
   -2.5907   -3.2208    0.1339 C   0  0  0  0  0  0  0  0  0  0  0  0
   -3.4456   -2.6467    0.4987 H   0  0  0  0  0  0  0  0  0  0  0  0
   -2.6957   -3.3755   -0.9426 H   0  0  0  0  0  0  0  0  0  0  0  0
   -1.3014   -2.4778    0.4285 C   0  0  0  0  0  0  0  0  0  0  0  0
   -0.4650   -2.9785    1.1573 O   0  0  0  0  0  0  0  0  0  0  0  0
   -1.0894   -1.2308   -0.1266 N   0  0  0  0  0  0  0  0  0  0  0  0
   -1.7636   -0.9395   -0.8282 H   0  0  0  0  0  0  0  0  0  0  0  0
    0.2033   -0.5170   -0.0836 C   0  0  1  0  0  0  0  0  0  0  0  0
    0.9595   -1.1583   -0.5504 H   0  0  0  0  0  0  0  0  0  0  0  0
    0.1411    0.8023   -0.8844 C   0  0  0  0  0  0  0  0  0  0  0  0
    1.0367    1.3975   -0.6769 H   0  0  0  0  0  0  0  0  0  0  0  0
    0.1668    0.5428   -1.9477 H   0  0  0  0  0  0  0  0  0  0  0  0
   -1.1148    1.6560   -0.6372 C   0  0  0  0  0  0  0  0  0  0  0  0
   -2.0191    1.0433   -0.6596 H   0  0  0  0  0  0  0  0  0  0  0  0
   -1.0568    2.1314    0.3473 H   0  0  0  0  0  0  0  0  0  0  0  0
   -1.2800    2.9363   -1.9444 S   0  0  0  0  0  0  0  0  0  0  0  0
    0.1346    4.0579   -1.6011 C   0  0  0  0  0  0  0  0  0  0  0  0
    1.0839    3.5346   -1.7471 H   0  0  0  0  0  0  0  0  0  0  0  0
    0.1039    4.9163   -2.2788 H   0  0  0  0  0  0  0  0  0  0  0  0
    0.0876    4.4239   -0.5711 H   0  0  0  0  0  0  0  0  0  0  0  0
    0.7205   -0.2223    1.3442 C   0  0  0  0  0  0  0  0  0  0  0  0
    1.9264   -0.1666    1.5465 O   0  0  0  0  0  0  0  0  0  0  0  0
   -0.1423    0.2709    2.3068 N   0  0  0  0  0  0  0  0  0  0  0  0
   -1.1281    0.0928    2.1460 H   0  0  0  0  0  0  0  0  0  0  0  0
    0.2956    0.5974    3.6584 C   0  0  0  0  0  0  0  0  0  0  0  0
    1.0785    1.3628    3.6339 H   0  0  0  0  0  0  0  0  0  0  0  0
   -0.5432    0.9831    4.2453 H   0  0  0  0  0  0  0  0  0  0  0  0
    0.6903   -0.2936    4.1582 H   0  0  0  0  0  0  0  0  0  0  0  0
  1  2  1  0  0  0  0
  2  3  1  0  0  0  0
  2  4  1  0  0  0  0
  2  5  1  0  0  0  0
  5  6  2  0  0  0  0
  5  7  1  0  0  0  0
  7  8  1  0  0  0  0
  7  9  1  0  0  0  0
  9 10  1  0  0  0  0
  9 11  1  0  0  0  0
  9 22  1  0  0  0  0
 11 12  1  0  0  0  0
 11 13  1  0  0  0  0
 11 14  1  0  0  0  0
 14 15  1  0  0  0  0
 14 16  1  0  0  0  0
 14 17  1  0  0  0  0
 17 18  1  0  0  0  0
 18 19  1  0  0  0  0
 18 20  1  0  0  0  0
 18 21  1  0  0  0  0
 22 23  2  0  0  0  0
 22 24  1  0  0  0  0
 24 25  1  0  0  0  0
 24 26  1  0  0  0  0
 26 27  1  0  0  0  0
 26 28  1  0  0  0  0
 26 29  1  0  0  0  0
M  END
$$$$

  -OEChem-04042216023D

 29 28  0     1  0  0  0  0  0999 V2000
   -2.5795   -4.1861    0.6460 H   0  0  0  0  0  0  0  0  0  0  0  0
   -2.5826   -3.2185    0.1359 C   0  0  0  0  0  0  0  0  0  0  0  0
   -3.4349   -2.6359    0.4938 H   0  0  0  0  0  0  0  0  0  0  0  0
   -2.6900   -3.3887   -0.9380 H   0  0  0  0  0  0  0  0  0  0  0  0
   -1.2897   -2.4758    0.4169 C   0  0  0  0  0  0  0  0  0  0  0  0
   -0.4432   -2.9796    1.1317 O   0  0  0  0  0  0  0  0  0  0  0  0
   -1.0871   -1.2236   -0.1294 N   0  0  0  0  0  0  0  0  0  0  0  0
   -1.7711   -0.9254   -0.8192 H   0  0  0  0  0  0  0  0  0  0  0  0
    0.2008   -0.5003   -0.0898 C   0  0  1  0  0  0  0  0  0  0  0  0
    0.9594   -1.1289   -0.5702 H   0  0  0  0  0  0  0  0  0  0  0  0
    0.1196    0.8313   -0.8683 C   0  0  0  0  0  0  0  0  0  0  0  0
    1.0151    1.4318   -0.6745 H   0  0  0  0  0  0  0  0  0  0  0  0
    0.1311    0.5758   -1.9328 H   0  0  0  0  0  0  0  0  0  0  0  0
   -1.1374    1.6806   -0.5985 C   0  0  0  0  0  0  0  0  0  0  0  0
   -2.0003    1.0592   -0.3504 H   0  0  0  0  0  0  0  0  0  0  0  0
   -0.9563    2.3422    0.2550 H   0  0  0  0  0  0  0  0  0  0  0  0
   -1.5774    2.6690   -2.0834 S   0  0  0  0  0  0  0  0  0  0  0  0
   -0.1328    3.7916   -2.2550 C   0  0  0  0  0  0  0  0  0  0  0  0
    0.7756    3.2190   -2.4630 H   0  0  0  0  0  0  0  0  0  0  0  0
   -0.2982    4.4921   -3.0791 H   0  0  0  0  0  0  0  0  0  0  0  0
    0.0142    4.3639   -1.3342 H   0  0  0  0  0  0  0  0  0  0  0  0
    0.7237   -0.2128    1.3370 C   0  0  0  0  0  0  0  0  0  0  0  0
    1.9300   -0.1435    1.5327 O   0  0  0  0  0  0  0  0  0  0  0  0
   -0.1391    0.2666    2.3065 N   0  0  0  0  0  0  0  0  0  0  0  0
   -1.1240    0.0819    2.1480 H   0  0  0  0  0  0  0  0  0  0  0  0
    0.3006    0.5857    3.6592 C   0  0  0  0  0  0  0  0  0  0  0  0
    1.0711    1.3637    3.6393 H   0  0  0  0  0  0  0  0  0  0  0  0
   -0.5414    0.9516    4.2545 H   0  0  0  0  0  0  0  0  0  0  0  0
    0.7118   -0.3043    4.1475 H   0  0  0  0  0  0  0  0  0  0  0  0
  1  2  1  0  0  0  0
  2  3  1  0  0  0  0
  2  4  1  0  0  0  0
  2  5  1  0  0  0  0
  5  6  2  0  0  0  0
  5  7  1  0  0  0  0
  7  8  1  0  0  0  0
  7  9  1  0  0  0  0
  9 10  1  0  0  0  0
  9 11  1  0  0  0  0
  9 22  1  0  0  0  0
 11 12  1  0  0  0  0
 11 13  1  0  0  0  0
 11 14  1  0  0  0  0
 14 15  1  0  0  0  0
 14 16  1  0  0  0  0
 14 17  1  0  0  0  0
 17 18  1  0  0  0  0
 18 19  1  0  0  0  0
 18 20  1  0  0  0  0
 18 21  1  0  0  0  0
 22 23  2  0  0  0  0
 22 24  1  0  0  0  0
 24 25  1  0  0  0  0
 24 26  1  0  0  0  0
 26 27  1  0  0  0  0
 26 28  1  0  0  0  0
 26 29  1  0  0  0  0
M  END
$$$$

  -OEChem-04042216023D

 29 28  0     1  0  0  0  0  0999 V2000
   -2.6043   -4.1751    0.6257 H   0  0  0  0  0  0  0  0  0  0  0  0
   -2.6039   -3.1973    0.1356 C   0  0  0  0  0  0  0  0  0  0  0  0
   -3.4479   -2.6146    0.5125 H   0  0  0  0  0  0  0  0  0  0  0  0
   -2.7220   -3.3449   -0.9408 H   0  0  0  0  0  0  0  0  0  0  0  0
   -1.3028   -2.4712    0.4210 C   0  0  0  0  0  0  0  0  0  0  0  0
   -0.4632   -2.9859    1.1364 O   0  0  0  0  0  0  0  0  0  0  0  0
   -1.0826   -1.2230   -0.1266 N   0  0  0  0  0  0  0  0  0  0  0  0
   -1.7693   -0.9068   -0.8064 H   0  0  0  0  0  0  0  0  0  0  0  0
    0.2130   -0.5138   -0.0862 C   0  0  1  0  0  0  0  0  0  0  0  0
    0.9655   -1.1511   -0.5647 H   0  0  0  0  0  0  0  0  0  0  0  0
    0.1364    0.8121   -0.8732 C   0  0  0  0  0  0  0  0  0  0  0  0
    1.0334    1.4116   -0.6819 H   0  0  0  0  0  0  0  0  0  0  0  0
    0.1543    0.5485   -1.9355 H   0  0  0  0  0  0  0  0  0  0  0  0
   -1.1190    1.6688   -0.6063 C   0  0  0  0  0  0  0  0  0  0  0  0
   -1.8950    1.1058   -0.0828 H   0  0  0  0  0  0  0  0  0  0  0  0
   -0.8497    2.5109    0.0398 H   0  0  0  0  0  0  0  0  0  0  0  0
   -1.8289    2.2982   -2.1803 S   0  0  0  0  0  0  0  0  0  0  0  0
   -0.5175    3.4406   -2.7729 C   0  0  0  0  0  0  0  0  0  0  0  0
    0.4152    2.8969   -2.9490 H   0  0  0  0  0  0  0  0  0  0  0  0
   -0.8282    3.9120   -3.7100 H   0  0  0  0  0  0  0  0  0  0  0  0
   -0.3339    4.2243   -2.0319 H   0  0  0  0  0  0  0  0  0  0  0  0
    0.7386   -0.2274    1.3396 C   0  0  0  0  0  0  0  0  0  0  0  0
    1.9455   -0.1716    1.5358 O   0  0  0  0  0  0  0  0  0  0  0  0
   -0.1198    0.2647    2.3066 N   0  0  0  0  0  0  0  0  0  0  0  0
   -1.1064    0.0887    2.1481 H   0  0  0  0  0  0  0  0  0  0  0  0
    0.3214    0.5859    3.6583 C   0  0  0  0  0  0  0  0  0  0  0  0
    1.1058    1.3499    3.6353 H   0  0  0  0  0  0  0  0  0  0  0  0
   -0.5159    0.9714    4.2477 H   0  0  0  0  0  0  0  0  0  0  0  0
    0.7144   -0.3077    4.1545 H   0  0  0  0  0  0  0  0  0  0  0  0
  1  2  1  0  0  0  0
  2  3  1  0  0  0  0
  2  4  1  0  0  0  0
  2  5  1  0  0  0  0
  5  6  2  0  0  0  0
  5  7  1  0  0  0  0
  7  8  1  0  0  0  0
  7  9  1  0  0  0  0
  9 10  1  0  0  0  0
  9 11  1  0  0  0  0
  9 22  1  0  0  0  0
 11 12  1  0  0  0  0
 11 13  1  0  0  0  0
 11 14  1  0  0  0  0
 14 15  1  0  0  0  0
 14 16  1  0  0  0  0
 14 17  1  0  0  0  0
 17 18  1  0  0  0  0
 18 19  1  0  0  0  0
 18 20  1  0  0  0  0
 18 21  1  0  0  0  0
 22 23  2  0  0  0  0
 22 24  1  0  0  0  0
 24 25  1  0  0  0  0
 24 26  1  0  0  0  0
 26 27  1  0  0  0  0
 26 28  1  0  0  0  0
 26 29  1  0  0  0  0
M  END
$$$$

  -OEChem-04042216023D

 29 28  0     1  0  0  0  0  0999 V2000
   -2.6459   -4.1424    0.6272 H   0  0  0  0  0  0  0  0  0  0  0  0
   -2.6301   -3.1618    0.1429 C   0  0  0  0  0  0  0  0  0  0  0  0
   -3.4598   -2.5648    0.5290 H   0  0  0  0  0  0  0  0  0  0  0  0
   -2.7590   -3.3002   -0.9332 H   0  0  0  0  0  0  0  0  0  0  0  0
   -1.3131   -2.4628    0.4226 C   0  0  0  0  0  0  0  0  0  0  0  0
   -0.4847   -2.9910    1.1414 O   0  0  0  0  0  0  0  0  0  0  0  0
   -1.0666   -1.2211   -0.1279 N   0  0  0  0  0  0  0  0  0  0  0  0
   -1.7512   -0.8810   -0.7994 H   0  0  0  0  0  0  0  0  0  0  0  0
    0.2375   -0.5296   -0.0756 C   0  0  1  0  0  0  0  0  0  0  0  0
    0.9879   -1.1792   -0.5405 H   0  0  0  0  0  0  0  0  0  0  0  0
    0.1729    0.7812   -0.8858 C   0  0  0  0  0  0  0  0  0  0  0  0
    1.0623    1.3841   -0.6709 H   0  0  0  0  0  0  0  0  0  0  0  0
    0.2207    0.5168   -1.9465 H   0  0  0  0  0  0  0  0  0  0  0  0
   -1.0886    1.6321   -0.6349 C   0  0  0  0  0  0  0  0  0  0  0  0
   -1.7346    1.1853    0.1255 H   0  0  0  0  0  0  0  0  0  0  0  0
   -0.7871    2.6127   -0.2522 H   0  0  0  0  0  0  0  0  0  0  0  0
   -2.0462    1.8635   -2.1869 S   0  0  0  0  0  0  0  0  0  0  0  0
   -0.9599    2.9851   -3.1561 C   0  0  0  0  0  0  0  0  0  0  0  0
    0.0082    2.5132   -3.3472 H   0  0  0  0  0  0  0  0  0  0  0  0
   -1.4276    3.2213   -4.1167 H   0  0  0  0  0  0  0  0  0  0  0  0
   -0.7943    3.9183   -2.6095 H   0  0  0  0  0  0  0  0  0  0  0  0
    0.7536   -0.2406    1.3535 C   0  0  0  0  0  0  0  0  0  0  0  0
    1.9595   -0.1994    1.5598 O   0  0  0  0  0  0  0  0  0  0  0  0
   -0.1055    0.2693    2.3107 N   0  0  0  0  0  0  0  0  0  0  0  0
   -1.0925    0.1008    2.1467 H   0  0  0  0  0  0  0  0  0  0  0  0
    0.3293    0.5817    3.6663 C   0  0  0  0  0  0  0  0  0  0  0  0
    1.1257    1.3331    3.6510 H   0  0  0  0  0  0  0  0  0  0  0  0
   -0.5065    0.9799    4.2492 H   0  0  0  0  0  0  0  0  0  0  0  0
    0.7040   -0.3188    4.1645 H   0  0  0  0  0  0  0  0  0  0  0  0
  1  2  1  0  0  0  0
  2  3  1  0  0  0  0
  2  4  1  0  0  0  0
  2  5  1  0  0  0  0
  5  6  2  0  0  0  0
  5  7  1  0  0  0  0
  7  8  1  0  0  0  0
  7  9  1  0  0  0  0
  9 10  1  0  0  0  0
  9 11  1  0  0  0  0
  9 22  1  0  0  0  0
 11 12  1  0  0  0  0
 11 13  1  0  0  0  0
 11 14  1  0  0  0  0
 14 15  1  0  0  0  0
 14 16  1  0  0  0  0
 14 17  1  0  0  0  0
 17 18  1  0  0  0  0
 18 19  1  0  0  0  0
 18 20  1  0  0  0  0
 18 21  1  0  0  0  0
 22 23  2  0  0  0  0
 22 24  1  0  0  0  0
 24 25  1  0  0  0  0
 24 26  1  0  0  0  0
 26 27  1  0  0  0  0
 26 28  1  0  0  0  0
 26 29  1  0  0  0  0
M  END
$$$$

  -OEChem-04042216023D

 29 28  0     1  0  0  0  0  0999 V2000
   -2.6809   -4.1110    0.6239 H   0  0  0  0  0  0  0  0  0  0  0  0
   -2.6479   -3.1288    0.1438 C   0  0  0  0  0  0  0  0  0  0  0  0
   -3.4641   -2.5174    0.5356 H   0  0  0  0  0  0  0  0  0  0  0  0
   -2.7838   -3.2596   -0.9325 H   0  0  0  0  0  0  0  0  0  0  0  0
   -1.3164   -2.4570    0.4211 C   0  0  0  0  0  0  0  0  0  0  0  0
   -0.4951   -3.0024    1.1355 O   0  0  0  0  0  0  0  0  0  0  0  0
   -1.0479   -1.2188   -0.1255 N   0  0  0  0  0  0  0  0  0  0  0  0
   -1.7358   -0.8498   -0.7795 H   0  0  0  0  0  0  0  0  0  0  0  0
    0.2601   -0.5384   -0.0570 C   0  0  1  0  0  0  0  0  0  0  0  0
    1.0101   -1.1980   -0.5080 H   0  0  0  0  0  0  0  0  0  0  0  0
    0.2069    0.7564   -0.8925 C   0  0  0  0  0  0  0  0  0  0  0  0
    1.0847    1.3658   -0.6506 H   0  0  0  0  0  0  0  0  0  0  0  0
    0.2877    0.4928   -1.9511 H   0  0  0  0  0  0  0  0  0  0  0  0
   -1.0645    1.5958   -0.6647 C   0  0  0  0  0  0  0  0  0  0  0  0
   -1.5672    1.3144    0.2649 H   0  0  0  0  0  0  0  0  0  0  0  0
   -0.7850    2.6499   -0.5677 H   0  0  0  0  0  0  0  0  0  0  0  0
   -2.2221    1.4258   -2.0835 S   0  0  0  0  0  0  0  0  0  0  0  0
   -1.4114    2.4376   -3.3860 C   0  0  0  0  0  0  0  0  0  0  0  0
   -0.4254    2.0329   -3.6315 H   0  0  0  0  0  0  0  0  0  0  0  0
   -2.0228    2.4382   -4.2934 H   0  0  0  0  0  0  0  0  0  0  0  0
   -1.2927    3.4701   -3.0444 H   0  0  0  0  0  0  0  0  0  0  0  0
    0.7656   -0.2489    1.3759 C   0  0  0  0  0  0  0  0  0  0  0  0
    1.9701   -0.2183    1.5918 O   0  0  0  0  0  0  0  0  0  0  0  0
   -0.0951    0.2709    2.3264 N   0  0  0  0  0  0  0  0  0  0  0  0
   -1.0826    0.1115    2.1560 H   0  0  0  0  0  0  0  0  0  0  0  0
    0.3339    0.5808    3.6846 C   0  0  0  0  0  0  0  0  0  0  0  0
    1.1353    1.3271    3.6739 H   0  0  0  0  0  0  0  0  0  0  0  0
   -0.5026    0.9841    4.2630 H   0  0  0  0  0  0  0  0  0  0  0  0
    0.7003   -0.3220    4.1849 H   0  0  0  0  0  0  0  0  0  0  0  0
  1  2  1  0  0  0  0
  2  3  1  0  0  0  0
  2  4  1  0  0  0  0
  2  5  1  0  0  0  0
  5  6  2  0  0  0  0
  5  7  1  0  0  0  0
  7  8  1  0  0  0  0
  7  9  1  0  0  0  0
  9 10  1  0  0  0  0
  9 11  1  0  0  0  0
  9 22  1  0  0  0  0
 11 12  1  0  0  0  0
 11 13  1  0  0  0  0
 11 14  1  0  0  0  0
 14 15  1  0  0  0  0
 14 16  1  0  0  0  0
 14 17  1  0  0  0  0
 17 18  1  0  0  0  0
 18 19  1  0  0  0  0
 18 20  1  0  0  0  0
 18 21  1  0  0  0  0
 22 23  2  0  0  0  0
 22 24  1  0  0  0  0
 24 25  1  0  0  0  0
 24 26  1  0  0  0  0
 26 27  1  0  0  0  0
 26 28  1  0  0  0  0
 26 29  1  0  0  0  0
M  END
$$$$

  -OEChem-04042216023D

 29 28  0     1  0  0  0  0  0999 V2000
   -2.6662   -4.1123    0.6589 H   0  0  0  0  0  0  0  0  0  0  0  0
   -2.6404   -3.1277    0.1833 C   0  0  0  0  0  0  0  0  0  0  0  0
   -3.4425   -2.5138    0.5999 H   0  0  0  0  0  0  0  0  0  0  0  0
   -2.8044   -3.2516   -0.8899 H   0  0  0  0  0  0  0  0  0  0  0  0
   -1.2985   -2.4648    0.4286 C   0  0  0  0  0  0  0  0  0  0  0  0
   -0.4595   -3.0211    1.1139 O   0  0  0  0  0  0  0  0  0  0  0  0
   -1.0387   -1.2246   -0.1168 N   0  0  0  0  0  0  0  0  0  0  0  0
   -1.7525   -0.8312   -0.7286 H   0  0  0  0  0  0  0  0  0  0  0  0
    0.2628   -0.5345   -0.0531 C   0  0  1  0  0  0  0  0  0  0  0  0
    1.0146   -1.1951   -0.4996 H   0  0  0  0  0  0  0  0  0  0  0  0
    0.2176    0.7565   -0.8974 C   0  0  0  0  0  0  0  0  0  0  0  0
    1.0939    1.3642   -0.6460 H   0  0  0  0  0  0  0  0  0  0  0  0
    0.3096    0.4919   -1.9543 H   0  0  0  0  0  0  0  0  0  0  0  0
   -1.0500    1.6047   -0.6914 C   0  0  0  0  0  0  0  0  0  0  0  0
   -1.4076    1.5220    0.3390 H   0  0  0  0  0  0  0  0  0  0  0  0
   -0.8060    2.6580   -0.8640 H   0  0  0  0  0  0  0  0  0  0  0  0
   -2.3837    1.1170   -1.8647 S   0  0  0  0  0  0  0  0  0  0  0  0
   -1.8176    1.8466   -3.4540 C   0  0  0  0  0  0  0  0  0  0  0  0
   -0.8659    1.4063   -3.7643 H   0  0  0  0  0  0  0  0  0  0  0  0
   -2.5587    1.6580   -4.2365 H   0  0  0  0  0  0  0  0  0  0  0  0
   -1.6878    2.9280   -3.3502 H   0  0  0  0  0  0  0  0  0  0  0  0
    0.7645   -0.2455    1.3810 C   0  0  0  0  0  0  0  0  0  0  0  0
    1.9683   -0.2090    1.6001 O   0  0  0  0  0  0  0  0  0  0  0  0
   -0.1019    0.2643    2.3317 N   0  0  0  0  0  0  0  0  0  0  0  0
   -1.0880    0.1001    2.1556 H   0  0  0  0  0  0  0  0  0  0  0  0
    0.3195    0.5607    3.6954 C   0  0  0  0  0  0  0  0  0  0  0  0
    1.1207    1.3076    3.6970 H   0  0  0  0  0  0  0  0  0  0  0  0
   -0.5208    0.9574    4.2731 H   0  0  0  0  0  0  0  0  0  0  0  0
    0.6838   -0.3471    4.1881 H   0  0  0  0  0  0  0  0  0  0  0  0
  1  2  1  0  0  0  0
  2  3  1  0  0  0  0
  2  4  1  0  0  0  0
  2  5  1  0  0  0  0
  5  6  2  0  0  0  0
  5  7  1  0  0  0  0
  7  8  1  0  0  0  0
  7  9  1  0  0  0  0
  9 10  1  0  0  0  0
  9 11  1  0  0  0  0
  9 22  1  0  0  0  0
 11 12  1  0  0  0  0
 11 13  1  0  0  0  0
 11 14  1  0  0  0  0
 14 15  1  0  0  0  0
 14 16  1  0  0  0  0
 14 17  1  0  0  0  0
 17 18  1  0  0  0  0
 18 19  1  0  0  0  0
 18 20  1  0  0  0  0
 18 21  1  0  0  0  0
 22 23  2  0  0  0  0
 22 24  1  0  0  0  0
 24 25  1  0  0  0  0
 24 26  1  0  0  0  0
 26 27  1  0  0  0  0
 26 28  1  0  0  0  0
 26 29  1  0  0  0  0
M  END
$$$$

  -OEChem-04042216023D

 29 28  0     1  0  0  0  0  0999 V2000
   -2.6248   -4.1308    0.7370 H   0  0  0  0  0  0  0  0  0  0  0  0
   -2.6153   -3.1516    0.2499 C   0  0  0  0  0  0  0  0  0  0  0  0
   -3.3939   -2.5286    0.6965 H   0  0  0  0  0  0  0  0  0  0  0  0
   -2.8301   -3.2856   -0.8129 H   0  0  0  0  0  0  0  0  0  0  0  0
   -1.2594   -2.4944    0.4252 C   0  0  0  0  0  0  0  0  0  0  0  0
   -0.3823   -3.0621    1.0509 O   0  0  0  0  0  0  0  0  0  0  0  0
   -1.0289   -1.2476   -0.1182 N   0  0  0  0  0  0  0  0  0  0  0  0
   -1.7867   -0.8308   -0.6562 H   0  0  0  0  0  0  0  0  0  0  0  0
    0.2562   -0.5294   -0.0709 C   0  0  1  0  0  0  0  0  0  0  0  0
    1.0158   -1.1769   -0.5233 H   0  0  0  0  0  0  0  0  0  0  0  0
    0.2113    0.7783   -0.8967 C   0  0  0  0  0  0  0  0  0  0  0  0
    1.0953    1.3748   -0.6452 H   0  0  0  0  0  0  0  0  0  0  0  0
    0.2985    0.5201   -1.9554 H   0  0  0  0  0  0  0  0  0  0  0  0
   -1.0404    1.6579   -0.7061 C   0  0  0  0  0  0  0  0  0  0  0  0
   -1.2442    1.7787    0.3618 H   0  0  0  0  0  0  0  0  0  0  0  0
   -0.8325    2.6548   -1.1081 H   0  0  0  0  0  0  0  0  0  0  0  0
   -2.5474    1.0020   -1.5443 S   0  0  0  0  0  0  0  0  0  0  0  0
   -2.1680    1.2423   -3.3264 C   0  0  0  0  0  0  0  0  0  0  0  0
   -1.3230    0.6173   -3.6290 H   0  0  0  0  0  0  0  0  0  0  0  0
   -3.0363    0.9687   -3.9336 H   0  0  0  0  0  0  0  0  0  0  0  0
   -1.9206    2.2897   -3.5237 H   0  0  0  0  0  0  0  0  0  0  0  0
    0.7549   -0.2418    1.3639 C   0  0  0  0  0  0  0  0  0  0  0  0
    1.9574   -0.1848    1.5854 O   0  0  0  0  0  0  0  0  0  0  0  0
   -0.1235    0.2404    2.3179 N   0  0  0  0  0  0  0  0  0  0  0  0
   -1.1079    0.0805    2.1297 H   0  0  0  0  0  0  0  0  0  0  0  0
    0.2866    0.5348    3.6852 C   0  0  0  0  0  0  0  0  0  0  0  0
    1.0764    1.2936    3.6948 H   0  0  0  0  0  0  0  0  0  0  0  0
   -0.5623    0.9153    4.2612 H   0  0  0  0  0  0  0  0  0  0  0  0
    0.6621   -0.3706    4.1740 H   0  0  0  0  0  0  0  0  0  0  0  0
  1  2  1  0  0  0  0
  2  3  1  0  0  0  0
  2  4  1  0  0  0  0
  2  5  1  0  0  0  0
  5  6  2  0  0  0  0
  5  7  1  0  0  0  0
  7  8  1  0  0  0  0
  7  9  1  0  0  0  0
  9 10  1  0  0  0  0
  9 11  1  0  0  0  0
  9 22  1  0  0  0  0
 11 12  1  0  0  0  0
 11 13  1  0  0  0  0
 11 14  1  0  0  0  0
 14 15  1  0  0  0  0
 14 16  1  0  0  0  0
 14 17  1  0  0  0  0
 17 18  1  0  0  0  0
 18 19  1  0  0  0  0
 18 20  1  0  0  0  0
 18 21  1  0  0  0  0
 22 23  2  0  0  0  0
 22 24  1  0  0  0  0
 24 25  1  0  0  0  0
 24 26  1  0  0  0  0
 26 27  1  0  0  0  0
 26 28  1  0  0  0  0
 26 29  1  0  0  0  0
M  END
$$$$

  -OEChem-04042216023D

 29 28  0     1  0  0  0  0  0999 V2000
   -2.5800   -4.1436    0.8132 H   0  0  0  0  0  0  0  0  0  0  0  0
   -2.5884   -3.1732    0.3087 C   0  0  0  0  0  0  0  0  0  0  0  0
   -3.3367   -2.5354    0.7853 H   0  0  0  0  0  0  0  0  0  0  0  0
   -2.8609   -3.3231   -0.7387 H   0  0  0  0  0  0  0  0  0  0  0  0
   -1.2196   -2.5261    0.3995 C   0  0  0  0  0  0  0  0  0  0  0  0
   -0.3045   -3.1087    0.9528 O   0  0  0  0  0  0  0  0  0  0  0  0
   -1.0198   -1.2725   -0.1404 N   0  0  0  0  0  0  0  0  0  0  0  0
   -1.8217   -0.8263   -0.5797 H   0  0  0  0  0  0  0  0  0  0  0  0
    0.2500   -0.5291   -0.1012 C   0  0  1  0  0  0  0  0  0  0  0  0
    1.0179   -1.1612   -0.5614 H   0  0  0  0  0  0  0  0  0  0  0  0
    0.2063    0.8006   -0.8970 C   0  0  0  0  0  0  0  0  0  0  0  0
    1.1045    1.3788   -0.6525 H   0  0  0  0  0  0  0  0  0  0  0  0
    0.2795    0.5477   -1.9584 H   0  0  0  0  0  0  0  0  0  0  0  0
   -1.0223    1.7223   -0.7224 C   0  0  0  0  0  0  0  0  0  0  0  0
   -1.0708    2.0404    0.3239 H   0  0  0  0  0  0  0  0  0  0  0  0
   -0.8635    2.6236   -1.3234 H   0  0  0  0  0  0  0  0  0  0  0  0
   -2.6604    1.0084   -1.1833 S   0  0  0  0  0  0  0  0  0  0  0  0
   -2.4588    0.6666   -2.9773 C   0  0  0  0  0  0  0  0  0  0  0  0
   -1.6970   -0.1014   -3.1390 H   0  0  0  0  0  0  0  0  0  0  0  0
   -3.4037    0.3127   -3.4006 H   0  0  0  0  0  0  0  0  0  0  0  0
   -2.1595    1.5773   -3.5051 H   0  0  0  0  0  0  0  0  0  0  0  0
    0.7414   -0.2455    1.3368 C   0  0  0  0  0  0  0  0  0  0  0  0
    1.9420   -0.1775    1.5659 O   0  0  0  0  0  0  0  0  0  0  0  0
   -0.1491    0.2101    2.2929 N   0  0  0  0  0  0  0  0  0  0  0  0
   -1.1333    0.0691    2.0879 H   0  0  0  0  0  0  0  0  0  0  0  0
    0.2473    0.5114    3.6627 C   0  0  0  0  0  0  0  0  0  0  0  0
    1.0333    1.2738    3.6775 H   0  0  0  0  0  0  0  0  0  0  0  0
   -0.6082    0.8902    4.2295 H   0  0  0  0  0  0  0  0  0  0  0  0
    0.6223   -0.3900    4.1588 H   0  0  0  0  0  0  0  0  0  0  0  0
  1  2  1  0  0  0  0
  2  3  1  0  0  0  0
  2  4  1  0  0  0  0
  2  5  1  0  0  0  0
  5  6  2  0  0  0  0
  5  7  1  0  0  0  0
  7  8  1  0  0  0  0
  7  9  1  0  0  0  0
  9 10  1  0  0  0  0
  9 11  1  0  0  0  0
  9 22  1  0  0  0  0
 11 12  1  0  0  0  0
 11 13  1  0  0  0  0
 11 14  1  0  0  0  0
 14 15  1  0  0  0  0
 14 16  1  0  0  0  0
 14 17  1  0  0  0  0
 17 18  1  0  0  0  0
 18 19  1  0  0  0  0
 18 20  1  0  0  0  0
 18 21  1  0  0  0  0
 22 23  2  0  0  0  0
 22 24  1  0  0  0  0
 24 25  1  0  0  0  0
 24 26  1  0  0  0  0
 26 27  1  0  0  0  0
 26 28  1  0  0  0  0
 26 29  1  0  0  0  0
M  END
$$$$

  -OEChem-04042216023D

 29 28  0     1  0  0  0  0  0999 V2000
   -2.4820   -4.2200    0.9254 H   0  0  0  0  0  0  0  0  0  0  0  0
   -2.5148   -3.2563    0.4093 C   0  0  0  0  0  0  0  0  0  0  0  0
   -3.2448   -2.6144    0.9083 H   0  0  0  0  0  0  0  0  0  0  0  0
   -2.8294   -3.4211   -0.6239 H   0  0  0  0  0  0  0  0  0  0  0  0
   -1.1460   -2.6033    0.4361 C   0  0  0  0  0  0  0  0  0  0  0  0
   -0.2063   -3.1772    0.9562 O   0  0  0  0  0  0  0  0  0  0  0  0
   -0.9738   -1.3568   -0.1292 N   0  0  0  0  0  0  0  0  0  0  0  0
   -1.8035   -0.9044   -0.5048 H   0  0  0  0  0  0  0  0  0  0  0  0
    0.2787   -0.5853   -0.0948 C   0  0  1  0  0  0  0  0  0  0  0  0
    1.0643   -1.2086   -0.5368 H   0  0  0  0  0  0  0  0  0  0  0  0
    0.2315    0.7427   -0.8960 C   0  0  0  0  0  0  0  0  0  0  0  0
    1.1371    1.3175   -0.6715 H   0  0  0  0  0  0  0  0  0  0  0  0
    0.2952    0.4631   -1.9520 H   0  0  0  0  0  0  0  0  0  0  0  0
   -0.9859    1.6921   -0.7684 C   0  0  0  0  0  0  0  0  0  0  0  0
   -0.8958    2.2100    0.1921 H   0  0  0  0  0  0  0  0  0  0  0  0
   -0.9101    2.4554   -1.5498 H   0  0  0  0  0  0  0  0  0  0  0  0
   -2.6784    0.9630   -0.8310 S   0  0  0  0  0  0  0  0  0  0  0  0
   -2.7713    0.3795   -2.5712 C   0  0  0  0  0  0  0  0  0  0  0  0
   -1.9962   -0.3670   -2.7696 H   0  0  0  0  0  0  0  0  0  0  0  0
   -3.7492   -0.0719   -2.7641 H   0  0  0  0  0  0  0  0  0  0  0  0
   -2.6334    1.2191   -3.2594 H   0  0  0  0  0  0  0  0  0  0  0  0
    0.7410   -0.2679    1.3456 C   0  0  0  0  0  0  0  0  0  0  0  0
    1.9354   -0.1847    1.5994 O   0  0  0  0  0  0  0  0  0  0  0  0
   -0.1756    0.1838    2.2785 N   0  0  0  0  0  0  0  0  0  0  0  0
   -1.1559    0.0688    2.0411 H   0  0  0  0  0  0  0  0  0  0  0  0
    0.1856    0.5314    3.6467 C   0  0  0  0  0  0  0  0  0  0  0  0
    0.9326    1.3322    3.6555 H   0  0  0  0  0  0  0  0  0  0  0  0
   -0.6959    0.8776    4.1946 H   0  0  0  0  0  0  0  0  0  0  0  0
    0.5978   -0.3404    4.1658 H   0  0  0  0  0  0  0  0  0  0  0  0
  1  2  1  0  0  0  0
  2  3  1  0  0  0  0
  2  4  1  0  0  0  0
  2  5  1  0  0  0  0
  5  6  2  0  0  0  0
  5  7  1  0  0  0  0
  7  8  1  0  0  0  0
  7  9  1  0  0  0  0
  9 10  1  0  0  0  0
  9 11  1  0  0  0  0
  9 22  1  0  0  0  0
 11 12  1  0  0  0  0
 11 13  1  0  0  0  0
 11 14  1  0  0  0  0
 14 15  1  0  0  0  0
 14 16  1  0  0  0  0
 14 17  1  0  0  0  0
 17 18  1  0  0  0  0
 18 19  1  0  0  0  0
 18 20  1  0  0  0  0
 18 21  1  0  0  0  0
 22 23  2  0  0  0  0
 22 24  1  0  0  0  0
 24 25  1  0  0  0  0
 24 26  1  0  0  0  0
 26 27  1  0  0  0  0
 26 28  1  0  0  0  0
 26 29  1  0  0  0  0
M  END
$$$$

  -OEChem-04042216023D

 29 28  0     1  0  0  0  0  0999 V2000
   -2.3201   -4.3219    1.0385 H   0  0  0  0  0  0  0  0  0  0  0  0
   -2.3851   -3.3673    0.5087 C   0  0  0  0  0  0  0  0  0  0  0  0
   -3.1076   -2.7288    1.0222 H   0  0  0  0  0  0  0  0  0  0  0  0
   -2.7319   -3.5532   -0.5103 H   0  0  0  0  0  0  0  0  0  0  0  0
   -1.0258   -2.6948    0.4780 C   0  0  0  0  0  0  0  0  0  0  0  0
   -0.0594   -3.2506    0.9681 O   0  0  0  0  0  0  0  0  0  0  0  0
   -0.8921   -1.4531   -0.1089 N   0  0  0  0  0  0  0  0  0  0  0  0
   -1.7478   -1.0039   -0.4235 H   0  0  0  0  0  0  0  0  0  0  0  0
    0.3359   -0.6425   -0.0711 C   0  0  1  0  0  0  0  0  0  0  0  0
    1.1470   -1.2449   -0.4959 H   0  0  0  0  0  0  0  0  0  0  0  0
    0.2581    0.6793   -0.8801 C   0  0  0  0  0  0  0  0  0  0  0  0
    1.1542    1.2737   -0.6685 H   0  0  0  0  0  0  0  0  0  0  0  0
    0.3269    0.3807   -1.9309 H   0  0  0  0  0  0  0  0  0  0  0  0
   -0.9759    1.6158   -0.7866 C   0  0  0  0  0  0  0  0  0  0  0  0
   -0.7748    2.3139    0.0331 H   0  0  0  0  0  0  0  0  0  0  0  0
   -1.0315    2.2132   -1.7024 H   0  0  0  0  0  0  0  0  0  0  0  0
   -2.6392    0.8975   -0.4463 S   0  0  0  0  0  0  0  0  0  0  0  0
   -3.0952    0.2609   -2.1086 C   0  0  0  0  0  0  0  0  0  0  0  0
   -2.3536   -0.4623   -2.4608 H   0  0  0  0  0  0  0  0  0  0  0  0
   -4.0727   -0.2290   -2.0686 H   0  0  0  0  0  0  0  0  0  0  0  0
   -3.1480    1.0847   -2.8269 H   0  0  0  0  0  0  0  0  0  0  0  0
    0.7645   -0.2895    1.3711 C   0  0  0  0  0  0  0  0  0  0  0  0
    1.9511   -0.1767    1.6491 O   0  0  0  0  0  0  0  0  0  0  0  0
   -0.1822    0.1478    2.2803 N   0  0  0  0  0  0  0  0  0  0  0  0
   -1.1555    0.0709    2.0008 H   0  0  0  0  0  0  0  0  0  0  0  0
    0.1397    0.5593    3.6402 C   0  0  0  0  0  0  0  0  0  0  0  0
    0.8343    1.4060    3.6308 H   0  0  0  0  0  0  0  0  0  0  0  0
   -0.7690    0.8640    4.1680 H   0  0  0  0  0  0  0  0  0  0  0  0
    0.6001   -0.2682    4.1904 H   0  0  0  0  0  0  0  0  0  0  0  0
  1  2  1  0  0  0  0
  2  3  1  0  0  0  0
  2  4  1  0  0  0  0
  2  5  1  0  0  0  0
  5  6  2  0  0  0  0
  5  7  1  0  0  0  0
  7  8  1  0  0  0  0
  7  9  1  0  0  0  0
  9 10  1  0  0  0  0
  9 11  1  0  0  0  0
  9 22  1  0  0  0  0
 11 12  1  0  0  0  0
 11 13  1  0  0  0  0
 11 14  1  0  0  0  0
 14 15  1  0  0  0  0
 14 16  1  0  0  0  0
 14 17  1  0  0  0  0
 17 18  1  0  0  0  0
 18 19  1  0  0  0  0
 18 20  1  0  0  0  0
 18 21  1  0  0  0  0
 22 23  2  0  0  0  0
 22 24  1  0  0  0  0
 24 25  1  0  0  0  0
 24 26  1  0  0  0  0
 26 27  1  0  0  0  0
 26 28  1  0  0  0  0
 26 29  1  0  0  0  0
M  END
$$$$

  -OEChem-04042216023D

 29 28  0     1  0  0  0  0  0999 V2000
   -2.1446   -4.4191    1.0744 H   0  0  0  0  0  0  0  0  0  0  0  0
   -2.2421   -3.4565    0.5643 C   0  0  0  0  0  0  0  0  0  0  0  0
   -2.9495   -2.8351    1.1184 H   0  0  0  0  0  0  0  0  0  0  0  0
   -2.6277   -3.6289   -0.4434 H   0  0  0  0  0  0  0  0  0  0  0  0
   -0.8934   -2.7670    0.4911 C   0  0  0  0  0  0  0  0  0  0  0  0
    0.0956   -3.3117    0.9473 O   0  0  0  0  0  0  0  0  0  0  0  0
   -0.7957   -1.5213   -0.0940 N   0  0  0  0  0  0  0  0  0  0  0  0
   -1.6710   -1.0748   -0.3524 H   0  0  0  0  0  0  0  0  0  0  0  0
    0.4068   -0.6752   -0.0322 C   0  0  1  0  0  0  0  0  0  0  0  0
    1.2428   -1.2517   -0.4446 H   0  0  0  0  0  0  0  0  0  0  0  0
    0.2873    0.6338   -0.8536 C   0  0  0  0  0  0  0  0  0  0  0  0
    1.1571    1.2634   -0.6333 H   0  0  0  0  0  0  0  0  0  0  0  0
    0.3879    0.3289   -1.9000 H   0  0  0  0  0  0  0  0  0  0  0  0
   -0.9837    1.5258   -0.7918 C   0  0  0  0  0  0  0  0  0  0  0  0
   -0.7224    2.3940   -0.1772 H   0  0  0  0  0  0  0  0  0  0  0  0
   -1.1942    1.9075   -1.7963 H   0  0  0  0  0  0  0  0  0  0  0  0
   -2.5418    0.8494   -0.0709 S   0  0  0  0  0  0  0  0  0  0  0  0
   -3.3985    0.2260   -1.5725 C   0  0  0  0  0  0  0  0  0  0  0  0
   -2.7730   -0.5007   -2.0999 H   0  0  0  0  0  0  0  0  0  0  0  0
   -4.3407   -0.2566   -1.2953 H   0  0  0  0  0  0  0  0  0  0  0  0
   -3.6193    1.0548   -2.2519 H   0  0  0  0  0  0  0  0  0  0  0  0
    0.8077   -0.3074    1.4148 C   0  0  0  0  0  0  0  0  0  0  0  0
    1.9882   -0.1745    1.7090 O   0  0  0  0  0  0  0  0  0  0  0  0
   -0.1579    0.1045    2.3160 N   0  0  0  0  0  0  0  0  0  0  0  0
   -1.1229    0.0837    1.9986 H   0  0  0  0  0  0  0  0  0  0  0  0
    0.1440    0.5861    3.6573 C   0  0  0  0  0  0  0  0  0  0  0  0
    0.7702    1.4833    3.6107 H   0  0  0  0  0  0  0  0  0  0  0  0
   -0.7806    0.8359    4.1864 H   0  0  0  0  0  0  0  0  0  0  0  0
    0.6731   -0.1835    4.2293 H   0  0  0  0  0  0  0  0  0  0  0  0
  1  2  1  0  0  0  0
  2  3  1  0  0  0  0
  2  4  1  0  0  0  0
  2  5  1  0  0  0  0
  5  6  2  0  0  0  0
  5  7  1  0  0  0  0
  7  8  1  0  0  0  0
  7  9  1  0  0  0  0
  9 10  1  0  0  0  0
  9 11  1  0  0  0  0
  9 22  1  0  0  0  0
 11 12  1  0  0  0  0
 11 13  1  0  0  0  0
 11 14  1  0  0  0  0
 14 15  1  0  0  0  0
 14 16  1  0  0  0  0
 14 17  1  0  0  0  0
 17 18  1  0  0  0  0
 18 19  1  0  0  0  0
 18 20  1  0  0  0  0
 18 21  1  0  0  0  0
 22 23  2  0  0  0  0
 22 24  1  0  0  0  0
 24 25  1  0  0  0  0
 24 26  1  0  0  0  0
 26 27  1  0  0  0  0
 26 28  1  0  0  0  0
 26 29  1  0  0  0  0
M  END
$$$$

  -OEChem-04042216023D

 29 28  0     1  0  0  0  0  0999 V2000
   -0.7557   -4.8866    1.3045 H   0  0  0  0  0  0  0  0  0  0  0  0
   -1.0973   -4.0462    0.6935 C   0  0  0  0  0  0  0  0  0  0  0  0
   -2.0200   -3.6502    1.1239 H   0  0  0  0  0  0  0  0  0  0  0  0
   -1.2985   -4.4054   -0.3185 H   0  0  0  0  0  0  0  0  0  0  0  0
   -0.0360   -2.9631    0.6566 C   0  0  0  0  0  0  0  0  0  0  0  0
    1.0188   -3.1238    1.2444 O   0  0  0  0  0  0  0  0  0  0  0  0
   -0.2730   -1.7983   -0.0435 N   0  0  0  0  0  0  0  0  0  0  0  0
   -1.2124   -1.6735   -0.4128 H   0  0  0  0  0  0  0  0  0  0  0  0
    0.6010   -0.6146    0.0084 C   0  0  1  0  0  0  0  0  0  0  0  0
    1.6068   -0.9381   -0.2833 H   0  0  0  0  0  0  0  0  0  0  0  0
    0.1650    0.4817   -0.9941 C   0  0  0  0  0  0  0  0  0  0  0  0
    0.7451    1.3858   -0.7773 H   0  0  0  0  0  0  0  0  0  0  0  0
    0.4902    0.1393   -1.9818 H   0  0  0  0  0  0  0  0  0  0  0  0
   -1.3261    0.8932   -1.1406 C   0  0  0  0  0  0  0  0  0  0  0  0
   -1.3917    1.9665   -0.9332 H   0  0  0  0  0  0  0  0  0  0  0  0
   -1.6143    0.7541   -2.1878 H   0  0  0  0  0  0  0  0  0  0  0  0
   -2.5915    0.0520   -0.0926 S   0  0  0  0  0  0  0  0  0  0  0  0
   -4.1140    0.9608   -0.5699 C   0  0  0  0  0  0  0  0  0  0  0  0
   -4.3007    0.8533   -1.6426 H   0  0  0  0  0  0  0  0  0  0  0  0
   -4.9756    0.5650   -0.0235 H   0  0  0  0  0  0  0  0  0  0  0  0
   -4.0107    2.0247   -0.3355 H   0  0  0  0  0  0  0  0  0  0  0  0
    0.7569   -0.0067    1.4221 C   0  0  0  0  0  0  0  0  0  0  0  0
    1.8169    0.5123    1.7472 O   0  0  0  0  0  0  0  0  0  0  0  0
   -0.3467    0.1707    2.2363 N   0  0  0  0  0  0  0  0  0  0  0  0
   -1.2384   -0.1613    1.8786 H   0  0  0  0  0  0  0  0  0  0  0  0
   -0.3007    0.8523    3.5226 C   0  0  0  0  0  0  0  0  0  0  0  0
    0.0051    1.8957    3.3931 H   0  0  0  0  0  0  0  0  0  0  0  0
   -1.2877    0.8359    3.9946 H   0  0  0  0  0  0  0  0  0  0  0  0
    0.4106    0.3566    4.1918 H   0  0  0  0  0  0  0  0  0  0  0  0
  1  2  1  0  0  0  0
  2  3  1  0  0  0  0
  2  4  1  0  0  0  0
  2  5  1  0  0  0  0
  5  6  2  0  0  0  0
  5  7  1  0  0  0  0
  7  8  1  0  0  0  0
  7  9  1  0  0  0  0
  9 10  1  0  0  0  0
  9 11  1  0  0  0  0
  9 22  1  0  0  0  0
 11 12  1  0  0  0  0
 11 13  1  0  0  0  0
 11 14  1  0  0  0  0
 14 15  1  0  0  0  0
 14 16  1  0  0  0  0
 14 17  1  0  0  0  0
 17 18  1  0  0  0  0
 18 19  1  0  0  0  0
 18 20  1  0  0  0  0
 18 21  1  0  0  0  0
 22 23  2  0  0  0  0
 22 24  1  0  0  0  0
 24 25  1  0  0  0  0
 24 26  1  0  0  0  0
 26 27  1  0  0  0  0
 26 28  1  0  0  0  0
 26 29  1  0  0  0  0
M  END
$$$$

  -OEChem-04042216023D

 29 28  0     1  0  0  0  0  0999 V2000
   -0.6188   -4.9622    0.6499 H   0  0  0  0  0  0  0  0  0  0  0  0
   -1.0413   -4.0339    0.2551 C   0  0  0  0  0  0  0  0  0  0  0  0
   -1.9011   -3.7507    0.8668 H   0  0  0  0  0  0  0  0  0  0  0  0
   -1.3727   -4.2070   -0.7715 H   0  0  0  0  0  0  0  0  0  0  0  0
    0.0014   -2.9326    0.2831 C   0  0  0  0  0  0  0  0  0  0  0  0
    1.1170   -3.1615    0.7155 O   0  0  0  0  0  0  0  0  0  0  0  0
   -0.3221   -1.6746   -0.1823 N   0  0  0  0  0  0  0  0  0  0  0  0
   -1.3023   -1.5111   -0.3965 H   0  0  0  0  0  0  0  0  0  0  0  0
    0.5389   -0.4924   -0.0083 C   0  0  1  0  0  0  0  0  0  0  0  0
    1.5175   -0.7564   -0.4264 H   0  0  0  0  0  0  0  0  0  0  0  0
    0.0256    0.7033   -0.8443 C   0  0  0  0  0  0  0  0  0  0  0  0
    0.5732    1.5922   -0.5116 H   0  0  0  0  0  0  0  0  0  0  0  0
    0.3230    0.5285   -1.8834 H   0  0  0  0  0  0  0  0  0  0  0  0
   -1.4841    1.0554   -0.8539 C   0  0  0  0  0  0  0  0  0  0  0  0
   -1.5791    2.1448   -0.7966 H   0  0  0  0  0  0  0  0  0  0  0  0
   -1.8932    0.7491   -1.8222 H   0  0  0  0  0  0  0  0  0  0  0  0
   -2.5502    0.3083    0.4516 S   0  0  0  0  0  0  0  0  0  0  0  0
   -4.1626    1.1166    0.1082 C   0  0  0  0  0  0  0  0  0  0  0  0
   -4.0696    2.2031    0.2008 H   0  0  0  0  0  0  0  0  0  0  0  0
   -4.9168    0.7691    0.8209 H   0  0  0  0  0  0  0  0  0  0  0  0
   -4.5011    0.8770   -0.9043 H   0  0  0  0  0  0  0  0  0  0  0  0
    0.8474   -0.0985    1.4574 C   0  0  0  0  0  0  0  0  0  0  0  0
    1.9382    0.3852    1.7314 O   0  0  0  0  0  0  0  0  0  0  0  0
   -0.1453   -0.0694    2.4188 N   0  0  0  0  0  0  0  0  0  0  0  0
   -1.0829   -0.3156    2.1132 H   0  0  0  0  0  0  0  0  0  0  0  0
    0.0502    0.4503    3.7655 C   0  0  0  0  0  0  0  0  0  0  0  0
    0.3091    1.5136    3.7315 H   0  0  0  0  0  0  0  0  0  0  0  0
   -0.8661    0.3340    4.3517 H   0  0  0  0  0  0  0  0  0  0  0  0
    0.8552   -0.0931    4.2717 H   0  0  0  0  0  0  0  0  0  0  0  0
  1  2  1  0  0  0  0
  2  3  1  0  0  0  0
  2  4  1  0  0  0  0
  2  5  1  0  0  0  0
  5  6  2  0  0  0  0
  5  7  1  0  0  0  0
  7  8  1  0  0  0  0
  7  9  1  0  0  0  0
  9 10  1  0  0  0  0
  9 11  1  0  0  0  0
  9 22  1  0  0  0  0
 11 12  1  0  0  0  0
 11 13  1  0  0  0  0
 11 14  1  0  0  0  0
 14 15  1  0  0  0  0
 14 16  1  0  0  0  0
 14 17  1  0  0  0  0
 17 18  1  0  0  0  0
 18 19  1  0  0  0  0
 18 20  1  0  0  0  0
 18 21  1  0  0  0  0
 22 23  2  0  0  0  0
 22 24  1  0  0  0  0
 24 25  1  0  0  0  0
 24 26  1  0  0  0  0
 26 27  1  0  0  0  0
 26 28  1  0  0  0  0
 26 29  1  0  0  0  0
M  END
$$$$

  -OEChem-04042216023D

 29 28  0     1  0  0  0  0  0999 V2000
   -1.0377   -4.9020    0.0730 H   0  0  0  0  0  0  0  0  0  0  0  0
   -1.4395   -3.8914   -0.0425 C   0  0  0  0  0  0  0  0  0  0  0  0
   -2.0916   -3.6729    0.8064 H   0  0  0  0  0  0  0  0  0  0  0  0
   -2.0242   -3.8491   -0.9645 H   0  0  0  0  0  0  0  0  0  0  0  0
   -0.3072   -2.8838   -0.0992 C   0  0  0  0  0  0  0  0  0  0  0  0
    0.8439   -3.2532    0.0499 O   0  0  0  0  0  0  0  0  0  0  0  0
   -0.5915   -1.5500   -0.3094 N   0  0  0  0  0  0  0  0  0  0  0  0
   -1.5733   -1.2899   -0.2840 H   0  0  0  0  0  0  0  0  0  0  0  0
    0.3985   -0.4718   -0.1464 C   0  0  1  0  0  0  0  0  0  0  0  0
    1.2544   -0.7564   -0.7701 H   0  0  0  0  0  0  0  0  0  0  0  0
   -0.1262    0.8452   -0.7616 C   0  0  0  0  0  0  0  0  0  0  0  0
    0.5308    1.6505   -0.4153 H   0  0  0  0  0  0  0  0  0  0  0  0
   -0.0046    0.7852   -1.8479 H   0  0  0  0  0  0  0  0  0  0  0  0
   -1.5852    1.2708   -0.4789 C   0  0  0  0  0  0  0  0  0  0  0  0
   -1.6468    2.3616   -0.5529 H   0  0  0  0  0  0  0  0  0  0  0  0
   -2.2166    0.8580   -1.2723 H   0  0  0  0  0  0  0  0  0  0  0  0
   -2.3054    0.7424    1.1292 S   0  0  0  0  0  0  0  0  0  0  0  0
   -3.9617    1.5319    1.0629 C   0  0  0  0  0  0  0  0  0  0  0  0
   -4.5262    1.2980    1.9707 H   0  0  0  0  0  0  0  0  0  0  0  0
   -4.5235    1.1676    0.1976 H   0  0  0  0  0  0  0  0  0  0  0  0
   -3.8603    2.6188    0.9851 H   0  0  0  0  0  0  0  0  0  0  0  0
    1.0294   -0.3145    1.2607 C   0  0  0  0  0  0  0  0  0  0  0  0
    2.2000    0.0328    1.3532 O   0  0  0  0  0  0  0  0  0  0  0  0
    0.2674   -0.3563    2.4130 N   0  0  0  0  0  0  0  0  0  0  0  0
   -0.7367   -0.4525    2.2896 H   0  0  0  0  0  0  0  0  0  0  0  0
    0.7895   -0.0376    3.7354 C   0  0  0  0  0  0  0  0  0  0  0  0
    1.1531    0.9948    3.7653 H   0  0  0  0  0  0  0  0  0  0  0  0
    0.0042   -0.1515    4.4887 H   0  0  0  0  0  0  0  0  0  0  0  0
    1.6147   -0.7102    3.9925 H   0  0  0  0  0  0  0  0  0  0  0  0
  1  2  1  0  0  0  0
  2  3  1  0  0  0  0
  2  4  1  0  0  0  0
  2  5  1  0  0  0  0
  5  6  2  0  0  0  0
  5  7  1  0  0  0  0
  7  8  1  0  0  0  0
  7  9  1  0  0  0  0
  9 10  1  0  0  0  0
  9 11  1  0  0  0  0
  9 22  1  0  0  0  0
 11 12  1  0  0  0  0
 11 13  1  0  0  0  0
 11 14  1  0  0  0  0
 14 15  1  0  0  0  0
 14 16  1  0  0  0  0
 14 17  1  0  0  0  0
 17 18  1  0  0  0  0
 18 19  1  0  0  0  0
 18 20  1  0  0  0  0
 18 21  1  0  0  0  0
 22 23  2  0  0  0  0
 22 24  1  0  0  0  0
 24 25  1  0  0  0  0
 24 26  1  0  0  0  0
 26 27  1  0  0  0  0
 26 28  1  0  0  0  0
 26 29  1  0  0  0  0
M  END
$$$$

  -OEChem-04042216023D

 29 28  0     1  0  0  0  0  0999 V2000
   -1.3860   -4.9088    0.5695 H   0  0  0  0  0  0  0  0  0  0  0  0
   -1.6990   -3.8869    0.3370 C   0  0  0  0  0  0  0  0  0  0  0  0
   -2.3621   -3.5329    1.1300 H   0  0  0  0  0  0  0  0  0  0  0  0
   -2.2431   -3.8933   -0.6104 H   0  0  0  0  0  0  0  0  0  0  0  0
   -0.4861   -2.9819    0.2329 C   0  0  0  0  0  0  0  0  0  0  0  0
    0.6258   -3.4300    0.4479 O   0  0  0  0  0  0  0  0  0  0  0  0
   -0.6516   -1.6536   -0.1046 N   0  0  0  0  0  0  0  0  0  0  0  0
   -1.6078   -1.3149   -0.1401 H   0  0  0  0  0  0  0  0  0  0  0  0
    0.4263   -0.6529   -0.0183 C   0  0  1  0  0  0  0  0  0  0  0  0
    1.2651   -1.0751   -0.5844 H   0  0  0  0  0  0  0  0  0  0  0  0
    0.0434    0.6306   -0.7889 C   0  0  0  0  0  0  0  0  0  0  0  0
    0.7593    1.4115   -0.5100 H   0  0  0  0  0  0  0  0  0  0  0  0
    0.1824    0.4391   -1.8580 H   0  0  0  0  0  0  0  0  0  0  0  0
   -1.3797    1.1938   -0.5986 C   0  0  0  0  0  0  0  0  0  0  0  0
   -1.4067    2.2033   -1.0216 H   0  0  0  0  0  0  0  0  0  0  0  0
   -2.0769    0.5817   -1.1787 H   0  0  0  0  0  0  0  0  0  0  0  0
   -1.9865    1.2643    1.1327 S   0  0  0  0  0  0  0  0  0  0  0  0
   -3.5853    2.1430    0.9250 C   0  0  0  0  0  0  0  0  0  0  0  0
   -4.2511    1.5734    0.2698 H   0  0  0  0  0  0  0  0  0  0  0  0
   -4.0733    2.2697    1.8963 H   0  0  0  0  0  0  0  0  0  0  0  0
   -3.4205    3.1318    0.4860 H   0  0  0  0  0  0  0  0  0  0  0  0
    1.0457   -0.4222    1.3837 C   0  0  0  0  0  0  0  0  0  0  0  0
    2.2416   -0.1740    1.4718 O   0  0  0  0  0  0  0  0  0  0  0  0
    0.2633   -0.2936    2.5161 N   0  0  0  0  0  0  0  0  0  0  0  0
   -0.7412   -0.2660    2.3663 H   0  0  0  0  0  0  0  0  0  0  0  0
    0.7899    0.1286    3.8075 C   0  0  0  0  0  0  0  0  0  0  0  0
    1.1576    1.1585    3.7522 H   0  0  0  0  0  0  0  0  0  0  0  0
    0.0062    0.0782    4.5693 H   0  0  0  0  0  0  0  0  0  0  0  0
    1.6130   -0.5242    4.1176 H   0  0  0  0  0  0  0  0  0  0  0  0
  1  2  1  0  0  0  0
  2  3  1  0  0  0  0
  2  4  1  0  0  0  0
  2  5  1  0  0  0  0
  5  6  2  0  0  0  0
  5  7  1  0  0  0  0
  7  8  1  0  0  0  0
  7  9  1  0  0  0  0
  9 10  1  0  0  0  0
  9 11  1  0  0  0  0
  9 22  1  0  0  0  0
 11 12  1  0  0  0  0
 11 13  1  0  0  0  0
 11 14  1  0  0  0  0
 14 15  1  0  0  0  0
 14 16  1  0  0  0  0
 14 17  1  0  0  0  0
 17 18  1  0  0  0  0
 18 19  1  0  0  0  0
 18 20  1  0  0  0  0
 18 21  1  0  0  0  0
 22 23  2  0  0  0  0
 22 24  1  0  0  0  0
 24 25  1  0  0  0  0
 24 26  1  0  0  0  0
 26 27  1  0  0  0  0
 26 28  1  0  0  0  0
 26 29  1  0  0  0  0
M  END
$$$$

  -OEChem-04042216023D

 29 28  0     1  0  0  0  0  0999 V2000
   -1.4296   -4.6935    0.9199 H   0  0  0  0  0  0  0  0  0  0  0  0
   -1.7431   -3.6636    0.7261 C   0  0  0  0  0  0  0  0  0  0  0  0
   -2.2240   -3.2674    1.6235 H   0  0  0  0  0  0  0  0  0  0  0  0
   -2.4627   -3.6644   -0.0962 H   0  0  0  0  0  0  0  0  0  0  0  0
   -0.5413   -2.8125    0.3621 C   0  0  0  0  0  0  0  0  0  0  0  0
    0.5740   -3.3023    0.3645 O   0  0  0  0  0  0  0  0  0  0  0  0
   -0.7154   -1.4765    0.0643 N   0  0  0  0  0  0  0  0  0  0  0  0
   -1.6432   -1.0934    0.2101 H   0  0  0  0  0  0  0  0  0  0  0  0
    0.3927   -0.5317   -0.1629 C   0  0  1  0  0  0  0  0  0  0  0  0
    1.0215   -1.0148   -0.9199 H   0  0  0  0  0  0  0  0  0  0  0  0
   -0.0954    0.7656   -0.8520 C   0  0  0  0  0  0  0  0  0  0  0  0
    0.7122    1.5045   -0.8088 H   0  0  0  0  0  0  0  0  0  0  0  0
   -0.2587    0.5354   -1.9096 H   0  0  0  0  0  0  0  0  0  0  0  0
   -1.3821    1.4236   -0.3254 C   0  0  0  0  0  0  0  0  0  0  0  0
   -1.5851    2.3134   -0.9300 H   0  0  0  0  0  0  0  0  0  0  0  0
   -2.2252    0.7402   -0.4589 H   0  0  0  0  0  0  0  0  0  0  0  0
   -1.2890    1.9282    1.4346 S   0  0  0  0  0  0  0  0  0  0  0  0
   -2.9068    2.7647    1.6633 C   0  0  0  0  0  0  0  0  0  0  0  0
   -3.7269    2.0690    1.4631 H   0  0  0  0  0  0  0  0  0  0  0  0
   -2.9990    3.1278    2.6914 H   0  0  0  0  0  0  0  0  0  0  0  0
   -2.9925    3.6173    0.9829 H   0  0  0  0  0  0  0  0  0  0  0  0
    1.4034   -0.3130    0.9983 C   0  0  0  0  0  0  0  0  0  0  0  0
    2.5381    0.0494    0.7262 O   0  0  0  0  0  0  0  0  0  0  0  0
    1.1157   -0.1255    2.3333 N   0  0  0  0  0  0  0  0  0  0  0  0
    1.9410    0.1317    2.8678 H   0  0  0  0  0  0  0  0  0  0  0  0
    0.0374   -0.7946    3.0458 C   0  0  0  0  0  0  0  0  0  0  0  0
   -0.0189   -0.4161    4.0709 H   0  0  0  0  0  0  0  0  0  0  0  0
   -0.9298   -0.6167    2.5701 H   0  0  0  0  0  0  0  0  0  0  0  0
    0.2202   -1.8733    3.0844 H   0  0  0  0  0  0  0  0  0  0  0  0
  1  2  1  0  0  0  0
  2  3  1  0  0  0  0
  2  4  1  0  0  0  0
  2  5  1  0  0  0  0
  5  6  2  0  0  0  0
  5  7  1  0  0  0  0
  7  8  1  0  0  0  0
  7  9  1  0  0  0  0
  9 10  1  0  0  0  0
  9 11  1  0  0  0  0
  9 22  1  0  0  0  0
 11 12  1  0  0  0  0
 11 13  1  0  0  0  0
 11 14  1  0  0  0  0
 14 15  1  0  0  0  0
 14 16  1  0  0  0  0
 14 17  1  0  0  0  0
 17 18  1  0  0  0  0
 18 19  1  0  0  0  0
 18 20  1  0  0  0  0
 18 21  1  0  0  0  0
 22 23  2  0  0  0  0
 22 24  1  0  0  0  0
 24 25  1  0  0  0  0
 24 26  1  0  0  0  0
 26 27  1  0  0  0  0
 26 28  1  0  0  0  0
 26 29  1  0  0  0  0
M  END
$$$$

  -OEChem-04042216023D

 29 28  0     1  0  0  0  0  0999 V2000
   -2.5637   -4.4721    0.6115 H   0  0  0  0  0  0  0  0  0  0  0  0
   -2.5451   -3.4387    0.2537 C   0  0  0  0  0  0  0  0  0  0  0  0
   -3.2311   -2.8443    0.8617 H   0  0  0  0  0  0  0  0  0  0  0  0
   -2.8785   -3.4212   -0.7865 H   0  0  0  0  0  0  0  0  0  0  0  0
   -1.1398   -2.8775    0.3570 C   0  0  0  0  0  0  0  0  0  0  0  0
   -0.2331   -3.5833    0.7590 O   0  0  0  0  0  0  0  0  0  0  0  0
   -0.8961   -1.5712   -0.0187 N   0  0  0  0  0  0  0  0  0  0  0  0
   -1.6911   -1.0288   -0.3360 H   0  0  0  0  0  0  0  0  0  0  0  0
    0.4161   -0.9076    0.1018 C   0  0  1  0  0  0  0  0  0  0  0  0
    1.1363   -1.5447   -0.4249 H   0  0  0  0  0  0  0  0  0  0  0  0
    0.4286    0.4488   -0.6425 C   0  0  0  0  0  0  0  0  0  0  0  0
    1.3398    0.9950   -0.3739 H   0  0  0  0  0  0  0  0  0  0  0  0
    0.4933    0.2281   -1.7127 H   0  0  0  0  0  0  0  0  0  0  0  0
   -0.7874    1.3728   -0.4409 C   0  0  0  0  0  0  0  0  0  0  0  0
   -0.7495    2.1536   -1.2076 H   0  0  0  0  0  0  0  0  0  0  0  0
   -1.7236    0.8275   -0.5842 H   0  0  0  0  0  0  0  0  0  0  0  0
   -0.7882    2.1960    1.1992 S   0  0  0  0  0  0  0  0  0  0  0  0
   -2.2301    3.3223    1.0500 C   0  0  0  0  0  0  0  0  0  0  0  0
   -2.0783    4.0253    0.2255 H   0  0  0  0  0  0  0  0  0  0  0  0
   -2.3574    3.8924    1.9753 H   0  0  0  0  0  0  0  0  0  0  0  0
   -3.1436    2.7501    0.8631 H   0  0  0  0  0  0  0  0  0  0  0  0
    0.9777   -0.8225    1.5421 C   0  0  0  0  0  0  0  0  0  0  0  0
    2.1836   -0.9352    1.7229 O   0  0  0  0  0  0  0  0  0  0  0  0
    0.1771   -0.4440    2.6039 N   0  0  0  0  0  0  0  0  0  0  0  0
   -0.7584   -0.1274    2.3709 H   0  0  0  0  0  0  0  0  0  0  0  0
    0.7049   -0.1519    3.9300 C   0  0  0  0  0  0  0  0  0  0  0  0
    1.4067    0.6876    3.8862 H   0  0  0  0  0  0  0  0  0  0  0  0
   -0.1095    0.1104    4.6118 H   0  0  0  0  0  0  0  0  0  0  0  0
    1.2253   -1.0264    4.3348 H   0  0  0  0  0  0  0  0  0  0  0  0
  1  2  1  0  0  0  0
  2  3  1  0  0  0  0
  2  4  1  0  0  0  0
  2  5  1  0  0  0  0
  5  6  2  0  0  0  0
  5  7  1  0  0  0  0
  7  8  1  0  0  0  0
  7  9  1  0  0  0  0
  9 10  1  0  0  0  0
  9 11  1  0  0  0  0
  9 22  1  0  0  0  0
 11 12  1  0  0  0  0
 11 13  1  0  0  0  0
 11 14  1  0  0  0  0
 14 15  1  0  0  0  0
 14 16  1  0  0  0  0
 14 17  1  0  0  0  0
 17 18  1  0  0  0  0
 18 19  1  0  0  0  0
 18 20  1  0  0  0  0
 18 21  1  0  0  0  0
 22 23  2  0  0  0  0
 22 24  1  0  0  0  0
 24 25  1  0  0  0  0
 24 26  1  0  0  0  0
 26 27  1  0  0  0  0
 26 28  1  0  0  0  0
 26 29  1  0  0  0  0
M  END
$$$$

  -OEChem-04042216023D

 29 28  0     1  0  0  0  0  0999 V2000
   -2.7243   -4.4860    0.1416 H   0  0  0  0  0  0  0  0  0  0  0  0
   -2.7155   -3.4448   -0.1934 C   0  0  0  0  0  0  0  0  0  0  0  0
   -3.5349   -2.9124    0.2951 H   0  0  0  0  0  0  0  0  0  0  0  0
   -2.8664   -3.4222   -1.2752 H   0  0  0  0  0  0  0  0  0  0  0  0
   -1.3911   -2.7950    0.1601 C   0  0  0  0  0  0  0  0  0  0  0  0
   -0.5230   -3.4469    0.7109 O   0  0  0  0  0  0  0  0  0  0  0  0
   -1.1766   -1.4666   -0.1511 N   0  0  0  0  0  0  0  0  0  0  0  0
   -1.9028   -0.9986   -0.6823 H   0  0  0  0  0  0  0  0  0  0  0  0
    0.0831   -0.7461    0.1195 C   0  0  1  0  0  0  0  0  0  0  0  0
    0.8887   -1.3005   -0.3757 H   0  0  0  0  0  0  0  0  0  0  0  0
    0.0705    0.6758   -0.4845 C   0  0  0  0  0  0  0  0  0  0  0  0
    0.9505    1.2281   -0.1460 H   0  0  0  0  0  0  0  0  0  0  0  0
    0.1845    0.5539   -1.5663 H   0  0  0  0  0  0  0  0  0  0  0  0
   -1.2170    1.4985   -0.2624 C   0  0  0  0  0  0  0  0  0  0  0  0
   -1.3122    2.1965   -1.1004 H   0  0  0  0  0  0  0  0  0  0  0  0
   -2.1088    0.8678   -0.2762 H   0  0  0  0  0  0  0  0  0  0  0  0
   -1.2099    2.5084    1.2793 S   0  0  0  0  0  0  0  0  0  0  0  0
    0.4120    3.3724    1.3380 C   0  0  0  0  0  0  0  0  0  0  0  0
    0.6252    3.8529    0.3786 H   0  0  0  0  0  0  0  0  0  0  0  0
    0.3964    4.1396    2.1177 H   0  0  0  0  0  0  0  0  0  0  0  0
    1.2150    2.6659    1.5699 H   0  0  0  0  0  0  0  0  0  0  0  0
    0.4856   -0.6900    1.6128 C   0  0  0  0  0  0  0  0  0  0  0  0
    1.6729   -0.6842    1.9131 O   0  0  0  0  0  0  0  0  0  0  0  0
   -0.4497   -0.3876    2.5854 N   0  0  0  0  0  0  0  0  0  0  0  0
   -1.3947   -0.2032    2.2658 H   0  0  0  0  0  0  0  0  0  0  0  0
   -0.0985   -0.0724    3.9635 C   0  0  0  0  0  0  0  0  0  0  0  0
    0.4889    0.8506    4.0060 H   0  0  0  0  0  0  0  0  0  0  0  0
   -1.0040    0.0635    4.5621 H   0  0  0  0  0  0  0  0  0  0  0  0
    0.4873   -0.8854    4.4053 H   0  0  0  0  0  0  0  0  0  0  0  0
  1  2  1  0  0  0  0
  2  3  1  0  0  0  0
  2  4  1  0  0  0  0
  2  5  1  0  0  0  0
  5  6  2  0  0  0  0
  5  7  1  0  0  0  0
  7  8  1  0  0  0  0
  7  9  1  0  0  0  0
  9 10  1  0  0  0  0
  9 11  1  0  0  0  0
  9 22  1  0  0  0  0
 11 12  1  0  0  0  0
 11 13  1  0  0  0  0
 11 14  1  0  0  0  0
 14 15  1  0  0  0  0
 14 16  1  0  0  0  0
 14 17  1  0  0  0  0
 17 18  1  0  0  0  0
 18 19  1  0  0  0  0
 18 20  1  0  0  0  0
 18 21  1  0  0  0  0
 22 23  2  0  0  0  0
 22 24  1  0  0  0  0
 24 25  1  0  0  0  0
 24 26  1  0  0  0  0
 26 27  1  0  0  0  0
 26 28  1  0  0  0  0
 26 29  1  0  0  0  0
M  END
$$$$

  -OEChem-04042216023D

 29 28  0     1  0  0  0  0  0999 V2000
   -2.6587   -4.4106   -0.0348 H   0  0  0  0  0  0  0  0  0  0  0  0
   -2.5990   -3.3605   -0.3353 C   0  0  0  0  0  0  0  0  0  0  0  0
   -3.4626   -2.8295    0.0719 H   0  0  0  0  0  0  0  0  0  0  0  0
   -2.6252   -3.3056   -1.4262 H   0  0  0  0  0  0  0  0  0  0  0  0
   -1.3157   -2.7414    0.1853 C   0  0  0  0  0  0  0  0  0  0  0  0
   -0.5308   -3.4191    0.8223 O   0  0  0  0  0  0  0  0  0  0  0  0
   -1.0407   -1.4142   -0.0803 N   0  0  0  0  0  0  0  0  0  0  0  0
   -1.6776   -0.9371   -0.7095 H   0  0  0  0  0  0  0  0  0  0  0  0
    0.2203   -0.7393    0.2892 C   0  0  1  0  0  0  0  0  0  0  0  0
    1.0453   -1.2929   -0.1740 H   0  0  0  0  0  0  0  0  0  0  0  0
    0.2604    0.7068   -0.2533 C   0  0  0  0  0  0  0  0  0  0  0  0
    1.1192    1.2306    0.1789 H   0  0  0  0  0  0  0  0  0  0  0  0
    0.4436    0.6415   -1.3303 H   0  0  0  0  0  0  0  0  0  0  0  0
   -1.0281    1.5336   -0.0528 C   0  0  0  0  0  0  0  0  0  0  0  0
   -1.2576    2.0694   -0.9795 H   0  0  0  0  0  0  0  0  0  0  0  0
   -1.8886    0.9010    0.1762 H   0  0  0  0  0  0  0  0  0  0  0  0
   -0.8303    2.7682    1.2946 S   0  0  0  0  0  0  0  0  0  0  0  0
    0.3354    3.9961    0.5788 C   0  0  0  0  0  0  0  0  0  0  0  0
   -0.0644    4.3994   -0.3562 H   0  0  0  0  0  0  0  0  0  0  0  0
    0.4834    4.8223    1.2806 H   0  0  0  0  0  0  0  0  0  0  0  0
    1.3069    3.5358    0.3778 H   0  0  0  0  0  0  0  0  0  0  0  0
    0.5236   -0.7277    1.8066 C   0  0  0  0  0  0  0  0  0  0  0  0
    1.6852   -0.7926    2.1884 O   0  0  0  0  0  0  0  0  0  0  0  0
   -0.4672   -0.4155    2.7196 N   0  0  0  0  0  0  0  0  0  0  0  0
   -1.4016   -0.2666    2.3554 H   0  0  0  0  0  0  0  0  0  0  0  0
   -0.2145   -0.2081    4.1388 C   0  0  0  0  0  0  0  0  0  0  0  0
    0.4898    0.6175    4.2852 H   0  0  0  0  0  0  0  0  0  0  0  0
   -1.1463    0.0361    4.6574 H   0  0  0  0  0  0  0  0  0  0  0  0
    0.2049   -1.1145    4.5879 H   0  0  0  0  0  0  0  0  0  0  0  0
  1  2  1  0  0  0  0
  2  3  1  0  0  0  0
  2  4  1  0  0  0  0
  2  5  1  0  0  0  0
  5  6  2  0  0  0  0
  5  7  1  0  0  0  0
  7  8  1  0  0  0  0
  7  9  1  0  0  0  0
  9 10  1  0  0  0  0
  9 11  1  0  0  0  0
  9 22  1  0  0  0  0
 11 12  1  0  0  0  0
 11 13  1  0  0  0  0
 11 14  1  0  0  0  0
 14 15  1  0  0  0  0
 14 16  1  0  0  0  0
 14 17  1  0  0  0  0
 17 18  1  0  0  0  0
 18 19  1  0  0  0  0
 18 20  1  0  0  0  0
 18 21  1  0  0  0  0
 22 23  2  0  0  0  0
 22 24  1  0  0  0  0
 24 25  1  0  0  0  0
 24 26  1  0  0  0  0
 26 27  1  0  0  0  0
 26 28  1  0  0  0  0
 26 29  1  0  0  0  0
M  END
$$$$

  -OEChem-04042216023D

 29 28  0     1  0  0  0  0  0999 V2000
   -2.5943   -4.2129    0.5548 H   0  0  0  0  0  0  0  0  0  0  0  0
   -2.5966   -3.2210    0.0939 C   0  0  0  0  0  0  0  0  0  0  0  0
   -3.4355   -2.6488    0.4972 H   0  0  0  0  0  0  0  0  0  0  0  0
   -2.7259   -3.3360   -0.9849 H   0  0  0  0  0  0  0  0  0  0  0  0
   -1.2908   -2.5072    0.3882 C   0  0  0  0  0  0  0  0  0  0  0  0
   -0.4443   -3.0495    1.0741 O   0  0  0  0  0  0  0  0  0  0  0  0
   -1.0748   -1.2395   -0.1166 N   0  0  0  0  0  0  0  0  0  0  0  0
   -1.7700   -0.8949   -0.7715 H   0  0  0  0  0  0  0  0  0  0  0  0
    0.2148   -0.5220   -0.0357 C   0  0  1  0  0  0  0  0  0  0  0  0
    0.9765   -1.1693   -0.4855 H   0  0  0  0  0  0  0  0  0  0  0  0
    0.1787    0.7721   -0.8821 C   0  0  0  0  0  0  0  0  0  0  0  0
    1.0713    1.3654   -0.6570 H   0  0  0  0  0  0  0  0  0  0  0  0
    0.2603    0.4817   -1.9345 H   0  0  0  0  0  0  0  0  0  0  0  0
   -1.0796    1.6539   -0.7422 C   0  0  0  0  0  0  0  0  0  0  0  0
   -1.5767    1.7286   -1.7146 H   0  0  0  0  0  0  0  0  0  0  0  0
   -1.7902    1.2067   -0.0421 H   0  0  0  0  0  0  0  0  0  0  0  0
   -0.6965    3.3557   -0.1439 S   0  0  0  0  0  0  0  0  0  0  0  0
    0.1302    3.2120    1.4883 C   0  0  0  0  0  0  0  0  0  0  0  0
    1.0221    2.5828    1.4183 H   0  0  0  0  0  0  0  0  0  0  0  0
    0.4354    4.2023    1.8384 H   0  0  0  0  0  0  0  0  0  0  0  0
   -0.5569    2.7849    2.2228 H   0  0  0  0  0  0  0  0  0  0  0  0
    0.7061   -0.2851    1.4108 C   0  0  0  0  0  0  0  0  0  0  0  0
    1.9077   -0.2449    1.6396 O   0  0  0  0  0  0  0  0  0  0  0  0
   -0.1709    0.1619    2.3823 N   0  0  0  0  0  0  0  0  0  0  0  0
   -1.1557    0.0203    2.1846 H   0  0  0  0  0  0  0  0  0  0  0  0
    0.2375    0.3771    3.7653 C   0  0  0  0  0  0  0  0  0  0  0  0
    1.0418    1.1186    3.8177 H   0  0  0  0  0  0  0  0  0  0  0  0
   -0.6066    0.7443    4.3565 H   0  0  0  0  0  0  0  0  0  0  0  0
    0.5927   -0.5592    4.2086 H   0  0  0  0  0  0  0  0  0  0  0  0
  1  2  1  0  0  0  0
  2  3  1  0  0  0  0
  2  4  1  0  0  0  0
  2  5  1  0  0  0  0
  5  6  2  0  0  0  0
  5  7  1  0  0  0  0
  7  8  1  0  0  0  0
  7  9  1  0  0  0  0
  9 10  1  0  0  0  0
  9 11  1  0  0  0  0
  9 22  1  0  0  0  0
 11 12  1  0  0  0  0
 11 13  1  0  0  0  0
 11 14  1  0  0  0  0
 14 15  1  0  0  0  0
 14 16  1  0  0  0  0
 14 17  1  0  0  0  0
 17 18  1  0  0  0  0
 18 19  1  0  0  0  0
 18 20  1  0  0  0  0
 18 21  1  0  0  0  0
 22 23  2  0  0  0  0
 22 24  1  0  0  0  0
 24 25  1  0  0  0  0
 24 26  1  0  0  0  0
 26 27  1  0  0  0  0
 26 28  1  0  0  0  0
 26 29  1  0  0  0  0
M  END
$$$$

  -OEChem-04042216023D

 29 28  0     1  0  0  0  0  0999 V2000
   -2.6431   -4.1558    0.5985 H   0  0  0  0  0  0  0  0  0  0  0  0
   -2.6272   -3.1754    0.1135 C   0  0  0  0  0  0  0  0  0  0  0  0
   -3.4630   -2.5823    0.4921 H   0  0  0  0  0  0  0  0  0  0  0  0
   -2.7453   -3.3158   -0.9636 H   0  0  0  0  0  0  0  0  0  0  0  0
   -1.3155   -2.4715    0.4056 C   0  0  0  0  0  0  0  0  0  0  0  0
   -0.4937   -2.9971    1.1332 O   0  0  0  0  0  0  0  0  0  0  0  0
   -1.0661   -1.2300   -0.1458 N   0  0  0  0  0  0  0  0  0  0  0  0
   -1.7390   -0.9035   -0.8325 H   0  0  0  0  0  0  0  0  0  0  0  0
    0.2401   -0.5417   -0.0775 C   0  0  1  0  0  0  0  0  0  0  0  0
    0.9929   -1.2031   -0.5213 H   0  0  0  0  0  0  0  0  0  0  0  0
    0.2134    0.7580   -0.9091 C   0  0  0  0  0  0  0  0  0  0  0  0
    1.1130    1.3380   -0.6777 H   0  0  0  0  0  0  0  0  0  0  0  0
    0.2784    0.4975   -1.9701 H   0  0  0  0  0  0  0  0  0  0  0  0
   -1.0432    1.6255   -0.7063 C   0  0  0  0  0  0  0  0  0  0  0  0
   -1.7123    1.5091   -1.5646 H   0  0  0  0  0  0  0  0  0  0  0  0
   -1.5920    1.3179    0.1882 H   0  0  0  0  0  0  0  0  0  0  0  0
   -0.5960    3.3983   -0.5123 S   0  0  0  0  0  0  0  0  0  0  0  0
    0.2321    3.4543    1.1283 C   0  0  0  0  0  0  0  0  0  0  0  0
    1.1235    2.8200    1.1361 H   0  0  0  0  0  0  0  0  0  0  0  0
    0.5356    4.4800    1.3577 H   0  0  0  0  0  0  0  0  0  0  0  0
   -0.4510    3.1097    1.9097 H   0  0  0  0  0  0  0  0  0  0  0  0
    0.7363   -0.2540    1.3602 C   0  0  0  0  0  0  0  0  0  0  0  0
    1.9389   -0.2184    1.5850 O   0  0  0  0  0  0  0  0  0  0  0  0
   -0.1315    0.2578    2.3087 N   0  0  0  0  0  0  0  0  0  0  0  0
   -1.1179    0.1018    2.1306 H   0  0  0  0  0  0  0  0  0  0  0  0
    0.2885    0.5684    3.6695 C   0  0  0  0  0  0  0  0  0  0  0  0
    1.0877    1.3170    3.6632 H   0  0  0  0  0  0  0  0  0  0  0  0
   -0.5527    0.9694    4.2427 H   0  0  0  0  0  0  0  0  0  0  0  0
    0.6543   -0.3333    4.1718 H   0  0  0  0  0  0  0  0  0  0  0  0
  1  2  1  0  0  0  0
  2  3  1  0  0  0  0
  2  4  1  0  0  0  0
  2  5  1  0  0  0  0
  5  6  2  0  0  0  0
  5  7  1  0  0  0  0
  7  8  1  0  0  0  0
  7  9  1  0  0  0  0
  9 10  1  0  0  0  0
  9 11  1  0  0  0  0
  9 22  1  0  0  0  0
 11 12  1  0  0  0  0
 11 13  1  0  0  0  0
 11 14  1  0  0  0  0
 14 15  1  0  0  0  0
 14 16  1  0  0  0  0
 14 17  1  0  0  0  0
 17 18  1  0  0  0  0
 18 19  1  0  0  0  0
 18 20  1  0  0  0  0
 18 21  1  0  0  0  0
 22 23  2  0  0  0  0
 22 24  1  0  0  0  0
 24 25  1  0  0  0  0
 24 26  1  0  0  0  0
 26 27  1  0  0  0  0
 26 28  1  0  0  0  0
 26 29  1  0  0  0  0
M  END
$$$$

  -OEChem-04042216023D

 29 28  0     1  0  0  0  0  0999 V2000
   -2.6741   -4.1355    0.6156 H   0  0  0  0  0  0  0  0  0  0  0  0
   -2.6447   -3.1641    0.1135 C   0  0  0  0  0  0  0  0  0  0  0  0
   -3.4830   -2.5597    0.4681 H   0  0  0  0  0  0  0  0  0  0  0  0
   -2.7471   -3.3230   -0.9627 H   0  0  0  0  0  0  0  0  0  0  0  0
   -1.3333   -2.4624    0.4125 C   0  0  0  0  0  0  0  0  0  0  0  0
   -0.5209   -2.9845    1.1532 O   0  0  0  0  0  0  0  0  0  0  0  0
   -1.0714   -1.2285   -0.1504 N   0  0  0  0  0  0  0  0  0  0  0  0
   -1.7374   -0.9049   -0.8449 H   0  0  0  0  0  0  0  0  0  0  0  0
    0.2415   -0.5539   -0.0857 C   0  0  1  0  0  0  0  0  0  0  0  0
    0.9867   -1.2250   -0.5276 H   0  0  0  0  0  0  0  0  0  0  0  0
    0.2241    0.7422   -0.9206 C   0  0  0  0  0  0  0  0  0  0  0  0
    1.1237    1.3183   -0.6820 H   0  0  0  0  0  0  0  0  0  0  0  0
    0.2888    0.4869   -1.9828 H   0  0  0  0  0  0  0  0  0  0  0  0
   -1.0292    1.6075   -0.7071 C   0  0  0  0  0  0  0  0  0  0  0  0
   -1.8120    1.3030   -1.4084 H   0  0  0  0  0  0  0  0  0  0  0  0
   -1.4214    1.4838    0.3059 H   0  0  0  0  0  0  0  0  0  0  0  0
   -0.6339    3.3831   -0.9562 S   0  0  0  0  0  0  0  0  0  0  0  0
    0.2953    3.7904    0.5783 C   0  0  0  0  0  0  0  0  0  0  0  0
    1.2125    3.1981    0.6455 H   0  0  0  0  0  0  0  0  0  0  0  0
    0.5668    4.8501    0.5808 H   0  0  0  0  0  0  0  0  0  0  0  0
   -0.3186    3.5844    1.4599 H   0  0  0  0  0  0  0  0  0  0  0  0
    0.7482   -0.2536    1.3462 C   0  0  0  0  0  0  0  0  0  0  0  0
    1.9526   -0.2246    1.5618 O   0  0  0  0  0  0  0  0  0  0  0  0
   -0.1080    0.2799    2.2934 N   0  0  0  0  0  0  0  0  0  0  0  0
   -1.0972    0.1277    2.1277 H   0  0  0  0  0  0  0  0  0  0  0  0
    0.3269    0.6262    3.6407 C   0  0  0  0  0  0  0  0  0  0  0  0
    1.1207    1.3800    3.6063 H   0  0  0  0  0  0  0  0  0  0  0  0
   -0.5099    1.0350    4.2149 H   0  0  0  0  0  0  0  0  0  0  0  0
    0.7057   -0.2606    4.1599 H   0  0  0  0  0  0  0  0  0  0  0  0
  1  2  1  0  0  0  0
  2  3  1  0  0  0  0
  2  4  1  0  0  0  0
  2  5  1  0  0  0  0
  5  6  2  0  0  0  0
  5  7  1  0  0  0  0
  7  8  1  0  0  0  0
  7  9  1  0  0  0  0
  9 10  1  0  0  0  0
  9 11  1  0  0  0  0
  9 22  1  0  0  0  0
 11 12  1  0  0  0  0
 11 13  1  0  0  0  0
 11 14  1  0  0  0  0
 14 15  1  0  0  0  0
 14 16  1  0  0  0  0
 14 17  1  0  0  0  0
 17 18  1  0  0  0  0
 18 19  1  0  0  0  0
 18 20  1  0  0  0  0
 18 21  1  0  0  0  0
 22 23  2  0  0  0  0
 22 24  1  0  0  0  0
 24 25  1  0  0  0  0
 24 26  1  0  0  0  0
 26 27  1  0  0  0  0
 26 28  1  0  0  0  0
 26 29  1  0  0  0  0
M  END
$$$$

  -OEChem-04042216023D

 29 28  0     1  0  0  0  0  0999 V2000
   -2.6686   -4.1433    0.6216 H   0  0  0  0  0  0  0  0  0  0  0  0
   -2.6406   -3.1727    0.1181 C   0  0  0  0  0  0  0  0  0  0  0  0
   -3.4819   -2.5703    0.4689 H   0  0  0  0  0  0  0  0  0  0  0  0
   -2.7391   -3.3337   -0.9582 H   0  0  0  0  0  0  0  0  0  0  0  0
   -1.3325   -2.4663    0.4206 C   0  0  0  0  0  0  0  0  0  0  0  0
   -0.5186   -2.9858    1.1617 O   0  0  0  0  0  0  0  0  0  0  0  0
   -1.0771   -1.2300   -0.1394 N   0  0  0  0  0  0  0  0  0  0  0  0
   -1.7417   -0.9131   -0.8384 H   0  0  0  0  0  0  0  0  0  0  0  0
    0.2332   -0.5506   -0.0783 C   0  0  1  0  0  0  0  0  0  0  0  0
    0.9793   -1.2199   -0.5218 H   0  0  0  0  0  0  0  0  0  0  0  0
    0.2119    0.7441   -0.9170 C   0  0  0  0  0  0  0  0  0  0  0  0
    1.1085    1.3254   -0.6796 H   0  0  0  0  0  0  0  0  0  0  0  0
    0.2742    0.4827   -1.9780 H   0  0  0  0  0  0  0  0  0  0  0  0
   -1.0412    1.6084   -0.7074 C   0  0  0  0  0  0  0  0  0  0  0  0
   -1.8989    1.1509   -1.2090 H   0  0  0  0  0  0  0  0  0  0  0  0
   -1.2775    1.6926    0.3570 H   0  0  0  0  0  0  0  0  0  0  0  0
   -0.7755    3.2947   -1.3841 S   0  0  0  0  0  0  0  0  0  0  0  0
    0.3230    4.0646   -0.1268 C   0  0  0  0  0  0  0  0  0  0  0  0
    1.2845    3.5453   -0.0833 H   0  0  0  0  0  0  0  0  0  0  0  0
    0.5067    5.1122   -0.3832 H   0  0  0  0  0  0  0  0  0  0  0  0
   -0.1439    4.0228    0.8616 H   0  0  0  0  0  0  0  0  0  0  0  0
    0.7430   -0.2535    1.3528 C   0  0  0  0  0  0  0  0  0  0  0  0
    1.9481   -0.2215    1.5648 O   0  0  0  0  0  0  0  0  0  0  0  0
   -0.1131    0.2731    2.3038 N   0  0  0  0  0  0  0  0  0  0  0  0
   -1.1018    0.1139    2.1410 H   0  0  0  0  0  0  0  0  0  0  0  0
    0.3240    0.6112    3.6526 C   0  0  0  0  0  0  0  0  0  0  0  0
    1.1179    1.3649    3.6211 H   0  0  0  0  0  0  0  0  0  0  0  0
   -0.5117    1.0169    4.2306 H   0  0  0  0  0  0  0  0  0  0  0  0
    0.7033   -0.2788    4.1659 H   0  0  0  0  0  0  0  0  0  0  0  0
  1  2  1  0  0  0  0
  2  3  1  0  0  0  0
  2  4  1  0  0  0  0
  2  5  1  0  0  0  0
  5  6  2  0  0  0  0
  5  7  1  0  0  0  0
  7  8  1  0  0  0  0
  7  9  1  0  0  0  0
  9 10  1  0  0  0  0
  9 11  1  0  0  0  0
  9 22  1  0  0  0  0
 11 12  1  0  0  0  0
 11 13  1  0  0  0  0
 11 14  1  0  0  0  0
 14 15  1  0  0  0  0
 14 16  1  0  0  0  0
 14 17  1  0  0  0  0
 17 18  1  0  0  0  0
 18 19  1  0  0  0  0
 18 20  1  0  0  0  0
 18 21  1  0  0  0  0
 22 23  2  0  0  0  0
 22 24  1  0  0  0  0
 24 25  1  0  0  0  0
 24 26  1  0  0  0  0
 26 27  1  0  0  0  0
 26 28  1  0  0  0  0
 26 29  1  0  0  0  0
M  END
$$$$

  -OEChem-04042216023D

 29 28  0     1  0  0  0  0  0999 V2000
   -2.6401   -4.1483    0.5665 H   0  0  0  0  0  0  0  0  0  0  0  0
   -2.6305   -3.1573    0.1036 C   0  0  0  0  0  0  0  0  0  0  0  0
   -3.4709   -2.5785    0.4942 H   0  0  0  0  0  0  0  0  0  0  0  0
   -2.7462   -3.2744   -0.9766 H   0  0  0  0  0  0  0  0  0  0  0  0
   -1.3242   -2.4506    0.4121 C   0  0  0  0  0  0  0  0  0  0  0  0
   -0.5037   -2.9803    1.1387 O   0  0  0  0  0  0  0  0  0  0  0  0
   -1.0782   -1.2011   -0.1221 N   0  0  0  0  0  0  0  0  0  0  0  0
   -1.7506   -0.8676   -0.8064 H   0  0  0  0  0  0  0  0  0  0  0  0
    0.2260   -0.5139   -0.0480 C   0  0  1  0  0  0  0  0  0  0  0  0
    0.9698   -1.1809   -0.4989 H   0  0  0  0  0  0  0  0  0  0  0  0
    0.1930    0.7678   -0.9027 C   0  0  0  0  0  0  0  0  0  0  0  0
    1.1811    1.2360   -0.8582 H   0  0  0  0  0  0  0  0  0  0  0  0
    0.0111    0.4935   -1.9467 H   0  0  0  0  0  0  0  0  0  0  0  0
   -0.8702    1.7875   -0.4688 C   0  0  0  0  0  0  0  0  0  0  0  0
   -1.8674    1.3418   -0.5259 H   0  0  0  0  0  0  0  0  0  0  0  0
   -0.7002    2.1053    0.5640 H   0  0  0  0  0  0  0  0  0  0  0  0
   -0.8119    3.2641   -1.5600 S   0  0  0  0  0  0  0  0  0  0  0  0
    0.7232    4.1174   -1.0179 C   0  0  0  0  0  0  0  0  0  0  0  0
    1.6020    3.5006   -1.2257 H   0  0  0  0  0  0  0  0  0  0  0  0
    0.8314    5.0658   -1.5524 H   0  0  0  0  0  0  0  0  0  0  0  0
    0.6844    4.3242    0.0558 H   0  0  0  0  0  0  0  0  0  0  0  0
    0.7423   -0.2391    1.3844 C   0  0  0  0  0  0  0  0  0  0  0  0
    1.9485   -0.2002    1.5879 O   0  0  0  0  0  0  0  0  0  0  0  0
   -0.1117    0.2630    2.3505 N   0  0  0  0  0  0  0  0  0  0  0  0
   -1.1000    0.0997    2.1881 H   0  0  0  0  0  0  0  0  0  0  0  0
    0.3290    0.5594    3.7080 C   0  0  0  0  0  0  0  0  0  0  0  0
    1.1233    1.3133    3.6985 H   0  0  0  0  0  0  0  0  0  0  0  0
   -0.5050    0.9473    4.3004 H   0  0  0  0  0  0  0  0  0  0  0  0
    0.7094   -0.3461    4.1925 H   0  0  0  0  0  0  0  0  0  0  0  0
  1  2  1  0  0  0  0
  2  3  1  0  0  0  0
  2  4  1  0  0  0  0
  2  5  1  0  0  0  0
  5  6  2  0  0  0  0
  5  7  1  0  0  0  0
  7  8  1  0  0  0  0
  7  9  1  0  0  0  0
  9 10  1  0  0  0  0
  9 11  1  0  0  0  0
  9 22  1  0  0  0  0
 11 12  1  0  0  0  0
 11 13  1  0  0  0  0
 11 14  1  0  0  0  0
 14 15  1  0  0  0  0
 14 16  1  0  0  0  0
 14 17  1  0  0  0  0
 17 18  1  0  0  0  0
 18 19  1  0  0  0  0
 18 20  1  0  0  0  0
 18 21  1  0  0  0  0
 22 23  2  0  0  0  0
 22 24  1  0  0  0  0
 24 25  1  0  0  0  0
 24 26  1  0  0  0  0
 26 27  1  0  0  0  0
 26 28  1  0  0  0  0
 26 29  1  0  0  0  0
M  END
$$$$

  -OEChem-04042216023D

 29 28  0     1  0  0  0  0  0999 V2000
   -2.6291   -4.1463    0.5708 H   0  0  0  0  0  0  0  0  0  0  0  0
   -2.6177   -3.1605    0.0969 C   0  0  0  0  0  0  0  0  0  0  0  0
   -3.4570   -2.5760    0.4810 H   0  0  0  0  0  0  0  0  0  0  0  0
   -2.7345   -3.2891   -0.9818 H   0  0  0  0  0  0  0  0  0  0  0  0
   -1.3103   -2.4520    0.3979 C   0  0  0  0  0  0  0  0  0  0  0  0
   -0.4842   -2.9815    1.1182 O   0  0  0  0  0  0  0  0  0  0  0  0
   -1.0714   -1.1991   -0.1314 N   0  0  0  0  0  0  0  0  0  0  0  0
   -1.7491   -0.8626   -0.8095 H   0  0  0  0  0  0  0  0  0  0  0  0
    0.2283   -0.5027   -0.0543 C   0  0  1  0  0  0  0  0  0  0  0  0
    0.9779   -1.1555   -0.5160 H   0  0  0  0  0  0  0  0  0  0  0  0
    0.1762    0.7962   -0.8810 C   0  0  0  0  0  0  0  0  0  0  0  0
    1.1590    1.2782   -0.8499 H   0  0  0  0  0  0  0  0  0  0  0  0
   -0.0238    0.5308   -1.9241 H   0  0  0  0  0  0  0  0  0  0  0  0
   -0.8933    1.7945   -0.4108 C   0  0  0  0  0  0  0  0  0  0  0  0
   -1.8411    1.2830   -0.2226 H   0  0  0  0  0  0  0  0  0  0  0  0
   -0.5788    2.2722    0.5227 H   0  0  0  0  0  0  0  0  0  0  0  0
   -1.1782    3.0763   -1.6953 S   0  0  0  0  0  0  0  0  0  0  0  0
    0.3911    4.0315   -1.6714 C   0  0  0  0  0  0  0  0  0  0  0  0
    1.2297    3.3999   -1.9778 H   0  0  0  0  0  0  0  0  0  0  0  0
    0.3239    4.8781   -2.3611 H   0  0  0  0  0  0  0  0  0  0  0  0
    0.5871    4.4146   -0.6655 H   0  0  0  0  0  0  0  0  0  0  0  0
    0.7429   -0.2286    1.3786 C   0  0  0  0  0  0  0  0  0  0  0  0
    1.9489   -0.1826    1.5823 O   0  0  0  0  0  0  0  0  0  0  0  0
   -0.1150    0.2652    2.3458 N   0  0  0  0  0  0  0  0  0  0  0  0
   -1.1032    0.1028    2.1820 H   0  0  0  0  0  0  0  0  0  0  0  0
    0.3246    0.5724    3.7015 C   0  0  0  0  0  0  0  0  0  0  0  0
    1.1127    1.3328    3.6871 H   0  0  0  0  0  0  0  0  0  0  0  0
   -0.5121    0.9567    4.2926 H   0  0  0  0  0  0  0  0  0  0  0  0
    0.7124   -0.3277    4.1903 H   0  0  0  0  0  0  0  0  0  0  0  0
  1  2  1  0  0  0  0
  2  3  1  0  0  0  0
  2  4  1  0  0  0  0
  2  5  1  0  0  0  0
  5  6  2  0  0  0  0
  5  7  1  0  0  0  0
  7  8  1  0  0  0  0
  7  9  1  0  0  0  0
  9 10  1  0  0  0  0
  9 11  1  0  0  0  0
  9 22  1  0  0  0  0
 11 12  1  0  0  0  0
 11 13  1  0  0  0  0
 11 14  1  0  0  0  0
 14 15  1  0  0  0  0
 14 16  1  0  0  0  0
 14 17  1  0  0  0  0
 17 18  1  0  0  0  0
 18 19  1  0  0  0  0
 18 20  1  0  0  0  0
 18 21  1  0  0  0  0
 22 23  2  0  0  0  0
 22 24  1  0  0  0  0
 24 25  1  0  0  0  0
 24 26  1  0  0  0  0
 26 27  1  0  0  0  0
 26 28  1  0  0  0  0
 26 29  1  0  0  0  0
M  END
$$$$

  -OEChem-04042216023D

 29 28  0     1  0  0  0  0  0999 V2000
   -2.6322   -4.1331    0.5707 H   0  0  0  0  0  0  0  0  0  0  0  0
   -2.6142   -3.1528    0.0856 C   0  0  0  0  0  0  0  0  0  0  0  0
   -3.4522   -2.5598    0.4595 H   0  0  0  0  0  0  0  0  0  0  0  0
   -2.7267   -3.2927   -0.9922 H   0  0  0  0  0  0  0  0  0  0  0  0
   -1.3048   -2.4473    0.3841 C   0  0  0  0  0  0  0  0  0  0  0  0
   -0.4735   -2.9823    1.0944 O   0  0  0  0  0  0  0  0  0  0  0  0
   -1.0703   -1.1898   -0.1354 N   0  0  0  0  0  0  0  0  0  0  0  0
   -1.7554   -0.8426   -0.8011 H   0  0  0  0  0  0  0  0  0  0  0  0
    0.2268   -0.4896   -0.0567 C   0  0  1  0  0  0  0  0  0  0  0  0
    0.9771   -1.1330   -0.5301 H   0  0  0  0  0  0  0  0  0  0  0  0
    0.1631    0.8208   -0.8632 C   0  0  0  0  0  0  0  0  0  0  0  0
    1.1426    1.3108   -0.8432 H   0  0  0  0  0  0  0  0  0  0  0  0
   -0.0472    0.5602   -1.9054 H   0  0  0  0  0  0  0  0  0  0  0  0
   -0.9080    1.8090   -0.3708 C   0  0  0  0  0  0  0  0  0  0  0  0
   -1.7598    1.2772    0.0612 H   0  0  0  0  0  0  0  0  0  0  0  0
   -0.4906    2.4519    0.4116 H   0  0  0  0  0  0  0  0  0  0  0  0
   -1.5306    2.8285   -1.7666 S   0  0  0  0  0  0  0  0  0  0  0  0
   -0.0452    3.8038   -2.2343 C   0  0  0  0  0  0  0  0  0  0  0  0
    0.7523    3.1428   -2.5860 H   0  0  0  0  0  0  0  0  0  0  0  0
   -0.2951    4.5052   -3.0361 H   0  0  0  0  0  0  0  0  0  0  0  0
    0.3217    4.3719   -1.3742 H   0  0  0  0  0  0  0  0  0  0  0  0
    0.7468   -0.2235    1.3752 C   0  0  0  0  0  0  0  0  0  0  0  0
    1.9536   -0.1680    1.5715 O   0  0  0  0  0  0  0  0  0  0  0  0
   -0.1090    0.2607    2.3488 N   0  0  0  0  0  0  0  0  0  0  0  0
   -1.0964    0.0861    2.1929 H   0  0  0  0  0  0  0  0  0  0  0  0
    0.3372    0.5720    3.7013 C   0  0  0  0  0  0  0  0  0  0  0  0
    1.1161    1.3418    3.6816 H   0  0  0  0  0  0  0  0  0  0  0  0
   -0.4992    0.9460    4.2992 H   0  0  0  0  0  0  0  0  0  0  0  0
    0.7394   -0.3237    4.1866 H   0  0  0  0  0  0  0  0  0  0  0  0
  1  2  1  0  0  0  0
  2  3  1  0  0  0  0
  2  4  1  0  0  0  0
  2  5  1  0  0  0  0
  5  6  2  0  0  0  0
  5  7  1  0  0  0  0
  7  8  1  0  0  0  0
  7  9  1  0  0  0  0
  9 10  1  0  0  0  0
  9 11  1  0  0  0  0
  9 22  1  0  0  0  0
 11 12  1  0  0  0  0
 11 13  1  0  0  0  0
 11 14  1  0  0  0  0
 14 15  1  0  0  0  0
 14 16  1  0  0  0  0
 14 17  1  0  0  0  0
 17 18  1  0  0  0  0
 18 19  1  0  0  0  0
 18 20  1  0  0  0  0
 18 21  1  0  0  0  0
 22 23  2  0  0  0  0
 22 24  1  0  0  0  0
 24 25  1  0  0  0  0
 24 26  1  0  0  0  0
 26 27  1  0  0  0  0
 26 28  1  0  0  0  0
 26 29  1  0  0  0  0
M  END
$$$$

  -OEChem-04042216023D

 29 28  0     1  0  0  0  0  0999 V2000
   -2.6511   -4.1204    0.5657 H   0  0  0  0  0  0  0  0  0  0  0  0
   -2.6317   -3.1334    0.0948 C   0  0  0  0  0  0  0  0  0  0  0  0
   -3.4577   -2.5384    0.4915 H   0  0  0  0  0  0  0  0  0  0  0  0
   -2.7638   -3.2565   -0.9829 H   0  0  0  0  0  0  0  0  0  0  0  0
   -1.3104   -2.4451    0.3814 C   0  0  0  0  0  0  0  0  0  0  0  0
   -0.4771   -2.9932    1.0795 O   0  0  0  0  0  0  0  0  0  0  0  0
   -1.0649   -1.1889   -0.1355 N   0  0  0  0  0  0  0  0  0  0  0  0
   -1.7590   -0.8197   -0.7805 H   0  0  0  0  0  0  0  0  0  0  0  0
    0.2351   -0.4951   -0.0520 C   0  0  1  0  0  0  0  0  0  0  0  0
    0.9836   -1.1435   -0.5216 H   0  0  0  0  0  0  0  0  0  0  0  0
    0.1722    0.8073   -0.8704 C   0  0  0  0  0  0  0  0  0  0  0  0
    1.1502    1.3002   -0.8461 H   0  0  0  0  0  0  0  0  0  0  0  0
   -0.0243    0.5363   -1.9126 H   0  0  0  0  0  0  0  0  0  0  0  0
   -0.9037    1.7984   -0.3897 C   0  0  0  0  0  0  0  0  0  0  0  0
   -1.6181    1.3089    0.2777 H   0  0  0  0  0  0  0  0  0  0  0  0
   -0.4331    2.6089    0.1767 H   0  0  0  0  0  0  0  0  0  0  0  0
   -1.8385    2.4832   -1.8158 S   0  0  0  0  0  0  0  0  0  0  0  0
   -0.5646    3.5032   -2.6600 C   0  0  0  0  0  0  0  0  0  0  0  0
    0.2677    2.8775   -2.9951 H   0  0  0  0  0  0  0  0  0  0  0  0
   -1.0002    4.0003   -3.5318 H   0  0  0  0  0  0  0  0  0  0  0  0
   -0.1787    4.2672   -1.9785 H   0  0  0  0  0  0  0  0  0  0  0  0
    0.7570   -0.2291    1.3797 C   0  0  0  0  0  0  0  0  0  0  0  0
    1.9642   -0.1852    1.5766 O   0  0  0  0  0  0  0  0  0  0  0  0
   -0.0935    0.2608    2.3552 N   0  0  0  0  0  0  0  0  0  0  0  0
   -1.0825    0.0971    2.1989 H   0  0  0  0  0  0  0  0  0  0  0  0
    0.3559    0.5622    3.7088 C   0  0  0  0  0  0  0  0  0  0  0  0
    1.1437    1.3228    3.6917 H   0  0  0  0  0  0  0  0  0  0  0  0
   -0.4764    0.9436    4.3078 H   0  0  0  0  0  0  0  0  0  0  0  0
    0.7477   -0.3397    4.1909 H   0  0  0  0  0  0  0  0  0  0  0  0
  1  2  1  0  0  0  0
  2  3  1  0  0  0  0
  2  4  1  0  0  0  0
  2  5  1  0  0  0  0
  5  6  2  0  0  0  0
  5  7  1  0  0  0  0
  7  8  1  0  0  0  0
  7  9  1  0  0  0  0
  9 10  1  0  0  0  0
  9 11  1  0  0  0  0
  9 22  1  0  0  0  0
 11 12  1  0  0  0  0
 11 13  1  0  0  0  0
 11 14  1  0  0  0  0
 14 15  1  0  0  0  0
 14 16  1  0  0  0  0
 14 17  1  0  0  0  0
 17 18  1  0  0  0  0
 18 19  1  0  0  0  0
 18 20  1  0  0  0  0
 18 21  1  0  0  0  0
 22 23  2  0  0  0  0
 22 24  1  0  0  0  0
 24 25  1  0  0  0  0
 24 26  1  0  0  0  0
 26 27  1  0  0  0  0
 26 28  1  0  0  0  0
 26 29  1  0  0  0  0
M  END
$$$$

  -OEChem-04042216023D

 29 28  0     1  0  0  0  0  0999 V2000
   -2.6701   -4.1052    0.5713 H   0  0  0  0  0  0  0  0  0  0  0  0
   -2.6467   -3.1135    0.1110 C   0  0  0  0  0  0  0  0  0  0  0  0
   -3.4608   -2.5140    0.5255 H   0  0  0  0  0  0  0  0  0  0  0  0
   -2.7949   -3.2228   -0.9660 H   0  0  0  0  0  0  0  0  0  0  0  0
   -1.3143   -2.4424    0.3856 C   0  0  0  0  0  0  0  0  0  0  0  0
   -0.4779   -3.0043    1.0691 O   0  0  0  0  0  0  0  0  0  0  0  0
   -1.0614   -1.1856   -0.1251 N   0  0  0  0  0  0  0  0  0  0  0  0
   -1.7672   -0.7905   -0.7422 H   0  0  0  0  0  0  0  0  0  0  0  0
    0.2398   -0.4968   -0.0375 C   0  0  1  0  0  0  0  0  0  0  0  0
    0.9852   -1.1535   -0.5002 H   0  0  0  0  0  0  0  0  0  0  0  0
    0.1828    0.7890   -0.8812 C   0  0  0  0  0  0  0  0  0  0  0  0
    1.1595    1.2831   -0.8359 H   0  0  0  0  0  0  0  0  0  0  0  0
    0.0162    0.5085   -1.9260 H   0  0  0  0  0  0  0  0  0  0  0  0
   -0.9001    1.7859   -0.4282 C   0  0  0  0  0  0  0  0  0  0  0  0
   -1.4473    1.4089    0.4395 H   0  0  0  0  0  0  0  0  0  0  0  0
   -0.4305    2.7293   -0.1302 H   0  0  0  0  0  0  0  0  0  0  0  0
   -2.1009    2.0962   -1.7847 S   0  0  0  0  0  0  0  0  0  0  0  0
   -1.1100    3.1067   -2.9565 C   0  0  0  0  0  0  0  0  0  0  0  0
   -0.2355    2.5481   -3.3022 H   0  0  0  0  0  0  0  0  0  0  0  0
   -1.7177    3.3754   -3.8256 H   0  0  0  0  0  0  0  0  0  0  0  0
   -0.7702    4.0260   -2.4703 H   0  0  0  0  0  0  0  0  0  0  0  0
    0.7654   -0.2354    1.3941 C   0  0  0  0  0  0  0  0  0  0  0  0
    1.9734   -0.1937    1.5872 O   0  0  0  0  0  0  0  0  0  0  0  0
   -0.0797    0.2545    2.3741 N   0  0  0  0  0  0  0  0  0  0  0  0
   -1.0694    0.0900    2.2212 H   0  0  0  0  0  0  0  0  0  0  0  0
    0.3739    0.5400    3.7297 C   0  0  0  0  0  0  0  0  0  0  0  0
    1.1676    1.2945    3.7193 H   0  0  0  0  0  0  0  0  0  0  0  0
   -0.4548    0.9224    4.3330 H   0  0  0  0  0  0  0  0  0  0  0  0
    0.7585   -0.3693    4.2035 H   0  0  0  0  0  0  0  0  0  0  0  0
  1  2  1  0  0  0  0
  2  3  1  0  0  0  0
  2  4  1  0  0  0  0
  2  5  1  0  0  0  0
  5  6  2  0  0  0  0
  5  7  1  0  0  0  0
  7  8  1  0  0  0  0
  7  9  1  0  0  0  0
  9 10  1  0  0  0  0
  9 11  1  0  0  0  0
  9 22  1  0  0  0  0
 11 12  1  0  0  0  0
 11 13  1  0  0  0  0
 11 14  1  0  0  0  0
 14 15  1  0  0  0  0
 14 16  1  0  0  0  0
 14 17  1  0  0  0  0
 17 18  1  0  0  0  0
 18 19  1  0  0  0  0
 18 20  1  0  0  0  0
 18 21  1  0  0  0  0
 22 23  2  0  0  0  0
 22 24  1  0  0  0  0
 24 25  1  0  0  0  0
 24 26  1  0  0  0  0
 26 27  1  0  0  0  0
 26 28  1  0  0  0  0
 26 29  1  0  0  0  0
M  END
$$$$

  -OEChem-04042216023D

 29 28  0     1  0  0  0  0  0999 V2000
   -2.6849   -4.0869    0.5958 H   0  0  0  0  0  0  0  0  0  0  0  0
   -2.6556   -3.0947    0.1367 C   0  0  0  0  0  0  0  0  0  0  0  0
   -3.4514   -2.4835    0.5687 H   0  0  0  0  0  0  0  0  0  0  0  0
   -2.8270   -3.1990   -0.9373 H   0  0  0  0  0  0  0  0  0  0  0  0
   -1.3076   -2.4452    0.3848 C   0  0  0  0  0  0  0  0  0  0  0  0
   -0.4616   -3.0261    1.0403 O   0  0  0  0  0  0  0  0  0  0  0  0
   -1.0502   -1.1861   -0.1168 N   0  0  0  0  0  0  0  0  0  0  0  0
   -1.7762   -0.7566   -0.6871 H   0  0  0  0  0  0  0  0  0  0  0  0
    0.2488   -0.4967   -0.0228 C   0  0  1  0  0  0  0  0  0  0  0  0
    0.9950   -1.1576   -0.4784 H   0  0  0  0  0  0  0  0  0  0  0  0
    0.1947    0.7748   -0.8880 C   0  0  0  0  0  0  0  0  0  0  0  0
    1.1676    1.2730   -0.8166 H   0  0  0  0  0  0  0  0  0  0  0  0
    0.0600    0.4908   -1.9360 H   0  0  0  0  0  0  0  0  0  0  0  0
   -0.8962    1.7743   -0.4649 C   0  0  0  0  0  0  0  0  0  0  0  0
   -1.2582    1.5686    0.5447 H   0  0  0  0  0  0  0  0  0  0  0  0
   -0.4798    2.7870   -0.4590 H   0  0  0  0  0  0  0  0  0  0  0  0
   -2.3075    1.7156   -1.6427 S   0  0  0  0  0  0  0  0  0  0  0  0
   -1.6469    2.6267   -3.0958 C   0  0  0  0  0  0  0  0  0  0  0  0
   -0.7644    2.1218   -3.4990 H   0  0  0  0  0  0  0  0  0  0  0  0
   -2.4068    2.6800   -3.8813 H   0  0  0  0  0  0  0  0  0  0  0  0
   -1.3688    3.6453   -2.8094 H   0  0  0  0  0  0  0  0  0  0  0  0
    0.7726   -0.2411    1.4104 C   0  0  0  0  0  0  0  0  0  0  0  0
    1.9804   -0.2027    1.6048 O   0  0  0  0  0  0  0  0  0  0  0  0
   -0.0713    0.2429    2.3942 N   0  0  0  0  0  0  0  0  0  0  0  0
   -1.0620    0.0879    2.2375 H   0  0  0  0  0  0  0  0  0  0  0  0
    0.3817    0.5176    3.7521 C   0  0  0  0  0  0  0  0  0  0  0  0
    1.1756    1.2720    3.7473 H   0  0  0  0  0  0  0  0  0  0  0  0
   -0.4472    0.8955    4.3580 H   0  0  0  0  0  0  0  0  0  0  0  0
    0.7661   -0.3957    4.2184 H   0  0  0  0  0  0  0  0  0  0  0  0
  1  2  1  0  0  0  0
  2  3  1  0  0  0  0
  2  4  1  0  0  0  0
  2  5  1  0  0  0  0
  5  6  2  0  0  0  0
  5  7  1  0  0  0  0
  7  8  1  0  0  0  0
  7  9  1  0  0  0  0
  9 10  1  0  0  0  0
  9 11  1  0  0  0  0
  9 22  1  0  0  0  0
 11 12  1  0  0  0  0
 11 13  1  0  0  0  0
 11 14  1  0  0  0  0
 14 15  1  0  0  0  0
 14 16  1  0  0  0  0
 14 17  1  0  0  0  0
 17 18  1  0  0  0  0
 18 19  1  0  0  0  0
 18 20  1  0  0  0  0
 18 21  1  0  0  0  0
 22 23  2  0  0  0  0
 22 24  1  0  0  0  0
 24 25  1  0  0  0  0
 24 26  1  0  0  0  0
 26 27  1  0  0  0  0
 26 28  1  0  0  0  0
 26 29  1  0  0  0  0
M  END
$$$$

  -OEChem-04042216023D

 29 28  0     1  0  0  0  0  0999 V2000
   -2.6755   -4.0869    0.6441 H   0  0  0  0  0  0  0  0  0  0  0  0
   -2.6493   -3.0961    0.1820 C   0  0  0  0  0  0  0  0  0  0  0  0
   -3.4264   -2.4754    0.6343 H   0  0  0  0  0  0  0  0  0  0  0  0
   -2.8521   -3.2013   -0.8865 H   0  0  0  0  0  0  0  0  0  0  0  0
   -1.2885   -2.4594    0.3902 C   0  0  0  0  0  0  0  0  0  0  0  0
   -0.4250   -3.0525    1.0114 O   0  0  0  0  0  0  0  0  0  0  0  0
   -1.0380   -1.1993   -0.1116 N   0  0  0  0  0  0  0  0  0  0  0  0
   -1.7903   -0.7444   -0.6265 H   0  0  0  0  0  0  0  0  0  0  0  0
    0.2549   -0.4997   -0.0232 C   0  0  1  0  0  0  0  0  0  0  0  0
    1.0045   -1.1588   -0.4759 H   0  0  0  0  0  0  0  0  0  0  0  0
    0.2033    0.7717   -0.8924 C   0  0  0  0  0  0  0  0  0  0  0  0
    1.1764    1.2681   -0.8121 H   0  0  0  0  0  0  0  0  0  0  0  0
    0.0756    0.4888   -1.9412 H   0  0  0  0  0  0  0  0  0  0  0  0
   -0.8848    1.7801   -0.4860 C   0  0  0  0  0  0  0  0  0  0  0  0
   -1.0535    1.7695    0.5930 H   0  0  0  0  0  0  0  0  0  0  0  0
   -0.5533    2.7902   -0.7477 H   0  0  0  0  0  0  0  0  0  0  0  0
   -2.4610    1.4341   -1.3728 S   0  0  0  0  0  0  0  0  0  0  0  0
   -2.1297    2.1022   -3.0529 C   0  0  0  0  0  0  0  0  0  0  0  0
   -1.2966    1.5715   -3.5225 H   0  0  0  0  0  0  0  0  0  0  0  0
   -3.0158    1.9853   -3.6839 H   0  0  0  0  0  0  0  0  0  0  0  0
   -1.8807    3.1661   -2.9953 H   0  0  0  0  0  0  0  0  0  0  0  0
    0.7733   -0.2430    1.4113 C   0  0  0  0  0  0  0  0  0  0  0  0
    1.9801   -0.1993    1.6107 O   0  0  0  0  0  0  0  0  0  0  0  0
   -0.0771    0.2321    2.3937 N   0  0  0  0  0  0  0  0  0  0  0  0
   -1.0674    0.0836    2.2283 H   0  0  0  0  0  0  0  0  0  0  0  0
    0.3689    0.5029    3.7546 C   0  0  0  0  0  0  0  0  0  0  0  0
    1.1572    1.2632    3.7565 H   0  0  0  0  0  0  0  0  0  0  0  0
   -0.4648    0.8707    4.3601 H   0  0  0  0  0  0  0  0  0  0  0  0
    0.7591   -0.4103    4.2164 H   0  0  0  0  0  0  0  0  0  0  0  0
  1  2  1  0  0  0  0
  2  3  1  0  0  0  0
  2  4  1  0  0  0  0
  2  5  1  0  0  0  0
  5  6  2  0  0  0  0
  5  7  1  0  0  0  0
  7  8  1  0  0  0  0
  7  9  1  0  0  0  0
  9 10  1  0  0  0  0
  9 11  1  0  0  0  0
  9 22  1  0  0  0  0
 11 12  1  0  0  0  0
 11 13  1  0  0  0  0
 11 14  1  0  0  0  0
 14 15  1  0  0  0  0
 14 16  1  0  0  0  0
 14 17  1  0  0  0  0
 17 18  1  0  0  0  0
 18 19  1  0  0  0  0
 18 20  1  0  0  0  0
 18 21  1  0  0  0  0
 22 23  2  0  0  0  0
 22 24  1  0  0  0  0
 24 25  1  0  0  0  0
 24 26  1  0  0  0  0
 26 27  1  0  0  0  0
 26 28  1  0  0  0  0
 26 29  1  0  0  0  0
M  END
$$$$

  -OEChem-04042216023D

 29 28  0     1  0  0  0  0  0999 V2000
   -2.6364   -4.0888    0.7383 H   0  0  0  0  0  0  0  0  0  0  0  0
   -2.6237   -3.1077    0.2552 C   0  0  0  0  0  0  0  0  0  0  0  0
   -3.3662   -2.4677    0.7379 H   0  0  0  0  0  0  0  0  0  0  0  0
   -2.8877   -3.2310   -0.7979 H   0  0  0  0  0  0  0  0  0  0  0  0
   -1.2457   -2.4852    0.3738 C   0  0  0  0  0  0  0  0  0  0  0  0
   -0.3457   -3.0943    0.9236 O   0  0  0  0  0  0  0  0  0  0  0  0
   -1.0197   -1.2217   -0.1308 N   0  0  0  0  0  0  0  0  0  0  0  0
   -1.8129   -0.7381   -0.5483 H   0  0  0  0  0  0  0  0  0  0  0  0
    0.2623   -0.5024   -0.0540 C   0  0  1  0  0  0  0  0  0  0  0  0
    1.0193   -1.1478   -0.5140 H   0  0  0  0  0  0  0  0  0  0  0  0
    0.2119    0.7924   -0.8942 C   0  0  0  0  0  0  0  0  0  0  0  0
    1.1914    1.2769   -0.8182 H   0  0  0  0  0  0  0  0  0  0  0  0
    0.0704    0.5260   -1.9453 H   0  0  0  0  0  0  0  0  0  0  0  0
   -0.8610    1.8179   -0.4817 C   0  0  0  0  0  0  0  0  0  0  0  0
   -0.8328    1.9828    0.5985 H   0  0  0  0  0  0  0  0  0  0  0  0
   -0.6281    2.7773   -0.9546 H   0  0  0  0  0  0  0  0  0  0  0  0
   -2.5625    1.3227   -0.9895 S   0  0  0  0  0  0  0  0  0  0  0  0
   -2.5284    1.5503   -2.8127 C   0  0  0  0  0  0  0  0  0  0  0  0
   -1.8174    0.8600   -3.2753 H   0  0  0  0  0  0  0  0  0  0  0  0
   -3.5207    1.3588   -3.2320 H   0  0  0  0  0  0  0  0  0  0  0  0
   -2.2369    2.5753   -3.0609 H   0  0  0  0  0  0  0  0  0  0  0  0
    0.7674   -0.2489    1.3853 C   0  0  0  0  0  0  0  0  0  0  0  0
    1.9710   -0.1956    1.6002 O   0  0  0  0  0  0  0  0  0  0  0  0
   -0.1024    0.2065    2.3607 N   0  0  0  0  0  0  0  0  0  0  0  0
   -1.0913    0.0793    2.1698 H   0  0  0  0  0  0  0  0  0  0  0  0
    0.3176    0.4837    3.7287 C   0  0  0  0  0  0  0  0  0  0  0  0
    1.1057    1.2440    3.7430 H   0  0  0  0  0  0  0  0  0  0  0  0
   -0.5277    0.8548    4.3161 H   0  0  0  0  0  0  0  0  0  0  0  0
    0.6983   -0.4268    4.2034 H   0  0  0  0  0  0  0  0  0  0  0  0
  1  2  1  0  0  0  0
  2  3  1  0  0  0  0
  2  4  1  0  0  0  0
  2  5  1  0  0  0  0
  5  6  2  0  0  0  0
  5  7  1  0  0  0  0
  7  8  1  0  0  0  0
  7  9  1  0  0  0  0
  9 10  1  0  0  0  0
  9 11  1  0  0  0  0
  9 22  1  0  0  0  0
 11 12  1  0  0  0  0
 11 13  1  0  0  0  0
 11 14  1  0  0  0  0
 14 15  1  0  0  0  0
 14 16  1  0  0  0  0
 14 17  1  0  0  0  0
 17 18  1  0  0  0  0
 18 19  1  0  0  0  0
 18 20  1  0  0  0  0
 18 21  1  0  0  0  0
 22 23  2  0  0  0  0
 22 24  1  0  0  0  0
 24 25  1  0  0  0  0
 24 26  1  0  0  0  0
 26 27  1  0  0  0  0
 26 28  1  0  0  0  0
 26 29  1  0  0  0  0
M  END
$$$$

  -OEChem-04042216023D

 29 28  0     1  0  0  0  0  0999 V2000
   -2.5980   -4.0998    0.8032 H   0  0  0  0  0  0  0  0  0  0  0  0
   -2.5990   -3.1248    0.3075 C   0  0  0  0  0  0  0  0  0  0  0  0
   -3.3100   -2.4712    0.8184 H   0  0  0  0  0  0  0  0  0  0  0  0
   -2.9161   -3.2574   -0.7296 H   0  0  0  0  0  0  0  0  0  0  0  0
   -1.2100   -2.5166    0.3504 C   0  0  0  0  0  0  0  0  0  0  0  0
   -0.2854   -3.1395    0.8405 O   0  0  0  0  0  0  0  0  0  0  0  0
   -1.0019   -1.2528   -0.1619 N   0  0  0  0  0  0  0  0  0  0  0  0
   -1.8230   -0.7472   -0.4870 H   0  0  0  0  0  0  0  0  0  0  0  0
    0.2722   -0.5191   -0.0873 C   0  0  1  0  0  0  0  0  0  0  0  0
    1.0385   -1.1517   -0.5503 H   0  0  0  0  0  0  0  0  0  0  0  0
    0.2243    0.8002   -0.8930 C   0  0  0  0  0  0  0  0  0  0  0  0
    1.2110    1.2719   -0.8273 H   0  0  0  0  0  0  0  0  0  0  0  0
    0.0634    0.5487   -1.9453 H   0  0  0  0  0  0  0  0  0  0  0  0
   -0.8317    1.8472   -0.4761 C   0  0  0  0  0  0  0  0  0  0  0  0
   -0.6264    2.1707    0.5490 H   0  0  0  0  0  0  0  0  0  0  0  0
   -0.7168    2.7283   -1.1158 H   0  0  0  0  0  0  0  0  0  0  0  0
   -2.5857    1.2862   -0.5734 S   0  0  0  0  0  0  0  0  0  0  0  0
   -2.8253    1.0363   -2.3780 C   0  0  0  0  0  0  0  0  0  0  0  0
   -2.1796    0.2334   -2.7453 H   0  0  0  0  0  0  0  0  0  0  0  0
   -3.8659    0.7680   -2.5841 H   0  0  0  0  0  0  0  0  0  0  0  0
   -2.5882    1.9555   -2.9223 H   0  0  0  0  0  0  0  0  0  0  0  0
    0.7591   -0.2606    1.3567 C   0  0  0  0  0  0  0  0  0  0  0  0
    1.9588   -0.2127    1.5938 O   0  0  0  0  0  0  0  0  0  0  0  0
   -0.1295    0.1865    2.3188 N   0  0  0  0  0  0  0  0  0  0  0  0
   -1.1168    0.1130    2.0930 H   0  0  0  0  0  0  0  0  0  0  0  0
    0.2634    0.4853    3.6900 C   0  0  0  0  0  0  0  0  0  0  0  0
    1.0367    1.2604    3.7084 H   0  0  0  0  0  0  0  0  0  0  0  0
   -0.5979    0.8456    4.2604 H   0  0  0  0  0  0  0  0  0  0  0  0
    0.6537   -0.4133    4.1793 H   0  0  0  0  0  0  0  0  0  0  0  0
  1  2  1  0  0  0  0
  2  3  1  0  0  0  0
  2  4  1  0  0  0  0
  2  5  1  0  0  0  0
  5  6  2  0  0  0  0
  5  7  1  0  0  0  0
  7  8  1  0  0  0  0
  7  9  1  0  0  0  0
  9 10  1  0  0  0  0
  9 11  1  0  0  0  0
  9 22  1  0  0  0  0
 11 12  1  0  0  0  0
 11 13  1  0  0  0  0
 11 14  1  0  0  0  0
 14 15  1  0  0  0  0
 14 16  1  0  0  0  0
 14 17  1  0  0  0  0
 17 18  1  0  0  0  0
 18 19  1  0  0  0  0
 18 20  1  0  0  0  0
 18 21  1  0  0  0  0
 22 23  2  0  0  0  0
 22 24  1  0  0  0  0
 24 25  1  0  0  0  0
 24 26  1  0  0  0  0
 26 27  1  0  0  0  0
 26 28  1  0  0  0  0
 26 29  1  0  0  0  0
M  END
$$$$

  -OEChem-04042216023D

 29 28  0     1  0  0  0  0  0999 V2000
   -2.4823   -4.1967    0.8977 H   0  0  0  0  0  0  0  0  0  0  0  0
   -2.5148   -3.2225    0.4015 C   0  0  0  0  0  0  0  0  0  0  0  0
   -3.2020   -2.5721    0.9479 H   0  0  0  0  0  0  0  0  0  0  0  0
   -2.8839   -3.3588   -0.6176 H   0  0  0  0  0  0  0  0  0  0  0  0
   -1.1291   -2.6061    0.3718 C   0  0  0  0  0  0  0  0  0  0  0  0
   -0.1790   -3.2196    0.8238 O   0  0  0  0  0  0  0  0  0  0  0  0
   -0.9530   -1.3468   -0.1640 N   0  0  0  0  0  0  0  0  0  0  0  0
   -1.7963   -0.8418   -0.4248 H   0  0  0  0  0  0  0  0  0  0  0  0
    0.3037   -0.5834   -0.0862 C   0  0  1  0  0  0  0  0  0  0  0  0
    1.0895   -1.2028   -0.5335 H   0  0  0  0  0  0  0  0  0  0  0  0
    0.2472    0.7387   -0.8886 C   0  0  0  0  0  0  0  0  0  0  0  0
    1.2327    1.2143   -0.8368 H   0  0  0  0  0  0  0  0  0  0  0  0
    0.0789    0.4713   -1.9363 H   0  0  0  0  0  0  0  0  0  0  0  0
   -0.8149    1.7960   -0.5032 C   0  0  0  0  0  0  0  0  0  0  0  0
   -0.4762    2.2885    0.4145 H   0  0  0  0  0  0  0  0  0  0  0  0
   -0.8452    2.5642   -1.2827 H   0  0  0  0  0  0  0  0  0  0  0  0
   -2.5288    1.1885   -0.1994 S   0  0  0  0  0  0  0  0  0  0  0  0
   -3.0951    0.8165   -1.9075 C   0  0  0  0  0  0  0  0  0  0  0  0
   -2.4525    0.0616   -2.3704 H   0  0  0  0  0  0  0  0  0  0  0  0
   -4.1224    0.4398   -1.8896 H   0  0  0  0  0  0  0  0  0  0  0  0
   -3.0681    1.7226   -2.5203 H   0  0  0  0  0  0  0  0  0  0  0  0
    0.7600   -0.2920    1.3613 C   0  0  0  0  0  0  0  0  0  0  0  0
    1.9536   -0.2299    1.6244 O   0  0  0  0  0  0  0  0  0  0  0  0
   -0.1552    0.1505    2.2999 N   0  0  0  0  0  0  0  0  0  0  0  0
   -1.1347    0.1294    2.0322 H   0  0  0  0  0  0  0  0  0  0  0  0
    0.2049    0.5176    3.6630 C   0  0  0  0  0  0  0  0  0  0  0  0
    0.9299    1.3382    3.6613 H   0  0  0  0  0  0  0  0  0  0  0  0
   -0.6824    0.8427    4.2144 H   0  0  0  0  0  0  0  0  0  0  0  0
    0.6435   -0.3393    4.1851 H   0  0  0  0  0  0  0  0  0  0  0  0
  1  2  1  0  0  0  0
  2  3  1  0  0  0  0
  2  4  1  0  0  0  0
  2  5  1  0  0  0  0
  5  6  2  0  0  0  0
  5  7  1  0  0  0  0
  7  8  1  0  0  0  0
  7  9  1  0  0  0  0
  9 10  1  0  0  0  0
  9 11  1  0  0  0  0
  9 22  1  0  0  0  0
 11 12  1  0  0  0  0
 11 13  1  0  0  0  0
 11 14  1  0  0  0  0
 14 15  1  0  0  0  0
 14 16  1  0  0  0  0
 14 17  1  0  0  0  0
 17 18  1  0  0  0  0
 18 19  1  0  0  0  0
 18 20  1  0  0  0  0
 18 21  1  0  0  0  0
 22 23  2  0  0  0  0
 22 24  1  0  0  0  0
 24 25  1  0  0  0  0
 24 26  1  0  0  0  0
 26 27  1  0  0  0  0
 26 28  1  0  0  0  0
 26 29  1  0  0  0  0
M  END
$$$$

  -OEChem-04042216023D

 29 28  0     1  0  0  0  0  0999 V2000
   -2.3308   -4.3208    0.9158 H   0  0  0  0  0  0  0  0  0  0  0  0
   -2.3979   -3.3340    0.4487 C   0  0  0  0  0  0  0  0  0  0  0  0
   -3.0722   -2.7098    1.0399 H   0  0  0  0  0  0  0  0  0  0  0  0
   -2.8051   -3.4488   -0.5585 H   0  0  0  0  0  0  0  0  0  0  0  0
   -1.0241   -2.6948    0.3817 C   0  0  0  0  0  0  0  0  0  0  0  0
   -0.0514   -3.2954    0.8017 O   0  0  0  0  0  0  0  0  0  0  0  0
   -0.8858   -1.4297   -0.1513 N   0  0  0  0  0  0  0  0  0  0  0  0
   -1.7478   -0.9319   -0.3561 H   0  0  0  0  0  0  0  0  0  0  0  0
    0.3471   -0.6317   -0.0510 C   0  0  1  0  0  0  0  0  0  0  0  0
    1.1548   -1.2314   -0.4863 H   0  0  0  0  0  0  0  0  0  0  0  0
    0.2666    0.6804   -0.8652 C   0  0  0  0  0  0  0  0  0  0  0  0
    1.2401    1.1802   -0.8118 H   0  0  0  0  0  0  0  0  0  0  0  0
    0.1201    0.3881   -1.9097 H   0  0  0  0  0  0  0  0  0  0  0  0
   -0.8289    1.7234   -0.5289 C   0  0  0  0  0  0  0  0  0  0  0  0
   -0.4086    2.3914    0.2304 H   0  0  0  0  0  0  0  0  0  0  0  0
   -1.0242    2.3355   -1.4153 H   0  0  0  0  0  0  0  0  0  0  0  0
   -2.4291    1.1069    0.1507 S   0  0  0  0  0  0  0  0  0  0  0  0
   -3.3439    0.7125   -1.3932 C   0  0  0  0  0  0  0  0  0  0  0  0
   -2.7849   -0.0072   -1.9986 H   0  0  0  0  0  0  0  0  0  0  0  0
   -4.3223    0.2854   -1.1528 H   0  0  0  0  0  0  0  0  0  0  0  0
   -3.4970    1.6210   -1.9836 H   0  0  0  0  0  0  0  0  0  0  0  0
    0.7852   -0.3238    1.3993 C   0  0  0  0  0  0  0  0  0  0  0  0
    1.9757   -0.2385    1.6704 O   0  0  0  0  0  0  0  0  0  0  0  0
   -0.1433    0.0958    2.3350 N   0  0  0  0  0  0  0  0  0  0  0  0
   -1.1125    0.1427    2.0324 H   0  0  0  0  0  0  0  0  0  0  0  0
    0.2083    0.5437    3.6758 C   0  0  0  0  0  0  0  0  0  0  0  0
    0.8339    1.4411    3.6287 H   0  0  0  0  0  0  0  0  0  0  0  0
   -0.6959    0.7806    4.2444 H   0  0  0  0  0  0  0  0  0  0  0  0
    0.7557   -0.2406    4.2093 H   0  0  0  0  0  0  0  0  0  0  0  0
  1  2  1  0  0  0  0
  2  3  1  0  0  0  0
  2  4  1  0  0  0  0
  2  5  1  0  0  0  0
  5  6  2  0  0  0  0
  5  7  1  0  0  0  0
  7  8  1  0  0  0  0
  7  9  1  0  0  0  0
  9 10  1  0  0  0  0
  9 11  1  0  0  0  0
  9 22  1  0  0  0  0
 11 12  1  0  0  0  0
 11 13  1  0  0  0  0
 11 14  1  0  0  0  0
 14 15  1  0  0  0  0
 14 16  1  0  0  0  0
 14 17  1  0  0  0  0
 17 18  1  0  0  0  0
 18 19  1  0  0  0  0
 18 20  1  0  0  0  0
 18 21  1  0  0  0  0
 22 23  2  0  0  0  0
 22 24  1  0  0  0  0
 24 25  1  0  0  0  0
 24 26  1  0  0  0  0
 26 27  1  0  0  0  0
 26 28  1  0  0  0  0
 26 29  1  0  0  0  0
M  END
$$$$

  -OEChem-04042216023D

 29 28  0     1  0  0  0  0  0999 V2000
   -0.6611   -4.9694    0.2125 H   0  0  0  0  0  0  0  0  0  0  0  0
   -1.1251   -4.0184   -0.0642 C   0  0  0  0  0  0  0  0  0  0  0  0
   -1.9282   -3.7999    0.6435 H   0  0  0  0  0  0  0  0  0  0  0  0
   -1.5467   -4.1118   -1.0678 H   0  0  0  0  0  0  0  0  0  0  0  0
   -0.0930   -2.9071   -0.0374 C   0  0  0  0  0  0  0  0  0  0  0  0
    1.0582   -3.1532    0.2758 O   0  0  0  0  0  0  0  0  0  0  0  0
   -0.4679   -1.6192   -0.3605 N   0  0  0  0  0  0  0  0  0  0  0  0
   -1.4644   -1.4532   -0.4738 H   0  0  0  0  0  0  0  0  0  0  0  0
    0.3949   -0.4429   -0.1625 C   0  0  1  0  0  0  0  0  0  0  0  0
    1.3342   -0.6850   -0.6738 H   0  0  0  0  0  0  0  0  0  0  0  0
   -0.1633    0.7811   -0.9198 C   0  0  0  0  0  0  0  0  0  0  0  0
    0.5470    1.6039   -0.7828 H   0  0  0  0  0  0  0  0  0  0  0  0
   -0.1501    0.5333   -1.9861 H   0  0  0  0  0  0  0  0  0  0  0  0
   -1.5782    1.3183   -0.5891 C   0  0  0  0  0  0  0  0  0  0  0  0
   -1.4740    2.3640   -0.2807 H   0  0  0  0  0  0  0  0  0  0  0  0
   -2.1713    1.3144   -1.5094 H   0  0  0  0  0  0  0  0  0  0  0  0
   -2.5431    0.4453    0.7156 S   0  0  0  0  0  0  0  0  0  0  0  0
   -4.0268    1.5191    0.8461 C   0  0  0  0  0  0  0  0  0  0  0  0
   -3.7374    2.5319    1.1422 H   0  0  0  0  0  0  0  0  0  0  0  0
   -4.7159    1.1194    1.5962 H   0  0  0  0  0  0  0  0  0  0  0  0
   -4.5465    1.5690   -0.1154 H   0  0  0  0  0  0  0  0  0  0  0  0
    0.8535   -0.1386    1.2863 C   0  0  0  0  0  0  0  0  0  0  0  0
    1.9630    0.3466    1.4696 O   0  0  0  0  0  0  0  0  0  0  0  0
   -0.0215   -0.1867    2.3549 N   0  0  0  0  0  0  0  0  0  0  0  0
   -0.9873   -0.4198    2.1408 H   0  0  0  0  0  0  0  0  0  0  0  0
    0.3188    0.2602    3.6992 C   0  0  0  0  0  0  0  0  0  0  0  0
    0.5070    1.3387    3.7082 H   0  0  0  0  0  0  0  0  0  0  0  0
   -0.5032    0.0441    4.3882 H   0  0  0  0  0  0  0  0  0  0  0  0
    1.2142   -0.2574    4.0594 H   0  0  0  0  0  0  0  0  0  0  0  0
  1  2  1  0  0  0  0
  2  3  1  0  0  0  0
  2  4  1  0  0  0  0
  2  5  1  0  0  0  0
  5  6  2  0  0  0  0
  5  7  1  0  0  0  0
  7  8  1  0  0  0  0
  7  9  1  0  0  0  0
  9 10  1  0  0  0  0
  9 11  1  0  0  0  0
  9 22  1  0  0  0  0
 11 12  1  0  0  0  0
 11 13  1  0  0  0  0
 11 14  1  0  0  0  0
 14 15  1  0  0  0  0
 14 16  1  0  0  0  0
 14 17  1  0  0  0  0
 17 18  1  0  0  0  0
 18 19  1  0  0  0  0
 18 20  1  0  0  0  0
 18 21  1  0  0  0  0
 22 23  2  0  0  0  0
 22 24  1  0  0  0  0
 24 25  1  0  0  0  0
 24 26  1  0  0  0  0
 26 27  1  0  0  0  0
 26 28  1  0  0  0  0
 26 29  1  0  0  0  0
M  END
$$$$

  -OEChem-04042216023D

 29 28  0     1  0  0  0  0  0999 V2000
   -0.9907   -5.0250    0.2558 H   0  0  0  0  0  0  0  0  0  0  0  0
   -1.3932   -4.0293    0.0487 C   0  0  0  0  0  0  0  0  0  0  0  0
   -2.1524   -3.7938    0.7980 H   0  0  0  0  0  0  0  0  0  0  0  0
   -1.8555   -4.0364   -0.9412 H   0  0  0  0  0  0  0  0  0  0  0  0
   -0.2818   -2.9979    0.0949 C   0  0  0  0  0  0  0  0  0  0  0  0
    0.8454   -3.3346    0.4112 O   0  0  0  0  0  0  0  0  0  0  0  0
   -0.5561   -1.6816   -0.2166 N   0  0  0  0  0  0  0  0  0  0  0  0
   -1.5350   -1.4397   -0.3395 H   0  0  0  0  0  0  0  0  0  0  0  0
    0.3985   -0.5787   -0.0150 C   0  0  1  0  0  0  0  0  0  0  0  0
    1.3162   -0.9163   -0.5117 H   0  0  0  0  0  0  0  0  0  0  0  0
   -0.0204    0.6637   -0.8305 C   0  0  0  0  0  0  0  0  0  0  0  0
    0.7472    1.4265   -0.6589 H   0  0  0  0  0  0  0  0  0  0  0  0
    0.0311    0.4024   -1.8925 H   0  0  0  0  0  0  0  0  0  0  0  0
   -1.3946    1.3266   -0.5771 C   0  0  0  0  0  0  0  0  0  0  0  0
   -1.2549    2.4128   -0.5840 H   0  0  0  0  0  0  0  0  0  0  0  0
   -2.0470    1.0818   -1.4213 H   0  0  0  0  0  0  0  0  0  0  0  0
   -2.2911    0.8668    0.9604 S   0  0  0  0  0  0  0  0  0  0  0  0
   -3.7398    1.9925    0.8853 C   0  0  0  0  0  0  0  0  0  0  0  0
   -4.3909    1.8248    1.7486 H   0  0  0  0  0  0  0  0  0  0  0  0
   -4.3154    1.8132   -0.0278 H   0  0  0  0  0  0  0  0  0  0  0  0
   -3.4098    3.0359    0.8944 H   0  0  0  0  0  0  0  0  0  0  0  0
    0.8975   -0.3105    1.4289 C   0  0  0  0  0  0  0  0  0  0  0  0
    2.0485    0.0739    1.5941 O   0  0  0  0  0  0  0  0  0  0  0  0
    0.0434   -0.2885    2.5153 N   0  0  0  0  0  0  0  0  0  0  0  0
   -0.9459   -0.4019    2.3127 H   0  0  0  0  0  0  0  0  0  0  0  0
    0.4433    0.1559    3.8442 C   0  0  0  0  0  0  0  0  0  0  0  0
    0.7330    1.2115    3.8245 H   0  0  0  0  0  0  0  0  0  0  0  0
   -0.3861    0.0359    4.5473 H   0  0  0  0  0  0  0  0  0  0  0  0
    1.2904   -0.4357    4.2067 H   0  0  0  0  0  0  0  0  0  0  0  0
  1  2  1  0  0  0  0
  2  3  1  0  0  0  0
  2  4  1  0  0  0  0
  2  5  1  0  0  0  0
  5  6  2  0  0  0  0
  5  7  1  0  0  0  0
  7  8  1  0  0  0  0
  7  9  1  0  0  0  0
  9 10  1  0  0  0  0
  9 11  1  0  0  0  0
  9 22  1  0  0  0  0
 11 12  1  0  0  0  0
 11 13  1  0  0  0  0
 11 14  1  0  0  0  0
 14 15  1  0  0  0  0
 14 16  1  0  0  0  0
 14 17  1  0  0  0  0
 17 18  1  0  0  0  0
 18 19  1  0  0  0  0
 18 20  1  0  0  0  0
 18 21  1  0  0  0  0
 22 23  2  0  0  0  0
 22 24  1  0  0  0  0
 24 25  1  0  0  0  0
 24 26  1  0  0  0  0
 26 27  1  0  0  0  0
 26 28  1  0  0  0  0
 26 29  1  0  0  0  0
M  END
$$$$

  -OEChem-04042216023D

 29 28  0     1  0  0  0  0  0999 V2000
   -1.3176   -5.0179    0.4195 H   0  0  0  0  0  0  0  0  0  0  0  0
   -1.6627   -3.9979    0.2275 C   0  0  0  0  0  0  0  0  0  0  0  0
   -2.3654   -3.7106    1.0132 H   0  0  0  0  0  0  0  0  0  0  0  0
   -2.1737   -3.9768   -0.7379 H   0  0  0  0  0  0  0  0  0  0  0  0
   -0.4832   -3.0440    0.2125 C   0  0  0  0  0  0  0  0  0  0  0  0
    0.6328   -3.4576    0.4712 O   0  0  0  0  0  0  0  0  0  0  0  0
   -0.6815   -1.7131   -0.0967 N   0  0  0  0  0  0  0  0  0  0  0  0
   -1.6440   -1.4067   -0.1964 H   0  0  0  0  0  0  0  0  0  0  0  0
    0.3626   -0.6808    0.0188 C   0  0  1  0  0  0  0  0  0  0  0  0
    1.2176   -1.1004   -0.5249 H   0  0  0  0  0  0  0  0  0  0  0  0
   -0.0083    0.5631   -0.8186 C   0  0  0  0  0  0  0  0  0  0  0  0
    0.8182    1.2730   -0.7045 H   0  0  0  0  0  0  0  0  0  0  0  0
   -0.0292    0.2711   -1.8735 H   0  0  0  0  0  0  0  0  0  0  0  0
   -1.3143    1.3300   -0.5164 C   0  0  0  0  0  0  0  0  0  0  0  0
   -1.1805    2.3698   -0.8325 H   0  0  0  0  0  0  0  0  0  0  0  0
   -2.1058    0.9033   -1.1403 H   0  0  0  0  0  0  0  0  0  0  0  0
   -1.9209    1.3166    1.2154 S   0  0  0  0  0  0  0  0  0  0  0  0
   -3.3602    2.4507    1.1051 C   0  0  0  0  0  0  0  0  0  0  0  0
   -4.0901    2.0714    0.3839 H   0  0  0  0  0  0  0  0  0  0  0  0
   -3.8454    2.5376    2.0819 H   0  0  0  0  0  0  0  0  0  0  0  0
   -3.0347    3.4460    0.7873 H   0  0  0  0  0  0  0  0  0  0  0  0
    0.9829   -0.4384    1.4196 C   0  0  0  0  0  0  0  0  0  0  0  0
    2.1708   -0.1497    1.4972 O   0  0  0  0  0  0  0  0  0  0  0  0
    0.2142   -0.3457    2.5646 N   0  0  0  0  0  0  0  0  0  0  0  0
   -0.7924   -0.3453    2.4282 H   0  0  0  0  0  0  0  0  0  0  0  0
    0.7458    0.0857    3.8511 C   0  0  0  0  0  0  0  0  0  0  0  0
    1.1066    1.1177    3.7891 H   0  0  0  0  0  0  0  0  0  0  0  0
   -0.0330    0.0342    4.6179 H   0  0  0  0  0  0  0  0  0  0  0  0
    1.5748   -0.5606    4.1584 H   0  0  0  0  0  0  0  0  0  0  0  0
  1  2  1  0  0  0  0
  2  3  1  0  0  0  0
  2  4  1  0  0  0  0
  2  5  1  0  0  0  0
  5  6  2  0  0  0  0
  5  7  1  0  0  0  0
  7  8  1  0  0  0  0
  7  9  1  0  0  0  0
  9 10  1  0  0  0  0
  9 11  1  0  0  0  0
  9 22  1  0  0  0  0
 11 12  1  0  0  0  0
 11 13  1  0  0  0  0
 11 14  1  0  0  0  0
 14 15  1  0  0  0  0
 14 16  1  0  0  0  0
 14 17  1  0  0  0  0
 17 18  1  0  0  0  0
 18 19  1  0  0  0  0
 18 20  1  0  0  0  0
 18 21  1  0  0  0  0
 22 23  2  0  0  0  0
 22 24  1  0  0  0  0
 24 25  1  0  0  0  0
 24 26  1  0  0  0  0
 26 27  1  0  0  0  0
 26 28  1  0  0  0  0
 26 29  1  0  0  0  0
M  END
$$$$

  -OEChem-04042216023D

 29 28  0     1  0  0  0  0  0999 V2000
   -0.8030   -4.8463    0.9477 H   0  0  0  0  0  0  0  0  0  0  0  0
   -1.2713   -3.8775    0.7511 C   0  0  0  0  0  0  0  0  0  0  0  0
   -1.8155   -3.5622    1.6444 H   0  0  0  0  0  0  0  0  0  0  0  0
   -1.9752   -3.9895   -0.0772 H   0  0  0  0  0  0  0  0  0  0  0  0
   -0.2137   -2.8495    0.3969 C   0  0  0  0  0  0  0  0  0  0  0  0
    0.9634   -3.1635    0.3969 O   0  0  0  0  0  0  0  0  0  0  0  0
   -0.5901   -1.5530    0.1117 N   0  0  0  0  0  0  0  0  0  0  0  0
   -1.5684   -1.3193    0.2440 H   0  0  0  0  0  0  0  0  0  0  0  0
    0.3564   -0.4506   -0.1308 C   0  0  1  0  0  0  0  0  0  0  0  0
    1.0458   -0.8588   -0.8793 H   0  0  0  0  0  0  0  0  0  0  0  0
   -0.3266    0.7091   -0.8942 C   0  0  0  0  0  0  0  0  0  0  0  0
    0.4404    1.4719   -1.0672 H   0  0  0  0  0  0  0  0  0  0  0  0
   -0.6285    0.3346   -1.8776 H   0  0  0  0  0  0  0  0  0  0  0  0
   -1.5450    1.4186   -0.2740 C   0  0  0  0  0  0  0  0  0  0  0  0
   -1.7390    2.3321   -0.8453 H   0  0  0  0  0  0  0  0  0  0  0  0
   -2.4178    0.7697   -0.3919 H   0  0  0  0  0  0  0  0  0  0  0  0
   -1.4053    1.8571    1.4997 S   0  0  0  0  0  0  0  0  0  0  0  0
   -2.9973    2.7222    1.7928 C   0  0  0  0  0  0  0  0  0  0  0  0
   -3.8377    2.0540    1.5838 H   0  0  0  0  0  0  0  0  0  0  0  0
   -3.0597    3.0484    2.8353 H   0  0  0  0  0  0  0  0  0  0  0  0
   -3.0759    3.6015    1.1464 H   0  0  0  0  0  0  0  0  0  0  0  0
    1.3540   -0.0722    1.0011 C   0  0  0  0  0  0  0  0  0  0  0  0
    2.4126    0.4555    0.6939 O   0  0  0  0  0  0  0  0  0  0  0  0
    1.0829    0.0730    2.3449 N   0  0  0  0  0  0  0  0  0  0  0  0
    1.8743    0.4503    2.8587 H   0  0  0  0  0  0  0  0  0  0  0  0
    0.1224   -0.7350    3.0820 C   0  0  0  0  0  0  0  0  0  0  0  0
    0.0446   -0.3703    4.1108 H   0  0  0  0  0  0  0  0  0  0  0  0
   -0.8725   -0.6841    2.6322 H   0  0  0  0  0  0  0  0  0  0  0  0
    0.4468   -1.7804    3.1087 H   0  0  0  0  0  0  0  0  0  0  0  0
  1  2  1  0  0  0  0
  2  3  1  0  0  0  0
  2  4  1  0  0  0  0
  2  5  1  0  0  0  0
  5  6  2  0  0  0  0
  5  7  1  0  0  0  0
  7  8  1  0  0  0  0
  7  9  1  0  0  0  0
  9 10  1  0  0  0  0
  9 11  1  0  0  0  0
  9 22  1  0  0  0  0
 11 12  1  0  0  0  0
 11 13  1  0  0  0  0
 11 14  1  0  0  0  0
 14 15  1  0  0  0  0
 14 16  1  0  0  0  0
 14 17  1  0  0  0  0
 17 18  1  0  0  0  0
 18 19  1  0  0  0  0
 18 20  1  0  0  0  0
 18 21  1  0  0  0  0
 22 23  2  0  0  0  0
 22 24  1  0  0  0  0
 24 25  1  0  0  0  0
 24 26  1  0  0  0  0
 26 27  1  0  0  0  0
 26 28  1  0  0  0  0
 26 29  1  0  0  0  0
M  END
$$$$

  -OEChem-04042216023D

 29 28  0     1  0  0  0  0  0999 V2000
   -1.7208   -4.8463    0.4909 H   0  0  0  0  0  0  0  0  0  0  0  0
   -1.8997   -3.8149    0.1735 C   0  0  0  0  0  0  0  0  0  0  0  0
   -2.6860   -3.3867    0.7995 H   0  0  0  0  0  0  0  0  0  0  0  0
   -2.2315   -3.8201   -0.8675 H   0  0  0  0  0  0  0  0  0  0  0  0
   -0.6269   -3.0006    0.3091 C   0  0  0  0  0  0  0  0  0  0  0  0
    0.3932   -3.5332    0.7066 O   0  0  0  0  0  0  0  0  0  0  0  0
   -0.6329   -1.6598   -0.0218 N   0  0  0  0  0  0  0  0  0  0  0  0
   -1.5212   -1.2610   -0.3041 H   0  0  0  0  0  0  0  0  0  0  0  0
    0.5142   -0.7557    0.1787 C   0  0  1  0  0  0  0  0  0  0  0  0
    1.3629   -1.2603   -0.2989 H   0  0  0  0  0  0  0  0  0  0  0  0
    0.3296    0.5358   -0.6516 C   0  0  0  0  0  0  0  0  0  0  0  0
    1.2214    1.1547   -0.5025 H   0  0  0  0  0  0  0  0  0  0  0  0
    0.3096    0.2529   -1.7091 H   0  0  0  0  0  0  0  0  0  0  0  0
   -0.9049    1.4170   -0.3804 C   0  0  0  0  0  0  0  0  0  0  0  0
   -0.8726    2.2660   -1.0712 H   0  0  0  0  0  0  0  0  0  0  0  0
   -1.8104    0.8471   -0.6081 H   0  0  0  0  0  0  0  0  0  0  0  0
   -1.0393    2.0767    1.3258 S   0  0  0  0  0  0  0  0  0  0  0  0
   -2.4936    3.1876    1.1816 C   0  0  0  0  0  0  0  0  0  0  0  0
   -3.3776    2.6207    0.8757 H   0  0  0  0  0  0  0  0  0  0  0  0
   -2.3014    3.9693    0.4404 H   0  0  0  0  0  0  0  0  0  0  0  0
   -2.6987    3.6636    2.1454 H   0  0  0  0  0  0  0  0  0  0  0  0
    1.0052   -0.5943    1.6393 C   0  0  0  0  0  0  0  0  0  0  0  0
    2.2047   -0.4724    1.8542 O   0  0  0  0  0  0  0  0  0  0  0  0
    0.1220   -0.4099    2.6874 N   0  0  0  0  0  0  0  0  0  0  0  0
   -0.8492   -0.2651    2.4325 H   0  0  0  0  0  0  0  0  0  0  0  0
    0.5524   -0.0389    4.0292 C   0  0  0  0  0  0  0  0  0  0  0  0
    1.0199    0.9512    4.0197 H   0  0  0  0  0  0  0  0  0  0  0  0
   -0.3056   -0.0129    4.7076 H   0  0  0  0  0  0  0  0  0  0  0  0
    1.2739   -0.7667    4.4155 H   0  0  0  0  0  0  0  0  0  0  0  0
  1  2  1  0  0  0  0
  2  3  1  0  0  0  0
  2  4  1  0  0  0  0
  2  5  1  0  0  0  0
  5  6  2  0  0  0  0
  5  7  1  0  0  0  0
  7  8  1  0  0  0  0
  7  9  1  0  0  0  0
  9 10  1  0  0  0  0
  9 11  1  0  0  0  0
  9 22  1  0  0  0  0
 11 12  1  0  0  0  0
 11 13  1  0  0  0  0
 11 14  1  0  0  0  0
 14 15  1  0  0  0  0
 14 16  1  0  0  0  0
 14 17  1  0  0  0  0
 17 18  1  0  0  0  0
 18 19  1  0  0  0  0
 18 20  1  0  0  0  0
 18 21  1  0  0  0  0
 22 23  2  0  0  0  0
 22 24  1  0  0  0  0
 24 25  1  0  0  0  0
 24 26  1  0  0  0  0
 26 27  1  0  0  0  0
 26 28  1  0  0  0  0
 26 29  1  0  0  0  0
M  END
$$$$

  -OEChem-04042216023D

 29 28  0     1  0  0  0  0  0999 V2000
   -2.9243   -4.3819    0.1674 H   0  0  0  0  0  0  0  0  0  0  0  0
   -2.8634   -3.3366   -0.1487 C   0  0  0  0  0  0  0  0  0  0  0  0
   -3.6525   -2.7718    0.3531 H   0  0  0  0  0  0  0  0  0  0  0  0
   -3.0177   -3.2873   -1.2291 H   0  0  0  0  0  0  0  0  0  0  0  0
   -1.5057   -2.7623    0.2088 C   0  0  0  0  0  0  0  0  0  0  0  0
   -0.6830   -3.4569    0.7769 O   0  0  0  0  0  0  0  0  0  0  0  0
   -1.2079   -1.4534   -0.1158 N   0  0  0  0  0  0  0  0  0  0  0  0
   -1.9233   -0.9251   -0.6035 H   0  0  0  0  0  0  0  0  0  0  0  0
    0.0668   -0.7884    0.2135 C   0  0  1  0  0  0  0  0  0  0  0  0
    0.8553   -1.4335   -0.1920 H   0  0  0  0  0  0  0  0  0  0  0  0
    0.1960    0.5445   -0.5547 C   0  0  0  0  0  0  0  0  0  0  0  0
    1.1820    0.9733   -0.3543 H   0  0  0  0  0  0  0  0  0  0  0  0
    0.1718    0.3064   -1.6229 H   0  0  0  0  0  0  0  0  0  0  0  0
   -0.8908    1.6057   -0.2938 C   0  0  0  0  0  0  0  0  0  0  0  0
   -0.8165    2.3582   -1.0856 H   0  0  0  0  0  0  0  0  0  0  0  0
   -1.8828    1.1531   -0.3736 H   0  0  0  0  0  0  0  0  0  0  0  0
   -0.7693    2.4935    1.3150 S   0  0  0  0  0  0  0  0  0  0  0  0
    0.9957    2.9799    1.4809 C   0  0  0  0  0  0  0  0  0  0  0  0
    1.3335    3.5032    0.5819 H   0  0  0  0  0  0  0  0  0  0  0  0
    1.1195    3.6452    2.3403 H   0  0  0  0  0  0  0  0  0  0  0  0
    1.6249    2.0982    1.6369 H   0  0  0  0  0  0  0  0  0  0  0  0
    0.4030   -0.7067    1.7219 C   0  0  0  0  0  0  0  0  0  0  0  0
    1.5747   -0.7618    2.0744 O   0  0  0  0  0  0  0  0  0  0  0  0
   -0.5524   -0.3353    2.6500 N   0  0  0  0  0  0  0  0  0  0  0  0
   -1.4698   -0.0969    2.2892 H   0  0  0  0  0  0  0  0  0  0  0  0
   -0.2422   -0.0317    4.0407 C   0  0  0  0  0  0  0  0  0  0  0  0
    0.4247    0.8345    4.1037 H   0  0  0  0  0  0  0  0  0  0  0  0
   -1.1598    0.1956    4.5914 H   0  0  0  0  0  0  0  0  0  0  0  0
    0.2439   -0.8882    4.5196 H   0  0  0  0  0  0  0  0  0  0  0  0
  1  2  1  0  0  0  0
  2  3  1  0  0  0  0
  2  4  1  0  0  0  0
  2  5  1  0  0  0  0
  5  6  2  0  0  0  0
  5  7  1  0  0  0  0
  7  8  1  0  0  0  0
  7  9  1  0  0  0  0
  9 10  1  0  0  0  0
  9 11  1  0  0  0  0
  9 22  1  0  0  0  0
 11 12  1  0  0  0  0
 11 13  1  0  0  0  0
 11 14  1  0  0  0  0
 14 15  1  0  0  0  0
 14 16  1  0  0  0  0
 14 17  1  0  0  0  0
 17 18  1  0  0  0  0
 18 19  1  0  0  0  0
 18 20  1  0  0  0  0
 18 21  1  0  0  0  0
 22 23  2  0  0  0  0
 22 24  1  0  0  0  0
 24 25  1  0  0  0  0
 24 26  1  0  0  0  0
 26 27  1  0  0  0  0
 26 28  1  0  0  0  0
 26 29  1  0  0  0  0
M  END
$$$$

  -OEChem-04042216023D

 29 28  0     1  0  0  0  0  0999 V2000
   -2.6087   -4.4445   -0.0273 H   0  0  0  0  0  0  0  0  0  0  0  0
   -2.6003   -3.3938   -0.3314 C   0  0  0  0  0  0  0  0  0  0  0  0
   -3.4680   -2.8945    0.1061 H   0  0  0  0  0  0  0  0  0  0  0  0
   -2.6674   -3.3436   -1.4207 H   0  0  0  0  0  0  0  0  0  0  0  0
   -1.3234   -2.7248    0.1411 C   0  0  0  0  0  0  0  0  0  0  0  0
   -0.4913   -3.3696    0.7522 O   0  0  0  0  0  0  0  0  0  0  0  0
   -1.1063   -1.3896   -0.1377 N   0  0  0  0  0  0  0  0  0  0  0  0
   -1.7937   -0.9277   -0.7240 H   0  0  0  0  0  0  0  0  0  0  0  0
    0.1351   -0.6668    0.2007 C   0  0  1  0  0  0  0  0  0  0  0  0
    0.9570   -1.2238   -0.2636 H   0  0  0  0  0  0  0  0  0  0  0  0
    0.1391    0.7340   -0.4421 C   0  0  0  0  0  0  0  0  0  0  0  0
    1.1049    1.2114   -0.2637 H   0  0  0  0  0  0  0  0  0  0  0  0
    0.0632    0.5922   -1.5248 H   0  0  0  0  0  0  0  0  0  0  0  0
   -1.0172    1.6602   -0.0136 C   0  0  0  0  0  0  0  0  0  0  0  0
   -1.2152    2.3459   -0.8437 H   0  0  0  0  0  0  0  0  0  0  0  0
   -1.9334    1.0876    0.1539 H   0  0  0  0  0  0  0  0  0  0  0  0
   -0.6751    2.7032    1.4695 S   0  0  0  0  0  0  0  0  0  0  0  0
    1.0700    3.2701    1.3540 C   0  0  0  0  0  0  0  0  0  0  0  0
    1.2710    3.6919    0.3651 H   0  0  0  0  0  0  0  0  0  0  0  0
    1.2630    4.0387    2.1081 H   0  0  0  0  0  0  0  0  0  0  0  0
    1.7553    2.4356    1.5332 H   0  0  0  0  0  0  0  0  0  0  0  0
    0.4927   -0.6215    1.7055 C   0  0  0  0  0  0  0  0  0  0  0  0
    1.6719   -0.5978    2.0360 O   0  0  0  0  0  0  0  0  0  0  0  0
   -0.4707   -0.3371    2.6560 N   0  0  0  0  0  0  0  0  0  0  0  0
   -1.4213   -0.2156    2.3254 H   0  0  0  0  0  0  0  0  0  0  0  0
   -0.1603   -0.0340    4.0468 C   0  0  0  0  0  0  0  0  0  0  0  0
    0.4198    0.8923    4.1148 H   0  0  0  0  0  0  0  0  0  0  0  0
   -1.0829    0.0908    4.6214 H   0  0  0  0  0  0  0  0  0  0  0  0
    0.4186   -0.8474    4.4969 H   0  0  0  0  0  0  0  0  0  0  0  0
  1  2  1  0  0  0  0
  2  3  1  0  0  0  0
  2  4  1  0  0  0  0
  2  5  1  0  0  0  0
  5  6  2  0  0  0  0
  5  7  1  0  0  0  0
  7  8  1  0  0  0  0
  7  9  1  0  0  0  0
  9 10  1  0  0  0  0
  9 11  1  0  0  0  0
  9 22  1  0  0  0  0
 11 12  1  0  0  0  0
 11 13  1  0  0  0  0
 11 14  1  0  0  0  0
 14 15  1  0  0  0  0
 14 16  1  0  0  0  0
 14 17  1  0  0  0  0
 17 18  1  0  0  0  0
 18 19  1  0  0  0  0
 18 20  1  0  0  0  0
 18 21  1  0  0  0  0
 22 23  2  0  0  0  0
 22 24  1  0  0  0  0
 24 25  1  0  0  0  0
 24 26  1  0  0  0  0
 26 27  1  0  0  0  0
 26 28  1  0  0  0  0
 26 29  1  0  0  0  0
M  END
$$$$

  -OEChem-04042216023D

 29 28  0     1  0  0  0  0  0999 V2000
   -2.6522   -4.3351    0.1670 H   0  0  0  0  0  0  0  0  0  0  0  0
   -2.6122   -3.3126   -0.2193 C   0  0  0  0  0  0  0  0  0  0  0  0
   -3.4853   -2.7655    0.1440 H   0  0  0  0  0  0  0  0  0  0  0  0
   -2.6397   -3.3494   -1.3109 H   0  0  0  0  0  0  0  0  0  0  0  0
   -1.3397   -2.6299    0.2458 C   0  0  0  0  0  0  0  0  0  0  0  0
   -0.5383   -3.2400    0.9290 O   0  0  0  0  0  0  0  0  0  0  0  0
   -1.0927   -1.3204   -0.1165 N   0  0  0  0  0  0  0  0  0  0  0  0
   -1.7476   -0.8980   -0.7669 H   0  0  0  0  0  0  0  0  0  0  0  0
    0.1679   -0.6082    0.1723 C   0  0  1  0  0  0  0  0  0  0  0  0
    0.9783   -1.1951   -0.2754 H   0  0  0  0  0  0  0  0  0  0  0  0
    0.1715    0.7699   -0.5149 C   0  0  0  0  0  0  0  0  0  0  0  0
    1.1473    1.2380   -0.3808 H   0  0  0  0  0  0  0  0  0  0  0  0
    0.0632    0.5994   -1.5905 H   0  0  0  0  0  0  0  0  0  0  0  0
   -0.9751    1.7036   -0.0688 C   0  0  0  0  0  0  0  0  0  0  0  0
   -1.3854    2.1718   -0.9692 H   0  0  0  0  0  0  0  0  0  0  0  0
   -1.7884    1.1323    0.3869 H   0  0  0  0  0  0  0  0  0  0  0  0
   -0.5086    3.0786    1.0753 S   0  0  0  0  0  0  0  0  0  0  0  0
    1.3207    3.2634    1.1424 C   0  0  0  0  0  0  0  0  0  0  0  0
    1.7247    3.4455    0.1423 H   0  0  0  0  0  0  0  0  0  0  0  0
    1.5854    4.1102    1.7823 H   0  0  0  0  0  0  0  0  0  0  0  0
    1.7831    2.3621    1.5571 H   0  0  0  0  0  0  0  0  0  0  0  0
    0.5382   -0.4759    1.6691 C   0  0  0  0  0  0  0  0  0  0  0  0
    1.7196   -0.4473    1.9901 O   0  0  0  0  0  0  0  0  0  0  0  0
   -0.4138   -0.1076    2.6023 N   0  0  0  0  0  0  0  0  0  0  0  0
   -1.3809   -0.0999    2.2987 H   0  0  0  0  0  0  0  0  0  0  0  0
   -0.0996    0.2185    3.9867 C   0  0  0  0  0  0  0  0  0  0  0  0
    0.5794    1.0765    4.0324 H   0  0  0  0  0  0  0  0  0  0  0  0
   -1.0134    0.4721    4.5321 H   0  0  0  0  0  0  0  0  0  0  0  0
    0.3748   -0.6348    4.4825 H   0  0  0  0  0  0  0  0  0  0  0  0
  1  2  1  0  0  0  0
  2  3  1  0  0  0  0
  2  4  1  0  0  0  0
  2  5  1  0  0  0  0
  5  6  2  0  0  0  0
  5  7  1  0  0  0  0
  7  8  1  0  0  0  0
  7  9  1  0  0  0  0
  9 10  1  0  0  0  0
  9 11  1  0  0  0  0
  9 22  1  0  0  0  0
 11 12  1  0  0  0  0
 11 13  1  0  0  0  0
 11 14  1  0  0  0  0
 14 15  1  0  0  0  0
 14 16  1  0  0  0  0
 14 17  1  0  0  0  0
 17 18  1  0  0  0  0
 18 19  1  0  0  0  0
 18 20  1  0  0  0  0
 18 21  1  0  0  0  0
 22 23  2  0  0  0  0
 22 24  1  0  0  0  0
 24 25  1  0  0  0  0
 24 26  1  0  0  0  0
 26 27  1  0  0  0  0
 26 28  1  0  0  0  0
 26 29  1  0  0  0  0
M  END
$$$$

  -OEChem-04042216023D

 29 28  0     1  0  0  0  0  0999 V2000
   -2.6543   -4.1486    0.5285 H   0  0  0  0  0  0  0  0  0  0  0  0
   -2.6339   -3.1526    0.0764 C   0  0  0  0  0  0  0  0  0  0  0  0
   -3.4677   -2.5689    0.4739 H   0  0  0  0  0  0  0  0  0  0  0  0
   -2.7518   -3.2566   -1.0049 H   0  0  0  0  0  0  0  0  0  0  0  0
   -1.3195   -2.4638    0.3919 C   0  0  0  0  0  0  0  0  0  0  0  0
   -0.4968   -3.0203    1.0950 O   0  0  0  0  0  0  0  0  0  0  0  0
   -1.0673   -1.2031   -0.1131 N   0  0  0  0  0  0  0  0  0  0  0  0
   -1.7500   -0.8381   -0.7701 H   0  0  0  0  0  0  0  0  0  0  0  0
    0.2360   -0.5154   -0.0138 C   0  0  1  0  0  0  0  0  0  0  0  0
    0.9848   -1.1836   -0.4546 H   0  0  0  0  0  0  0  0  0  0  0  0
    0.2135    0.7547   -0.8903 C   0  0  0  0  0  0  0  0  0  0  0  0
    1.2041    1.2195   -0.8485 H   0  0  0  0  0  0  0  0  0  0  0  0
    0.0552    0.4539   -1.9309 H   0  0  0  0  0  0  0  0  0  0  0  0
   -0.8568    1.7995   -0.5205 C   0  0  0  0  0  0  0  0  0  0  0  0
   -1.5280    1.9415   -1.3734 H   0  0  0  0  0  0  0  0  0  0  0  0
   -1.4647    1.4487    0.3182 H   0  0  0  0  0  0  0  0  0  0  0  0
   -0.1265    3.4320   -0.0738 S   0  0  0  0  0  0  0  0  0  0  0  0
    0.9383    3.1687    1.3986 C   0  0  0  0  0  0  0  0  0  0  0  0
    1.7005    2.4110    1.1975 H   0  0  0  0  0  0  0  0  0  0  0  0
    1.4441    4.1018    1.6635 H   0  0  0  0  0  0  0  0  0  0  0  0
    0.3327    2.8516    2.2509 H   0  0  0  0  0  0  0  0  0  0  0  0
    0.7279   -0.2756    1.4327 C   0  0  0  0  0  0  0  0  0  0  0  0
    1.9290   -0.2842    1.6683 O   0  0  0  0  0  0  0  0  0  0  0  0
   -0.1381    0.2008    2.4009 N   0  0  0  0  0  0  0  0  0  0  0  0
   -1.1254    0.0799    2.2016 H   0  0  0  0  0  0  0  0  0  0  0  0
    0.2691    0.3775    3.7901 C   0  0  0  0  0  0  0  0  0  0  0  0
    1.1209    1.0623    3.8595 H   0  0  0  0  0  0  0  0  0  0  0  0
   -0.5550    0.7965    4.3752 H   0  0  0  0  0  0  0  0  0  0  0  0
    0.5553   -0.5842    4.2287 H   0  0  0  0  0  0  0  0  0  0  0  0
  1  2  1  0  0  0  0
  2  3  1  0  0  0  0
  2  4  1  0  0  0  0
  2  5  1  0  0  0  0
  5  6  2  0  0  0  0
  5  7  1  0  0  0  0
  7  8  1  0  0  0  0
  7  9  1  0  0  0  0
  9 10  1  0  0  0  0
  9 11  1  0  0  0  0
  9 22  1  0  0  0  0
 11 12  1  0  0  0  0
 11 13  1  0  0  0  0
 11 14  1  0  0  0  0
 14 15  1  0  0  0  0
 14 16  1  0  0  0  0
 14 17  1  0  0  0  0
 17 18  1  0  0  0  0
 18 19  1  0  0  0  0
 18 20  1  0  0  0  0
 18 21  1  0  0  0  0
 22 23  2  0  0  0  0
 22 24  1  0  0  0  0
 24 25  1  0  0  0  0
 24 26  1  0  0  0  0
 26 27  1  0  0  0  0
 26 28  1  0  0  0  0
 26 29  1  0  0  0  0
M  END
$$$$

  -OEChem-04042216023D

 29 28  0     1  0  0  0  0  0999 V2000
   -2.6857   -4.1258    0.5458 H   0  0  0  0  0  0  0  0  0  0  0  0
   -2.6579   -3.1360    0.0807 C   0  0  0  0  0  0  0  0  0  0  0  0
   -3.4908   -2.5430    0.4658 H   0  0  0  0  0  0  0  0  0  0  0  0
   -2.7705   -3.2536   -0.9997 H   0  0  0  0  0  0  0  0  0  0  0  0
   -1.3419   -2.4493    0.3941 C   0  0  0  0  0  0  0  0  0  0  0  0
   -0.5315   -2.9920    1.1222 O   0  0  0  0  0  0  0  0  0  0  0  0
   -1.0760   -1.2014   -0.1343 N   0  0  0  0  0  0  0  0  0  0  0  0
   -1.7471   -0.8468   -0.8087 H   0  0  0  0  0  0  0  0  0  0  0  0
    0.2351   -0.5298   -0.0437 C   0  0  1  0  0  0  0  0  0  0  0  0
    0.9723   -1.2124   -0.4821 H   0  0  0  0  0  0  0  0  0  0  0  0
    0.2354    0.7397   -0.9159 C   0  0  0  0  0  0  0  0  0  0  0  0
    1.2330    1.1876   -0.8580 H   0  0  0  0  0  0  0  0  0  0  0  0
    0.0800    0.4599   -1.9625 H   0  0  0  0  0  0  0  0  0  0  0  0
   -0.8252    1.7832   -0.5211 C   0  0  0  0  0  0  0  0  0  0  0  0
   -1.6470    1.7537   -1.2433 H   0  0  0  0  0  0  0  0  0  0  0  0
   -1.2497    1.5702    0.4625 H   0  0  0  0  0  0  0  0  0  0  0  0
   -0.1036    3.4727   -0.4934 S   0  0  0  0  0  0  0  0  0  0  0  0
    0.9656    3.4239    1.0021 C   0  0  0  0  0  0  0  0  0  0  0  0
    1.7426    2.6605    0.8992 H   0  0  0  0  0  0  0  0  0  0  0  0
    1.4503    4.3938    1.1467 H   0  0  0  0  0  0  0  0  0  0  0  0
    0.3673    3.1965    1.8890 H   0  0  0  0  0  0  0  0  0  0  0  0
    0.7539   -0.2566    1.3898 C   0  0  0  0  0  0  0  0  0  0  0  0
    1.9611   -0.2298    1.5908 O   0  0  0  0  0  0  0  0  0  0  0  0
   -0.0867    0.2582    2.3612 N   0  0  0  0  0  0  0  0  0  0  0  0
   -1.0786    0.1115    2.2060 H   0  0  0  0  0  0  0  0  0  0  0  0
    0.3667    0.5582    3.7137 C   0  0  0  0  0  0  0  0  0  0  0  0
    1.1717    1.3004    3.6941 H   0  0  0  0  0  0  0  0  0  0  0  0
   -0.4580    0.9625    4.3081 H   0  0  0  0  0  0  0  0  0  0  0  0
    0.7365   -0.3492    4.2027 H   0  0  0  0  0  0  0  0  0  0  0  0
  1  2  1  0  0  0  0
  2  3  1  0  0  0  0
  2  4  1  0  0  0  0
  2  5  1  0  0  0  0
  5  6  2  0  0  0  0
  5  7  1  0  0  0  0
  7  8  1  0  0  0  0
  7  9  1  0  0  0  0
  9 10  1  0  0  0  0
  9 11  1  0  0  0  0
  9 22  1  0  0  0  0
 11 12  1  0  0  0  0
 11 13  1  0  0  0  0
 11 14  1  0  0  0  0
 14 15  1  0  0  0  0
 14 16  1  0  0  0  0
 14 17  1  0  0  0  0
 17 18  1  0  0  0  0
 18 19  1  0  0  0  0
 18 20  1  0  0  0  0
 18 21  1  0  0  0  0
 22 23  2  0  0  0  0
 22 24  1  0  0  0  0
 24 25  1  0  0  0  0
 24 26  1  0  0  0  0
 26 27  1  0  0  0  0
 26 28  1  0  0  0  0
 26 29  1  0  0  0  0
M  END
$$$$

  -OEChem-04042216023D

 29 28  0     1  0  0  0  0  0999 V2000
   -2.6915   -4.1259    0.5524 H   0  0  0  0  0  0  0  0  0  0  0  0
   -2.6629   -3.1377    0.0842 C   0  0  0  0  0  0  0  0  0  0  0  0
   -3.4969   -2.5439    0.4654 H   0  0  0  0  0  0  0  0  0  0  0  0
   -2.7728   -3.2586   -0.9961 H   0  0  0  0  0  0  0  0  0  0  0  0
   -1.3484   -2.4493    0.3997 C   0  0  0  0  0  0  0  0  0  0  0  0
   -0.5378   -2.9912    1.1283 O   0  0  0  0  0  0  0  0  0  0  0  0
   -1.0833   -1.2019   -0.1303 N   0  0  0  0  0  0  0  0  0  0  0  0
   -1.7528   -0.8511   -0.8084 H   0  0  0  0  0  0  0  0  0  0  0  0
    0.2292   -0.5330   -0.0453 C   0  0  1  0  0  0  0  0  0  0  0  0
    0.9627   -1.2192   -0.4845 H   0  0  0  0  0  0  0  0  0  0  0  0
    0.2311    0.7325   -0.9228 C   0  0  0  0  0  0  0  0  0  0  0  0
    1.2287    1.1778   -0.8561 H   0  0  0  0  0  0  0  0  0  0  0  0
    0.0799    0.4532   -1.9703 H   0  0  0  0  0  0  0  0  0  0  0  0
   -0.8245    1.7805   -0.5323 C   0  0  0  0  0  0  0  0  0  0  0  0
   -1.7589    1.5770   -1.0641 H   0  0  0  0  0  0  0  0  0  0  0  0
   -1.0410    1.7493    0.5371 H   0  0  0  0  0  0  0  0  0  0  0  0
   -0.2330    3.4695   -0.9435 S   0  0  0  0  0  0  0  0  0  0  0  0
    0.9877    3.7841    0.3956 C   0  0  0  0  0  0  0  0  0  0  0  0
    1.8106    3.0651    0.3467 H   0  0  0  0  0  0  0  0  0  0  0  0
    1.4013    4.7919    0.2950 H   0  0  0  0  0  0  0  0  0  0  0  0
    0.5075    3.6990    1.3747 H   0  0  0  0  0  0  0  0  0  0  0  0
    0.7545   -0.2607    1.3862 C   0  0  0  0  0  0  0  0  0  0  0  0
    1.9626   -0.2311    1.5802 O   0  0  0  0  0  0  0  0  0  0  0  0
   -0.0820    0.2555    2.3604 N   0  0  0  0  0  0  0  0  0  0  0  0
   -1.0746    0.1060    2.2124 H   0  0  0  0  0  0  0  0  0  0  0  0
    0.3791    0.5734    3.7063 C   0  0  0  0  0  0  0  0  0  0  0  0
    1.1705    1.3297    3.6726 H   0  0  0  0  0  0  0  0  0  0  0  0
   -0.4468    0.9676    4.3059 H   0  0  0  0  0  0  0  0  0  0  0  0
    0.7697   -0.3237    4.1986 H   0  0  0  0  0  0  0  0  0  0  0  0
  1  2  1  0  0  0  0
  2  3  1  0  0  0  0
  2  4  1  0  0  0  0
  2  5  1  0  0  0  0
  5  6  2  0  0  0  0
  5  7  1  0  0  0  0
  7  8  1  0  0  0  0
  7  9  1  0  0  0  0
  9 10  1  0  0  0  0
  9 11  1  0  0  0  0
  9 22  1  0  0  0  0
 11 12  1  0  0  0  0
 11 13  1  0  0  0  0
 11 14  1  0  0  0  0
 14 15  1  0  0  0  0
 14 16  1  0  0  0  0
 14 17  1  0  0  0  0
 17 18  1  0  0  0  0
 18 19  1  0  0  0  0
 18 20  1  0  0  0  0
 18 21  1  0  0  0  0
 22 23  2  0  0  0  0
 22 24  1  0  0  0  0
 24 25  1  0  0  0  0
 24 26  1  0  0  0  0
 26 27  1  0  0  0  0
 26 28  1  0  0  0  0
 26 29  1  0  0  0  0
M  END
$$$$

  -OEChem-04042216023D

 29 28  0     1  0  0  0  0  0999 V2000
   -2.6766   -4.1337    0.5603 H   0  0  0  0  0  0  0  0  0  0  0  0
   -2.6521   -3.1458    0.0916 C   0  0  0  0  0  0  0  0  0  0  0  0
   -3.4888   -2.5552    0.4719 H   0  0  0  0  0  0  0  0  0  0  0  0
   -2.7610   -3.2679   -0.9887 H   0  0  0  0  0  0  0  0  0  0  0  0
   -1.3407   -2.4517    0.4066 C   0  0  0  0  0  0  0  0  0  0  0  0
   -0.5265   -2.9901    1.1338 O   0  0  0  0  0  0  0  0  0  0  0  0
   -1.0823   -1.2031   -0.1236 N   0  0  0  0  0  0  0  0  0  0  0  0
   -1.7520   -0.8588   -0.8048 H   0  0  0  0  0  0  0  0  0  0  0  0
    0.2272   -0.5276   -0.0428 C   0  0  1  0  0  0  0  0  0  0  0  0
    0.9644   -1.2070   -0.4856 H   0  0  0  0  0  0  0  0  0  0  0  0
    0.2144    0.7416   -0.9158 C   0  0  0  0  0  0  0  0  0  0  0  0
    1.2076    1.1970   -0.8549 H   0  0  0  0  0  0  0  0  0  0  0  0
    0.0535    0.4621   -1.9618 H   0  0  0  0  0  0  0  0  0  0  0  0
   -0.8448    1.7792   -0.5131 C   0  0  0  0  0  0  0  0  0  0  0  0
   -1.8381    1.4346   -0.8158 H   0  0  0  0  0  0  0  0  0  0  0  0
   -0.8563    1.9286    0.5690 H   0  0  0  0  0  0  0  0  0  0  0  0
   -0.4844    3.3949   -1.3088 S   0  0  0  0  0  0  0  0  0  0  0  0
    0.9182    4.0348   -0.3072 C   0  0  0  0  0  0  0  0  0  0  0  0
    1.7904    3.3817   -0.4009 H   0  0  0  0  0  0  0  0  0  0  0  0
    1.1966    5.0354   -0.6511 H   0  0  0  0  0  0  0  0  0  0  0  0
    0.6359    4.0936    0.7482 H   0  0  0  0  0  0  0  0  0  0  0  0
    0.7491   -0.2560    1.3893 C   0  0  0  0  0  0  0  0  0  0  0  0
    1.9565   -0.2231    1.5872 O   0  0  0  0  0  0  0  0  0  0  0  0
   -0.0948    0.2539    2.3602 N   0  0  0  0  0  0  0  0  0  0  0  0
   -1.0858    0.1007    2.2047 H   0  0  0  0  0  0  0  0  0  0  0  0
    0.3568    0.5646    3.7111 C   0  0  0  0  0  0  0  0  0  0  0  0
    1.1486    1.3208    3.6876 H   0  0  0  0  0  0  0  0  0  0  0  0
   -0.4737    0.9559    4.3062 H   0  0  0  0  0  0  0  0  0  0  0  0
    0.7435   -0.3349    4.2016 H   0  0  0  0  0  0  0  0  0  0  0  0
  1  2  1  0  0  0  0
  2  3  1  0  0  0  0
  2  4  1  0  0  0  0
  2  5  1  0  0  0  0
  5  6  2  0  0  0  0
  5  7  1  0  0  0  0
  7  8  1  0  0  0  0
  7  9  1  0  0  0  0
  9 10  1  0  0  0  0
  9 11  1  0  0  0  0
  9 22  1  0  0  0  0
 11 12  1  0  0  0  0
 11 13  1  0  0  0  0
 11 14  1  0  0  0  0
 14 15  1  0  0  0  0
 14 16  1  0  0  0  0
 14 17  1  0  0  0  0
 17 18  1  0  0  0  0
 18 19  1  0  0  0  0
 18 20  1  0  0  0  0
 18 21  1  0  0  0  0
 22 23  2  0  0  0  0
 22 24  1  0  0  0  0
 24 25  1  0  0  0  0
 24 26  1  0  0  0  0
 26 27  1  0  0  0  0
 26 28  1  0  0  0  0
 26 29  1  0  0  0  0
M  END
$$$$

  -OEChem-04042216023D

 29 28  0     1  0  0  0  0  0999 V2000
   -2.6576   -4.1245    0.5517 H   0  0  0  0  0  0  0  0  0  0  0  0
   -2.6403   -3.1310    0.0943 C   0  0  0  0  0  0  0  0  0  0  0  0
   -3.4673   -2.5431    0.4993 H   0  0  0  0  0  0  0  0  0  0  0  0
   -2.7726   -3.2401   -0.9847 H   0  0  0  0  0  0  0  0  0  0  0  0
   -1.3206   -2.4438    0.3899 C   0  0  0  0  0  0  0  0  0  0  0  0
   -0.4917   -2.9952    1.0904 O   0  0  0  0  0  0  0  0  0  0  0  0
   -1.0718   -1.1854   -0.1217 N   0  0  0  0  0  0  0  0  0  0  0  0
   -1.7589   -0.8183   -0.7739 H   0  0  0  0  0  0  0  0  0  0  0  0
    0.2309   -0.4990   -0.0293 C   0  0  1  0  0  0  0  0  0  0  0  0
    0.9699   -1.1728   -0.4781 H   0  0  0  0  0  0  0  0  0  0  0  0
    0.2029    0.7666   -0.9077 C   0  0  0  0  0  0  0  0  0  0  0  0
    1.2364    1.0978   -1.0497 H   0  0  0  0  0  0  0  0  0  0  0  0
   -0.1962    0.5161   -1.8959 H   0  0  0  0  0  0  0  0  0  0  0  0
   -0.6048    1.9285   -0.3139 C   0  0  0  0  0  0  0  0  0  0  0  0
   -1.6428    1.6197   -0.1582 H   0  0  0  0  0  0  0  0  0  0  0  0
   -0.1921    2.2340    0.6523 H   0  0  0  0  0  0  0  0  0  0  0  0
   -0.5639    3.3708   -1.4507 S   0  0  0  0  0  0  0  0  0  0  0  0
    1.1438    4.0148   -1.2320 C   0  0  0  0  0  0  0  0  0  0  0  0
    1.8793    3.2844   -1.5802 H   0  0  0  0  0  0  0  0  0  0  0  0
    1.2717    4.9364   -1.8074 H   0  0  0  0  0  0  0  0  0  0  0  0
    1.3357    4.2318   -0.1770 H   0  0  0  0  0  0  0  0  0  0  0  0
    0.7496   -0.2424    1.4060 C   0  0  0  0  0  0  0  0  0  0  0  0
    1.9562   -0.1991    1.6059 O   0  0  0  0  0  0  0  0  0  0  0  0
   -0.1028    0.2465    2.3808 N   0  0  0  0  0  0  0  0  0  0  0  0
   -1.0928    0.0944    2.2172 H   0  0  0  0  0  0  0  0  0  0  0  0
    0.3408    0.5364    3.7389 C   0  0  0  0  0  0  0  0  0  0  0  0
    1.1290    1.2967    3.7322 H   0  0  0  0  0  0  0  0  0  0  0  0
   -0.4943    0.9132    4.3371 H   0  0  0  0  0  0  0  0  0  0  0  0
    0.7297   -0.3695    4.2158 H   0  0  0  0  0  0  0  0  0  0  0  0
  1  2  1  0  0  0  0
  2  3  1  0  0  0  0
  2  4  1  0  0  0  0
  2  5  1  0  0  0  0
  5  6  2  0  0  0  0
  5  7  1  0  0  0  0
  7  8  1  0  0  0  0
  7  9  1  0  0  0  0
  9 10  1  0  0  0  0
  9 11  1  0  0  0  0
  9 22  1  0  0  0  0
 11 12  1  0  0  0  0
 11 13  1  0  0  0  0
 11 14  1  0  0  0  0
 14 15  1  0  0  0  0
 14 16  1  0  0  0  0
 14 17  1  0  0  0  0
 17 18  1  0  0  0  0
 18 19  1  0  0  0  0
 18 20  1  0  0  0  0
 18 21  1  0  0  0  0
 22 23  2  0  0  0  0
 22 24  1  0  0  0  0
 24 25  1  0  0  0  0
 24 26  1  0  0  0  0
 26 27  1  0  0  0  0
 26 28  1  0  0  0  0
 26 29  1  0  0  0  0
M  END
$$$$

  -OEChem-04042216023D

 29 28  0     1  0  0  0  0  0999 V2000
   -2.6458   -4.1238    0.5327 H   0  0  0  0  0  0  0  0  0  0  0  0
   -2.6294   -3.1294    0.0773 C   0  0  0  0  0  0  0  0  0  0  0  0
   -3.4608   -2.5457    0.4790 H   0  0  0  0  0  0  0  0  0  0  0  0
   -2.7554   -3.2366   -1.0026 H   0  0  0  0  0  0  0  0  0  0  0  0
   -1.3136   -2.4379    0.3807 C   0  0  0  0  0  0  0  0  0  0  0  0
   -0.4844   -2.9891    1.0810 O   0  0  0  0  0  0  0  0  0  0  0  0
   -1.0668   -1.1771   -0.1255 N   0  0  0  0  0  0  0  0  0  0  0  0
   -1.7578   -0.8045   -0.7705 H   0  0  0  0  0  0  0  0  0  0  0  0
    0.2335   -0.4866   -0.0296 C   0  0  1  0  0  0  0  0  0  0  0  0
    0.9752   -1.1508   -0.4876 H   0  0  0  0  0  0  0  0  0  0  0  0
    0.1932    0.7925   -0.8866 C   0  0  0  0  0  0  0  0  0  0  0  0
    1.2195    1.1400   -1.0438 H   0  0  0  0  0  0  0  0  0  0  0  0
   -0.2224    0.5484   -1.8696 H   0  0  0  0  0  0  0  0  0  0  0  0
   -0.6197    1.9313   -0.2567 C   0  0  0  0  0  0  0  0  0  0  0  0
   -1.5680    1.5454    0.1288 H   0  0  0  0  0  0  0  0  0  0  0  0
   -0.0697    2.3739    0.5803 H   0  0  0  0  0  0  0  0  0  0  0  0
   -0.9844    3.2230   -1.5110 S   0  0  0  0  0  0  0  0  0  0  0  0
    0.6658    3.9769   -1.8007 C   0  0  0  0  0  0  0  0  0  0  0  0
    1.3538    3.2413   -2.2268 H   0  0  0  0  0  0  0  0  0  0  0  0
    0.5777    4.8152   -2.4982 H   0  0  0  0  0  0  0  0  0  0  0  0
    1.0835    4.3475   -0.8598 H   0  0  0  0  0  0  0  0  0  0  0  0
    0.7525   -0.2320    1.4055 C   0  0  0  0  0  0  0  0  0  0  0  0
    1.9592   -0.1840    1.6035 O   0  0  0  0  0  0  0  0  0  0  0  0
   -0.1008    0.2517    2.3819 N   0  0  0  0  0  0  0  0  0  0  0  0
   -1.0900    0.0921    2.2213 H   0  0  0  0  0  0  0  0  0  0  0  0
    0.3449    0.5467    3.7380 C   0  0  0  0  0  0  0  0  0  0  0  0
    1.1284    1.3118    3.7270 H   0  0  0  0  0  0  0  0  0  0  0  0
   -0.4903    0.9197    4.3384 H   0  0  0  0  0  0  0  0  0  0  0  0
    0.7412   -0.3559    4.2150 H   0  0  0  0  0  0  0  0  0  0  0  0
  1  2  1  0  0  0  0
  2  3  1  0  0  0  0
  2  4  1  0  0  0  0
  2  5  1  0  0  0  0
  5  6  2  0  0  0  0
  5  7  1  0  0  0  0
  7  8  1  0  0  0  0
  7  9  1  0  0  0  0
  9 10  1  0  0  0  0
  9 11  1  0  0  0  0
  9 22  1  0  0  0  0
 11 12  1  0  0  0  0
 11 13  1  0  0  0  0
 11 14  1  0  0  0  0
 14 15  1  0  0  0  0
 14 16  1  0  0  0  0
 14 17  1  0  0  0  0
 17 18  1  0  0  0  0
 18 19  1  0  0  0  0
 18 20  1  0  0  0  0
 18 21  1  0  0  0  0
 22 23  2  0  0  0  0
 22 24  1  0  0  0  0
 24 25  1  0  0  0  0
 24 26  1  0  0  0  0
 26 27  1  0  0  0  0
 26 28  1  0  0  0  0
 26 29  1  0  0  0  0
M  END
$$$$

  -OEChem-04042216023D

 29 28  0     1  0  0  0  0  0999 V2000
   -2.6497   -4.1097    0.5236 H   0  0  0  0  0  0  0  0  0  0  0  0
   -2.6277   -3.1192    0.0601 C   0  0  0  0  0  0  0  0  0  0  0  0
   -3.4565   -2.5275    0.4560 H   0  0  0  0  0  0  0  0  0  0  0  0
   -2.7526   -3.2337   -1.0194 H   0  0  0  0  0  0  0  0  0  0  0  0
   -1.3087   -2.4326    0.3600 C   0  0  0  0  0  0  0  0  0  0  0  0
   -0.4725   -2.9932    1.0445 O   0  0  0  0  0  0  0  0  0  0  0  0
   -1.0676   -1.1645   -0.1293 N   0  0  0  0  0  0  0  0  0  0  0  0
   -1.7667   -0.7786   -0.7579 H   0  0  0  0  0  0  0  0  0  0  0  0
    0.2291   -0.4691   -0.0260 C   0  0  1  0  0  0  0  0  0  0  0  0
    0.9723   -1.1240   -0.4953 H   0  0  0  0  0  0  0  0  0  0  0  0
    0.1816    0.8205   -0.8654 C   0  0  0  0  0  0  0  0  0  0  0  0
    1.2034    1.1792   -1.0286 H   0  0  0  0  0  0  0  0  0  0  0  0
   -0.2377    0.5794   -1.8476 H   0  0  0  0  0  0  0  0  0  0  0  0
   -0.6369    1.9480   -0.2195 C   0  0  0  0  0  0  0  0  0  0  0  0
   -1.4533    1.5286    0.3756 H   0  0  0  0  0  0  0  0  0  0  0  0
   -0.0042    2.5401    0.4506 H   0  0  0  0  0  0  0  0  0  0  0  0
   -1.3833    3.0174   -1.5135 S   0  0  0  0  0  0  0  0  0  0  0  0
    0.0973    3.8077   -2.2607 C   0  0  0  0  0  0  0  0  0  0  0  0
    0.7441    3.0539   -2.7187 H   0  0  0  0  0  0  0  0  0  0  0  0
   -0.2074    4.5210   -3.0324 H   0  0  0  0  0  0  0  0  0  0  0  0
    0.6676    4.3425   -1.4953 H   0  0  0  0  0  0  0  0  0  0  0  0
    0.7565   -0.2267    1.4083 C   0  0  0  0  0  0  0  0  0  0  0  0
    1.9646   -0.1706    1.5963 O   0  0  0  0  0  0  0  0  0  0  0  0
   -0.0906    0.2425    2.3969 N   0  0  0  0  0  0  0  0  0  0  0  0
   -1.0801    0.0754    2.2457 H   0  0  0  0  0  0  0  0  0  0  0  0
    0.3666    0.5402    3.7487 C   0  0  0  0  0  0  0  0  0  0  0  0
    1.1387    1.3165    3.7305 H   0  0  0  0  0  0  0  0  0  0  0  0
   -0.4671    0.8995    4.3592 H   0  0  0  0  0  0  0  0  0  0  0  0
    0.7808   -0.3581    4.2185 H   0  0  0  0  0  0  0  0  0  0  0  0
  1  2  1  0  0  0  0
  2  3  1  0  0  0  0
  2  4  1  0  0  0  0
  2  5  1  0  0  0  0
  5  6  2  0  0  0  0
  5  7  1  0  0  0  0
  7  8  1  0  0  0  0
  7  9  1  0  0  0  0
  9 10  1  0  0  0  0
  9 11  1  0  0  0  0
  9 22  1  0  0  0  0
 11 12  1  0  0  0  0
 11 13  1  0  0  0  0
 11 14  1  0  0  0  0
 14 15  1  0  0  0  0
 14 16  1  0  0  0  0
 14 17  1  0  0  0  0
 17 18  1  0  0  0  0
 18 19  1  0  0  0  0
 18 20  1  0  0  0  0
 18 21  1  0  0  0  0
 22 23  2  0  0  0  0
 22 24  1  0  0  0  0
 24 25  1  0  0  0  0
 24 26  1  0  0  0  0
 26 27  1  0  0  0  0
 26 28  1  0  0  0  0
 26 29  1  0  0  0  0
M  END
$$$$

  -OEChem-04042216023D

 29 28  0     1  0  0  0  0  0999 V2000
   -2.6586   -4.1074    0.5093 H   0  0  0  0  0  0  0  0  0  0  0  0
   -2.6395   -3.1088    0.0634 C   0  0  0  0  0  0  0  0  0  0  0  0
   -3.4592   -2.5207    0.4827 H   0  0  0  0  0  0  0  0  0  0  0  0
   -2.7818   -3.2041   -1.0158 H   0  0  0  0  0  0  0  0  0  0  0  0
   -1.3129   -2.4326    0.3541 C   0  0  0  0  0  0  0  0  0  0  0  0
   -0.4684   -3.0060    1.0178 O   0  0  0  0  0  0  0  0  0  0  0  0
   -1.0739   -1.1590   -0.1207 N   0  0  0  0  0  0  0  0  0  0  0  0
   -1.7875   -0.7521   -0.7198 H   0  0  0  0  0  0  0  0  0  0  0  0
    0.2202   -0.4612   -0.0126 C   0  0  1  0  0  0  0  0  0  0  0  0
    0.9616   -1.1171   -0.4834 H   0  0  0  0  0  0  0  0  0  0  0  0
    0.1730    0.8211   -0.8627 C   0  0  0  0  0  0  0  0  0  0  0  0
    1.1955    1.1821   -1.0170 H   0  0  0  0  0  0  0  0  0  0  0  0
   -0.2283    0.5659   -1.8487 H   0  0  0  0  0  0  0  0  0  0  0  0
   -0.6540    1.9575   -0.2390 C   0  0  0  0  0  0  0  0  0  0  0  0
   -1.3023    1.5713    0.5517 H   0  0  0  0  0  0  0  0  0  0  0  0
    0.0084    2.7053    0.2100 H   0  0  0  0  0  0  0  0  0  0  0  0
   -1.7393    2.7295   -1.5052 S   0  0  0  0  0  0  0  0  0  0  0  0
   -0.5188    3.5737   -2.5884 C   0  0  0  0  0  0  0  0  0  0  0  0
    0.1642    2.8462   -3.0365 H   0  0  0  0  0  0  0  0  0  0  0  0
   -1.0365    4.1070   -3.3913 H   0  0  0  0  0  0  0  0  0  0  0  0
    0.0658    4.2951   -2.0096 H   0  0  0  0  0  0  0  0  0  0  0  0
    0.7597   -0.2273    1.4192 C   0  0  0  0  0  0  0  0  0  0  0  0
    1.9697   -0.1744    1.5953 O   0  0  0  0  0  0  0  0  0  0  0  0
   -0.0739    0.2316    2.4241 N   0  0  0  0  0  0  0  0  0  0  0  0
   -1.0662    0.0727    2.2827 H   0  0  0  0  0  0  0  0  0  0  0  0
    0.4012    0.5121    3.7736 C   0  0  0  0  0  0  0  0  0  0  0  0
    1.1712    1.2905    3.7553 H   0  0  0  0  0  0  0  0  0  0  0  0
   -0.4245    0.8614    4.4008 H   0  0  0  0  0  0  0  0  0  0  0  0
    0.8245   -0.3911    4.2256 H   0  0  0  0  0  0  0  0  0  0  0  0
  1  2  1  0  0  0  0
  2  3  1  0  0  0  0
  2  4  1  0  0  0  0
  2  5  1  0  0  0  0
  5  6  2  0  0  0  0
  5  7  1  0  0  0  0
  7  8  1  0  0  0  0
  7  9  1  0  0  0  0
  9 10  1  0  0  0  0
  9 11  1  0  0  0  0
  9 22  1  0  0  0  0
 11 12  1  0  0  0  0
 11 13  1  0  0  0  0
 11 14  1  0  0  0  0
 14 15  1  0  0  0  0
 14 16  1  0  0  0  0
 14 17  1  0  0  0  0
 17 18  1  0  0  0  0
 18 19  1  0  0  0  0
 18 20  1  0  0  0  0
 18 21  1  0  0  0  0
 22 23  2  0  0  0  0
 22 24  1  0  0  0  0
 24 25  1  0  0  0  0
 24 26  1  0  0  0  0
 26 27  1  0  0  0  0
 26 28  1  0  0  0  0
 26 29  1  0  0  0  0
M  END
$$$$

  -OEChem-04042216023D

 29 28  0     1  0  0  0  0  0999 V2000
   -2.6650   -4.0993    0.5466 H   0  0  0  0  0  0  0  0  0  0  0  0
   -2.6500   -3.0986    0.1057 C   0  0  0  0  0  0  0  0  0  0  0  0
   -3.4481   -2.5038    0.5562 H   0  0  0  0  0  0  0  0  0  0  0  0
   -2.8303   -3.1852   -0.9684 H   0  0  0  0  0  0  0  0  0  0  0  0
   -1.3068   -2.4396    0.3549 C   0  0  0  0  0  0  0  0  0  0  0  0
   -0.4449   -3.0292    0.9811 O   0  0  0  0  0  0  0  0  0  0  0  0
   -1.0733   -1.1606   -0.1077 N   0  0  0  0  0  0  0  0  0  0  0  0
   -1.8109   -0.7248   -0.6556 H   0  0  0  0  0  0  0  0  0  0  0  0
    0.2173   -0.4581   -0.0005 C   0  0  1  0  0  0  0  0  0  0  0  0
    0.9574   -1.1160   -0.4702 H   0  0  0  0  0  0  0  0  0  0  0  0
    0.1693    0.8110   -0.8710 C   0  0  0  0  0  0  0  0  0  0  0  0
    1.1958    1.1700   -1.0017 H   0  0  0  0  0  0  0  0  0  0  0  0
   -0.2010    0.5439   -1.8658 H   0  0  0  0  0  0  0  0  0  0  0  0
   -0.6645    1.9629   -0.2831 C   0  0  0  0  0  0  0  0  0  0  0  0
   -1.1036    1.6860    0.6769 H   0  0  0  0  0  0  0  0  0  0  0  0
   -0.0274    2.8372   -0.1132 H   0  0  0  0  0  0  0  0  0  0  0  0
   -2.0365    2.4002   -1.4255 S   0  0  0  0  0  0  0  0  0  0  0  0
   -1.1464    3.2722   -2.7758 C   0  0  0  0  0  0  0  0  0  0  0  0
   -0.4171    2.6076   -3.2478 H   0  0  0  0  0  0  0  0  0  0  0  0
   -1.8570    3.6075   -3.5372 H   0  0  0  0  0  0  0  0  0  0  0  0
   -0.6207    4.1461   -2.3797 H   0  0  0  0  0  0  0  0  0  0  0  0
    0.7642   -0.2353    1.4306 C   0  0  0  0  0  0  0  0  0  0  0  0
    1.9753   -0.1841    1.6007 O   0  0  0  0  0  0  0  0  0  0  0  0
   -0.0628    0.2093    2.4472 N   0  0  0  0  0  0  0  0  0  0  0  0
   -1.0565    0.0566    2.3079 H   0  0  0  0  0  0  0  0  0  0  0  0
    0.4192    0.4656    3.7989 C   0  0  0  0  0  0  0  0  0  0  0  0
    1.1969    1.2366    3.7901 H   0  0  0  0  0  0  0  0  0  0  0  0
   -0.4010    0.8135    4.4340 H   0  0  0  0  0  0  0  0  0  0  0  0
    0.8346   -0.4487    4.2359 H   0  0  0  0  0  0  0  0  0  0  0  0
  1  2  1  0  0  0  0
  2  3  1  0  0  0  0
  2  4  1  0  0  0  0
  2  5  1  0  0  0  0
  5  6  2  0  0  0  0
  5  7  1  0  0  0  0
  7  8  1  0  0  0  0
  7  9  1  0  0  0  0
  9 10  1  0  0  0  0
  9 11  1  0  0  0  0
  9 22  1  0  0  0  0
 11 12  1  0  0  0  0
 11 13  1  0  0  0  0
 11 14  1  0  0  0  0
 14 15  1  0  0  0  0
 14 16  1  0  0  0  0
 14 17  1  0  0  0  0
 17 18  1  0  0  0  0
 18 19  1  0  0  0  0
 18 20  1  0  0  0  0
 18 21  1  0  0  0  0
 22 23  2  0  0  0  0
 22 24  1  0  0  0  0
 24 25  1  0  0  0  0
 24 26  1  0  0  0  0
 26 27  1  0  0  0  0
 26 28  1  0  0  0  0
 26 29  1  0  0  0  0
M  END
$$$$

  -OEChem-04042216023D

 29 28  0     1  0  0  0  0  0999 V2000
   -2.6695   -4.0836    0.6072 H   0  0  0  0  0  0  0  0  0  0  0  0
   -2.6525   -3.0864    0.1582 C   0  0  0  0  0  0  0  0  0  0  0  0
   -3.4257   -2.4752    0.6296 H   0  0  0  0  0  0  0  0  0  0  0  0
   -2.8688   -3.1776   -0.9089 H   0  0  0  0  0  0  0  0  0  0  0  0
   -1.2912   -2.4478    0.3586 C   0  0  0  0  0  0  0  0  0  0  0  0
   -0.4122   -3.0552    0.9429 O   0  0  0  0  0  0  0  0  0  0  0  0
   -1.0584   -1.1679   -0.1014 N   0  0  0  0  0  0  0  0  0  0  0  0
   -1.8214   -0.7000   -0.5855 H   0  0  0  0  0  0  0  0  0  0  0  0
    0.2307   -0.4636    0.0027 C   0  0  1  0  0  0  0  0  0  0  0  0
    0.9715   -1.1231   -0.4647 H   0  0  0  0  0  0  0  0  0  0  0  0
    0.1776    0.7971   -0.8806 C   0  0  0  0  0  0  0  0  0  0  0  0
    1.2066    1.1558   -0.9917 H   0  0  0  0  0  0  0  0  0  0  0  0
   -0.1717    0.5276   -1.8820 H   0  0  0  0  0  0  0  0  0  0  0  0
   -0.6579    1.9575   -0.3136 C   0  0  0  0  0  0  0  0  0  0  0  0
   -0.8517    1.8418    0.7531 H   0  0  0  0  0  0  0  0  0  0  0  0
   -0.1089    2.8965   -0.4391 H   0  0  0  0  0  0  0  0  0  0  0  0
   -2.2571    2.0750   -1.2128 S   0  0  0  0  0  0  0  0  0  0  0  0
   -1.7572    2.8842   -2.7849 C   0  0  0  0  0  0  0  0  0  0  0  0
   -1.0347    2.2651   -3.3243 H   0  0  0  0  0  0  0  0  0  0  0  0
   -2.6328    3.0352   -3.4234 H   0  0  0  0  0  0  0  0  0  0  0  0
   -1.3020    3.8579   -2.5806 H   0  0  0  0  0  0  0  0  0  0  0  0
    0.7738   -0.2469    1.4356 C   0  0  0  0  0  0  0  0  0  0  0  0
    1.9839   -0.1978    1.6112 O   0  0  0  0  0  0  0  0  0  0  0  0
   -0.0581    0.1915    2.4509 N   0  0  0  0  0  0  0  0  0  0  0  0
   -1.0524    0.0541    2.2997 H   0  0  0  0  0  0  0  0  0  0  0  0
    0.4138    0.4363    3.8080 C   0  0  0  0  0  0  0  0  0  0  0  0
    1.1990    1.1997    3.8110 H   0  0  0  0  0  0  0  0  0  0  0  0
   -0.4094    0.7891    4.4363 H   0  0  0  0  0  0  0  0  0  0  0  0
    0.8153   -0.4845    4.2440 H   0  0  0  0  0  0  0  0  0  0  0  0
  1  2  1  0  0  0  0
  2  3  1  0  0  0  0
  2  4  1  0  0  0  0
  2  5  1  0  0  0  0
  5  6  2  0  0  0  0
  5  7  1  0  0  0  0
  7  8  1  0  0  0  0
  7  9  1  0  0  0  0
  9 10  1  0  0  0  0
  9 11  1  0  0  0  0
  9 22  1  0  0  0  0
 11 12  1  0  0  0  0
 11 13  1  0  0  0  0
 11 14  1  0  0  0  0
 14 15  1  0  0  0  0
 14 16  1  0  0  0  0
 14 17  1  0  0  0  0
 17 18  1  0  0  0  0
 18 19  1  0  0  0  0
 18 20  1  0  0  0  0
 18 21  1  0  0  0  0
 22 23  2  0  0  0  0
 22 24  1  0  0  0  0
 24 25  1  0  0  0  0
 24 26  1  0  0  0  0
 26 27  1  0  0  0  0
 26 28  1  0  0  0  0
 26 29  1  0  0  0  0
M  END
$$$$

  -OEChem-04042216023D

 29 28  0     1  0  0  0  0  0999 V2000
   -2.6706   -4.0640    0.6626 H   0  0  0  0  0  0  0  0  0  0  0  0
   -2.6481   -3.0708    0.2052 C   0  0  0  0  0  0  0  0  0  0  0  0
   -3.3939   -2.4410    0.6960 H   0  0  0  0  0  0  0  0  0  0  0  0
   -2.9001   -3.1654   -0.8536 H   0  0  0  0  0  0  0  0  0  0  0  0
   -1.2684   -2.4581    0.3558 C   0  0  0  0  0  0  0  0  0  0  0  0
   -0.3782   -3.0853    0.9013 O   0  0  0  0  0  0  0  0  0  0  0  0
   -1.0312   -1.1813   -0.1097 N   0  0  0  0  0  0  0  0  0  0  0  0
   -1.8158   -0.6816   -0.5236 H   0  0  0  0  0  0  0  0  0  0  0  0
    0.2574   -0.4763   -0.0064 C   0  0  1  0  0  0  0  0  0  0  0  0
    1.0026   -1.1333   -0.4699 H   0  0  0  0  0  0  0  0  0  0  0  0
    0.2007    0.7862   -0.8891 C   0  0  0  0  0  0  0  0  0  0  0  0
    1.2293    1.1465   -0.9968 H   0  0  0  0  0  0  0  0  0  0  0  0
   -0.1489    0.5222   -1.8914 H   0  0  0  0  0  0  0  0  0  0  0  0
   -0.6340    1.9445   -0.3203 C   0  0  0  0  0  0  0  0  0  0  0  0
   -0.5849    1.9898    0.7688 H   0  0  0  0  0  0  0  0  0  0  0  0
   -0.2310    2.8919   -0.6924 H   0  0  0  0  0  0  0  0  0  0  0  0
   -2.3810    1.7961   -0.8782 S   0  0  0  0  0  0  0  0  0  0  0  0
   -2.3039    2.4235   -2.6040 C   0  0  0  0  0  0  0  0  0  0  0  0
   -1.6504    1.7941   -3.2148 H   0  0  0  0  0  0  0  0  0  0  0  0
   -3.3039    2.4209   -3.0481 H   0  0  0  0  0  0  0  0  0  0  0  0
   -1.9190    3.4476   -2.6174 H   0  0  0  0  0  0  0  0  0  0  0  0
    0.7843   -0.2580    1.4316 C   0  0  0  0  0  0  0  0  0  0  0  0
    1.9918   -0.2113    1.6249 O   0  0  0  0  0  0  0  0  0  0  0  0
   -0.0622    0.1821    2.4340 N   0  0  0  0  0  0  0  0  0  0  0  0
   -1.0561    0.0682    2.2612 H   0  0  0  0  0  0  0  0  0  0  0  0
    0.3887    0.4343    3.7969 C   0  0  0  0  0  0  0  0  0  0  0  0
    1.1714    1.2002    3.8071 H   0  0  0  0  0  0  0  0  0  0  0  0
   -0.4446    0.7863    4.4124 H   0  0  0  0  0  0  0  0  0  0  0  0
    0.7877   -0.4832    4.2424 H   0  0  0  0  0  0  0  0  0  0  0  0
  1  2  1  0  0  0  0
  2  3  1  0  0  0  0
  2  4  1  0  0  0  0
  2  5  1  0  0  0  0
  5  6  2  0  0  0  0
  5  7  1  0  0  0  0
  7  8  1  0  0  0  0
  7  9  1  0  0  0  0
  9 10  1  0  0  0  0
  9 11  1  0  0  0  0
  9 22  1  0  0  0  0
 11 12  1  0  0  0  0
 11 13  1  0  0  0  0
 11 14  1  0  0  0  0
 14 15  1  0  0  0  0
 14 16  1  0  0  0  0
 14 17  1  0  0  0  0
 17 18  1  0  0  0  0
 18 19  1  0  0  0  0
 18 20  1  0  0  0  0
 18 21  1  0  0  0  0
 22 23  2  0  0  0  0
 22 24  1  0  0  0  0
 24 25  1  0  0  0  0
 24 26  1  0  0  0  0
 26 27  1  0  0  0  0
 26 28  1  0  0  0  0
 26 29  1  0  0  0  0
M  END
$$$$

  -OEChem-04042216023D

 29 28  0     1  0  0  0  0  0999 V2000
   -2.6520   -4.0501    0.7262 H   0  0  0  0  0  0  0  0  0  0  0  0
   -2.6326   -3.0633    0.2552 C   0  0  0  0  0  0  0  0  0  0  0  0
   -3.3424   -2.4130    0.7719 H   0  0  0  0  0  0  0  0  0  0  0  0
   -2.9360   -3.1657   -0.7896 H   0  0  0  0  0  0  0  0  0  0  0  0
   -1.2362   -2.4756    0.3329 C   0  0  0  0  0  0  0  0  0  0  0  0
   -0.3272   -3.1230    0.8207 O   0  0  0  0  0  0  0  0  0  0  0  0
   -1.0037   -1.2013   -0.1413 N   0  0  0  0  0  0  0  0  0  0  0  0
   -1.8122   -0.6711   -0.4602 H   0  0  0  0  0  0  0  0  0  0  0  0
    0.2822   -0.4919   -0.0368 C   0  0  1  0  0  0  0  0  0  0  0  0
    1.0339   -1.1405   -0.5012 H   0  0  0  0  0  0  0  0  0  0  0  0
    0.2259    0.7907   -0.8935 C   0  0  0  0  0  0  0  0  0  0  0  0
    1.2545    1.1492   -1.0088 H   0  0  0  0  0  0  0  0  0  0  0  0
   -0.1402    0.5456   -1.8944 H   0  0  0  0  0  0  0  0  0  0  0  0
   -0.6011    1.9447   -0.3013 C   0  0  0  0  0  0  0  0  0  0  0  0
   -0.3341    2.1238    0.7433 H   0  0  0  0  0  0  0  0  0  0  0  0
   -0.3648    2.8644   -0.8461 H   0  0  0  0  0  0  0  0  0  0  0  0
   -2.4097    1.6287   -0.4517 S   0  0  0  0  0  0  0  0  0  0  0  0
   -2.7276    1.9195   -2.2381 C   0  0  0  0  0  0  0  0  0  0  0  0
   -2.1887    1.1907   -2.8501 H   0  0  0  0  0  0  0  0  0  0  0  0
   -3.7973    1.8258   -2.4481 H   0  0  0  0  0  0  0  0  0  0  0  0
   -2.4040    2.9255   -2.5220 H   0  0  0  0  0  0  0  0  0  0  0  0
    0.7870   -0.2700    1.4078 C   0  0  0  0  0  0  0  0  0  0  0  0
    1.9904   -0.2321    1.6270 O   0  0  0  0  0  0  0  0  0  0  0  0
   -0.0805    0.1710    2.3919 N   0  0  0  0  0  0  0  0  0  0  0  0
   -1.0721    0.1077    2.1832 H   0  0  0  0  0  0  0  0  0  0  0  0
    0.3383    0.4472    3.7601 C   0  0  0  0  0  0  0  0  0  0  0  0
    1.1122    1.2219    3.7762 H   0  0  0  0  0  0  0  0  0  0  0  0
   -0.5121    0.7982    4.3525 H   0  0  0  0  0  0  0  0  0  0  0  0
    0.7374   -0.4591    4.2275 H   0  0  0  0  0  0  0  0  0  0  0  0
  1  2  1  0  0  0  0
  2  3  1  0  0  0  0
  2  4  1  0  0  0  0
  2  5  1  0  0  0  0
  5  6  2  0  0  0  0
  5  7  1  0  0  0  0
  7  8  1  0  0  0  0
  7  9  1  0  0  0  0
  9 10  1  0  0  0  0
  9 11  1  0  0  0  0
  9 22  1  0  0  0  0
 11 12  1  0  0  0  0
 11 13  1  0  0  0  0
 11 14  1  0  0  0  0
 14 15  1  0  0  0  0
 14 16  1  0  0  0  0
 14 17  1  0  0  0  0
 17 18  1  0  0  0  0
 18 19  1  0  0  0  0
 18 20  1  0  0  0  0
 18 21  1  0  0  0  0
 22 23  2  0  0  0  0
 22 24  1  0  0  0  0
 24 25  1  0  0  0  0
 24 26  1  0  0  0  0
 26 27  1  0  0  0  0
 26 28  1  0  0  0  0
 26 29  1  0  0  0  0
M  END
$$$$

  -OEChem-04042216023D

 29 28  0     1  0  0  0  0  0999 V2000
   -2.6109   -4.0764    0.7665 H   0  0  0  0  0  0  0  0  0  0  0  0
   -2.6110   -3.0835    0.3077 C   0  0  0  0  0  0  0  0  0  0  0  0
   -3.2803   -2.4337    0.8764 H   0  0  0  0  0  0  0  0  0  0  0  0
   -2.9796   -3.1693   -0.7172 H   0  0  0  0  0  0  0  0  0  0  0  0
   -1.2069   -2.5096    0.3058 C   0  0  0  0  0  0  0  0  0  0  0  0
   -0.2772   -3.1698    0.7339 O   0  0  0  0  0  0  0  0  0  0  0  0
   -0.9917   -1.2346   -0.1753 N   0  0  0  0  0  0  0  0  0  0  0  0
   -1.8189   -0.6873   -0.4009 H   0  0  0  0  0  0  0  0  0  0  0  0
    0.2886   -0.5159   -0.0645 C   0  0  1  0  0  0  0  0  0  0  0  0
    1.0487   -1.1547   -0.5291 H   0  0  0  0  0  0  0  0  0  0  0  0
    0.2414    0.7885   -0.8907 C   0  0  0  0  0  0  0  0  0  0  0  0
    1.2706    1.1421   -1.0141 H   0  0  0  0  0  0  0  0  0  0  0  0
   -0.1395    0.5602   -1.8907 H   0  0  0  0  0  0  0  0  0  0  0  0
   -0.5786    1.9446   -0.2859 C   0  0  0  0  0  0  0  0  0  0  0  0
   -0.1386    2.2448    0.6704 H   0  0  0  0  0  0  0  0  0  0  0  0
   -0.5133    2.8116   -0.9509 H   0  0  0  0  0  0  0  0  0  0  0  0
   -2.3555    1.5276   -0.0285 S   0  0  0  0  0  0  0  0  0  0  0  0
   -2.9967    1.4662   -1.7497 C   0  0  0  0  0  0  0  0  0  0  0  0
   -2.5139    0.6625   -2.3129 H   0  0  0  0  0  0  0  0  0  0  0  0
   -4.0761    1.2871   -1.7423 H   0  0  0  0  0  0  0  0  0  0  0  0
   -2.8052    2.4158   -2.2585 H   0  0  0  0  0  0  0  0  0  0  0  0
    0.7762   -0.2888    1.3849 C   0  0  0  0  0  0  0  0  0  0  0  0
    1.9759   -0.2654    1.6248 O   0  0  0  0  0  0  0  0  0  0  0  0
   -0.1054    0.1487    2.3576 N   0  0  0  0  0  0  0  0  0  0  0  0
   -1.0889    0.1824    2.1060 H   0  0  0  0  0  0  0  0  0  0  0  0
    0.2951    0.4701    3.7212 C   0  0  0  0  0  0  0  0  0  0  0  0
    1.0196    1.2909    3.7248 H   0  0  0  0  0  0  0  0  0  0  0  0
   -0.5754    0.7747    4.3095 H   0  0  0  0  0  0  0  0  0  0  0  0
    0.7495   -0.4027    4.2016 H   0  0  0  0  0  0  0  0  0  0  0  0
  1  2  1  0  0  0  0
  2  3  1  0  0  0  0
  2  4  1  0  0  0  0
  2  5  1  0  0  0  0
  5  6  2  0  0  0  0
  5  7  1  0  0  0  0
  7  8  1  0  0  0  0
  7  9  1  0  0  0  0
  9 10  1  0  0  0  0
  9 11  1  0  0  0  0
  9 22  1  0  0  0  0
 11 12  1  0  0  0  0
 11 13  1  0  0  0  0
 11 14  1  0  0  0  0
 14 15  1  0  0  0  0
 14 16  1  0  0  0  0
 14 17  1  0  0  0  0
 17 18  1  0  0  0  0
 18 19  1  0  0  0  0
 18 20  1  0  0  0  0
 18 21  1  0  0  0  0
 22 23  2  0  0  0  0
 22 24  1  0  0  0  0
 24 25  1  0  0  0  0
 24 26  1  0  0  0  0
 26 27  1  0  0  0  0
 26 28  1  0  0  0  0
 26 29  1  0  0  0  0
M  END
$$$$

  -OEChem-04042216023D

 29 28  0     1  0  0  0  0  0999 V2000
   -2.5045   -4.1917    0.7986 H   0  0  0  0  0  0  0  0  0  0  0  0
   -2.5389   -3.1895    0.3615 C   0  0  0  0  0  0  0  0  0  0  0  0
   -3.1886   -2.5604    0.9747 H   0  0  0  0  0  0  0  0  0  0  0  0
   -2.9540   -3.2591   -0.6468 H   0  0  0  0  0  0  0  0  0  0  0  0
   -1.1436   -2.5969    0.3072 C   0  0  0  0  0  0  0  0  0  0  0  0
   -0.1894   -3.2480    0.6932 O   0  0  0  0  0  0  0  0  0  0  0  0
   -0.9649   -1.3157   -0.1728 N   0  0  0  0  0  0  0  0  0  0  0  0
   -1.8107   -0.7755   -0.3340 H   0  0  0  0  0  0  0  0  0  0  0  0
    0.2966   -0.5671   -0.0447 C   0  0  1  0  0  0  0  0  0  0  0  0
    1.0726   -1.1945   -0.4988 H   0  0  0  0  0  0  0  0  0  0  0  0
    0.2520    0.7352   -0.8740 C   0  0  0  0  0  0  0  0  0  0  0  0
    1.2788    1.0959   -0.9975 H   0  0  0  0  0  0  0  0  0  0  0  0
   -0.1216    0.4866   -1.8722 H   0  0  0  0  0  0  0  0  0  0  0  0
   -0.5919    1.8995   -0.3136 C   0  0  0  0  0  0  0  0  0  0  0  0
   -0.0403    2.3503    0.5185 H   0  0  0  0  0  0  0  0  0  0  0  0
   -0.6998    2.6711   -1.0826 H   0  0  0  0  0  0  0  0  0  0  0  0
   -2.2593    1.4192    0.3118 S   0  0  0  0  0  0  0  0  0  0  0  0
   -3.2072    1.2674   -1.2552 C   0  0  0  0  0  0  0  0  0  0  0  0
   -2.7520    0.5185   -1.9100 H   0  0  0  0  0  0  0  0  0  0  0  0
   -4.2384    0.9683   -1.0438 H   0  0  0  0  0  0  0  0  0  0  0  0
   -3.2242    2.2274   -1.7805 H   0  0  0  0  0  0  0  0  0  0  0  0
    0.7759   -0.3227    1.4052 C   0  0  0  0  0  0  0  0  0  0  0  0
    1.9748   -0.2832    1.6473 O   0  0  0  0  0  0  0  0  0  0  0  0
   -0.1115    0.0978    2.3792 N   0  0  0  0  0  0  0  0  0  0  0  0
   -1.0833    0.2031    2.1007 H   0  0  0  0  0  0  0  0  0  0  0  0
    0.2934    0.5016    3.7191 C   0  0  0  0  0  0  0  0  0  0  0  0
    0.9441    1.3810    3.6739 H   0  0  0  0  0  0  0  0  0  0  0  0
   -0.5859    0.7503    4.3210 H   0  0  0  0  0  0  0  0  0  0  0  0
    0.8332   -0.3112    4.2163 H   0  0  0  0  0  0  0  0  0  0  0  0
  1  2  1  0  0  0  0
  2  3  1  0  0  0  0
  2  4  1  0  0  0  0
  2  5  1  0  0  0  0
  5  6  2  0  0  0  0
  5  7  1  0  0  0  0
  7  8  1  0  0  0  0
  7  9  1  0  0  0  0
  9 10  1  0  0  0  0
  9 11  1  0  0  0  0
  9 22  1  0  0  0  0
 11 12  1  0  0  0  0
 11 13  1  0  0  0  0
 11 14  1  0  0  0  0
 14 15  1  0  0  0  0
 14 16  1  0  0  0  0
 14 17  1  0  0  0  0
 17 18  1  0  0  0  0
 18 19  1  0  0  0  0
 18 20  1  0  0  0  0
 18 21  1  0  0  0  0
 22 23  2  0  0  0  0
 22 24  1  0  0  0  0
 24 25  1  0  0  0  0
 24 26  1  0  0  0  0
 26 27  1  0  0  0  0
 26 28  1  0  0  0  0
 26 29  1  0  0  0  0
M  END
$$$$

  -OEChem-04042216023D

 29 28  0     1  0  0  0  0  0999 V2000
   -2.3653   -4.3136    0.7793 H   0  0  0  0  0  0  0  0  0  0  0  0
   -2.4359   -3.3067    0.3580 C   0  0  0  0  0  0  0  0  0  0  0  0
   -3.1059   -2.7106    0.9821 H   0  0  0  0  0  0  0  0  0  0  0  0
   -2.8500   -3.3750   -0.6507 H   0  0  0  0  0  0  0  0  0  0  0  0
   -1.0628   -2.6644    0.3111 C   0  0  0  0  0  0  0  0  0  0  0  0
   -0.0842   -3.2909    0.6763 O   0  0  0  0  0  0  0  0  0  0  0  0
   -0.9347   -1.3653   -0.1354 N   0  0  0  0  0  0  0  0  0  0  0  0
   -1.8003   -0.8510   -0.2697 H   0  0  0  0  0  0  0  0  0  0  0  0
    0.2983   -0.5748    0.0107 C   0  0  1  0  0  0  0  0  0  0  0  0
    1.0870   -1.1884   -0.4409 H   0  0  0  0  0  0  0  0  0  0  0  0
    0.2429    0.7048   -0.8510 C   0  0  0  0  0  0  0  0  0  0  0  0
    1.2642    1.0846   -0.9643 H   0  0  0  0  0  0  0  0  0  0  0  0
   -0.0977    0.4102   -1.8487 H   0  0  0  0  0  0  0  0  0  0  0  0
   -0.6460    1.8746   -0.3752 C   0  0  0  0  0  0  0  0  0  0  0  0
   -0.0336    2.5058    0.2778 H   0  0  0  0  0  0  0  0  0  0  0  0
   -0.9349    2.4878   -1.2347 H   0  0  0  0  0  0  0  0  0  0  0  0
   -2.1461    1.4055    0.5901 S   0  0  0  0  0  0  0  0  0  0  0  0
   -3.3794    1.1672   -0.7508 C   0  0  0  0  0  0  0  0  0  0  0  0
   -3.0316    0.4159   -1.4657 H   0  0  0  0  0  0  0  0  0  0  0  0
   -4.3339    0.8371   -0.3295 H   0  0  0  0  0  0  0  0  0  0  0  0
   -3.5420    2.1086   -1.2847 H   0  0  0  0  0  0  0  0  0  0  0  0
    0.8050   -0.3297    1.4528 C   0  0  0  0  0  0  0  0  0  0  0  0
    2.0099   -0.2664    1.6594 O   0  0  0  0  0  0  0  0  0  0  0  0
   -0.0555    0.0450    2.4678 N   0  0  0  0  0  0  0  0  0  0  0  0
   -1.0333    0.1646    2.2171 H   0  0  0  0  0  0  0  0  0  0  0  0
    0.3925    0.4575    3.7912 C   0  0  0  0  0  0  0  0  0  0  0  0
    1.0043    1.3630    3.7234 H   0  0  0  0  0  0  0  0  0  0  0  0
   -0.4681    0.6665    4.4337 H   0  0  0  0  0  0  0  0  0  0  0  0
    0.9865   -0.3354    4.2578 H   0  0  0  0  0  0  0  0  0  0  0  0
  1  2  1  0  0  0  0
  2  3  1  0  0  0  0
  2  4  1  0  0  0  0
  2  5  1  0  0  0  0
  5  6  2  0  0  0  0
  5  7  1  0  0  0  0
  7  8  1  0  0  0  0
  7  9  1  0  0  0  0
  9 10  1  0  0  0  0
  9 11  1  0  0  0  0
  9 22  1  0  0  0  0
 11 12  1  0  0  0  0
 11 13  1  0  0  0  0
 11 14  1  0  0  0  0
 14 15  1  0  0  0  0
 14 16  1  0  0  0  0
 14 17  1  0  0  0  0
 17 18  1  0  0  0  0
 18 19  1  0  0  0  0
 18 20  1  0  0  0  0
 18 21  1  0  0  0  0
 22 23  2  0  0  0  0
 22 24  1  0  0  0  0
 24 25  1  0  0  0  0
 24 26  1  0  0  0  0
 26 27  1  0  0  0  0
 26 28  1  0  0  0  0
 26 29  1  0  0  0  0
M  END
$$$$

  -OEChem-04042216023D

 29 28  0     1  0  0  0  0  0999 V2000
   -2.1195   -4.5280    0.6307 H   0  0  0  0  0  0  0  0  0  0  0  0
   -2.2618   -3.4887    0.3210 C   0  0  0  0  0  0  0  0  0  0  0  0
   -2.9508   -3.0051    1.0175 H   0  0  0  0  0  0  0  0  0  0  0  0
   -2.6972   -3.4776   -0.6810 H   0  0  0  0  0  0  0  0  0  0  0  0
   -0.9315   -2.7597    0.3170 C   0  0  0  0  0  0  0  0  0  0  0  0
    0.0794   -3.3384    0.6727 O   0  0  0  0  0  0  0  0  0  0  0  0
   -0.8775   -1.4406   -0.0851 N   0  0  0  0  0  0  0  0  0  0  0  0
   -1.7680   -0.9758   -0.2327 H   0  0  0  0  0  0  0  0  0  0  0  0
    0.3140   -0.5889    0.0639 C   0  0  1  0  0  0  0  0  0  0  0  0
    1.1185   -1.1763   -0.3950 H   0  0  0  0  0  0  0  0  0  0  0  0
    0.2181    0.6610   -0.8372 C   0  0  0  0  0  0  0  0  0  0  0  0
    1.2258    1.0795   -0.9358 H   0  0  0  0  0  0  0  0  0  0  0  0
   -0.0769    0.3176   -1.8341 H   0  0  0  0  0  0  0  0  0  0  0  0
   -0.7305    1.8154   -0.4425 C   0  0  0  0  0  0  0  0  0  0  0  0
   -0.1107    2.6241   -0.0406 H   0  0  0  0  0  0  0  0  0  0  0  0
   -1.2175    2.2063   -1.3415 H   0  0  0  0  0  0  0  0  0  0  0  0
   -2.0011    1.4374    0.8371 S   0  0  0  0  0  0  0  0  0  0  0  0
   -3.5302    1.3286   -0.1742 C   0  0  0  0  0  0  0  0  0  0  0  0
   -4.3826    1.0684    0.4607 H   0  0  0  0  0  0  0  0  0  0  0  0
   -3.4230    0.5644   -0.9494 H   0  0  0  0  0  0  0  0  0  0  0  0
   -3.7353    2.2901   -0.6549 H   0  0  0  0  0  0  0  0  0  0  0  0
    0.8638   -0.3448    1.4927 C   0  0  0  0  0  0  0  0  0  0  0  0
    2.0732   -0.2298    1.6474 O   0  0  0  0  0  0  0  0  0  0  0  0
    0.0402   -0.0398    2.5603 N   0  0  0  0  0  0  0  0  0  0  0  0
   -0.9486    0.0679    2.3520 H   0  0  0  0  0  0  0  0  0  0  0  0
    0.5365    0.3862    3.8628 C   0  0  0  0  0  0  0  0  0  0  0  0
    1.0570    1.3458    3.7788 H   0  0  0  0  0  0  0  0  0  0  0  0
   -0.2949    0.5007    4.5649 H   0  0  0  0  0  0  0  0  0  0  0  0
    1.2305   -0.3567    4.2703 H   0  0  0  0  0  0  0  0  0  0  0  0
  1  2  1  0  0  0  0
  2  3  1  0  0  0  0
  2  4  1  0  0  0  0
  2  5  1  0  0  0  0
  5  6  2  0  0  0  0
  5  7  1  0  0  0  0
  7  8  1  0  0  0  0
  7  9  1  0  0  0  0
  9 10  1  0  0  0  0
  9 11  1  0  0  0  0
  9 22  1  0  0  0  0
 11 12  1  0  0  0  0
 11 13  1  0  0  0  0
 11 14  1  0  0  0  0
 14 15  1  0  0  0  0
 14 16  1  0  0  0  0
 14 17  1  0  0  0  0
 17 18  1  0  0  0  0
 18 19  1  0  0  0  0
 18 20  1  0  0  0  0
 18 21  1  0  0  0  0
 22 23  2  0  0  0  0
 22 24  1  0  0  0  0
 24 25  1  0  0  0  0
 24 26  1  0  0  0  0
 26 27  1  0  0  0  0
 26 28  1  0  0  0  0
 26 29  1  0  0  0  0
M  END
$$$$

  -OEChem-04042216023D

 29 28  0     1  0  0  0  0  0999 V2000
   -1.3481   -5.0585    0.6747 H   0  0  0  0  0  0  0  0  0  0  0  0
   -1.6661   -4.0818    0.2987 C   0  0  0  0  0  0  0  0  0  0  0  0
   -2.4872   -3.7163    0.9198 H   0  0  0  0  0  0  0  0  0  0  0  0
   -2.0178   -4.1987   -0.7292 H   0  0  0  0  0  0  0  0  0  0  0  0
   -0.5069   -3.1044    0.3428 C   0  0  0  0  0  0  0  0  0  0  0  0
    0.5781   -3.4687    0.7595 O   0  0  0  0  0  0  0  0  0  0  0  0
   -0.6907   -1.8055   -0.0867 N   0  0  0  0  0  0  0  0  0  0  0  0
   -1.6421   -1.5302   -0.3116 H   0  0  0  0  0  0  0  0  0  0  0  0
    0.3132   -0.7394    0.0660 C   0  0  1  0  0  0  0  0  0  0  0  0
    1.2263   -1.1952   -0.3355 H   0  0  0  0  0  0  0  0  0  0  0  0
    0.0537    0.4146   -0.9277 C   0  0  0  0  0  0  0  0  0  0  0  0
    0.9757    1.0048   -0.9737 H   0  0  0  0  0  0  0  0  0  0  0  0
   -0.0816   -0.0279   -1.9199 H   0  0  0  0  0  0  0  0  0  0  0  0
   -1.1080    1.4078   -0.6946 C   0  0  0  0  0  0  0  0  0  0  0  0
   -0.6813    2.4143   -0.6313 H   0  0  0  0  0  0  0  0  0  0  0  0
   -1.7588    1.3909   -1.5748 H   0  0  0  0  0  0  0  0  0  0  0  0
   -2.1548    1.1490    0.7935 S   0  0  0  0  0  0  0  0  0  0  0  0
   -3.2385    2.6296    0.7332 C   0  0  0  0  0  0  0  0  0  0  0  0
   -3.9423    2.6144    1.5708 H   0  0  0  0  0  0  0  0  0  0  0  0
   -3.8065    2.6473   -0.2016 H   0  0  0  0  0  0  0  0  0  0  0  0
   -2.6379    3.5420    0.7983 H   0  0  0  0  0  0  0  0  0  0  0  0
    0.7775   -0.3628    1.4978 C   0  0  0  0  0  0  0  0  0  0  0  0
    1.9406   -0.0176    1.6669 O   0  0  0  0  0  0  0  0  0  0  0  0
   -0.1064   -0.1973    2.5478 N   0  0  0  0  0  0  0  0  0  0  0  0
   -1.0937   -0.2645    2.3172 H   0  0  0  0  0  0  0  0  0  0  0  0
    0.2765    0.3540    3.8412 C   0  0  0  0  0  0  0  0  0  0  0  0
    0.5837    1.3995    3.7354 H   0  0  0  0  0  0  0  0  0  0  0  0
   -0.5668    0.3069    4.5366 H   0  0  0  0  0  0  0  0  0  0  0  0
    1.1072   -0.2164    4.2703 H   0  0  0  0  0  0  0  0  0  0  0  0
  1  2  1  0  0  0  0
  2  3  1  0  0  0  0
  2  4  1  0  0  0  0
  2  5  1  0  0  0  0
  5  6  2  0  0  0  0
  5  7  1  0  0  0  0
  7  8  1  0  0  0  0
  7  9  1  0  0  0  0
  9 10  1  0  0  0  0
  9 11  1  0  0  0  0
  9 22  1  0  0  0  0
 11 12  1  0  0  0  0
 11 13  1  0  0  0  0
 11 14  1  0  0  0  0
 14 15  1  0  0  0  0
 14 16  1  0  0  0  0
 14 17  1  0  0  0  0
 17 18  1  0  0  0  0
 18 19  1  0  0  0  0
 18 20  1  0  0  0  0
 18 21  1  0  0  0  0
 22 23  2  0  0  0  0
 22 24  1  0  0  0  0
 24 25  1  0  0  0  0
 24 26  1  0  0  0  0
 26 27  1  0  0  0  0
 26 28  1  0  0  0  0
 26 29  1  0  0  0  0
M  END
$$$$

  -OEChem-04042216023D

 29 28  0     1  0  0  0  0  0999 V2000
   -1.4866   -5.0579    0.4088 H   0  0  0  0  0  0  0  0  0  0  0  0
   -1.7979   -4.0364    0.1723 C   0  0  0  0  0  0  0  0  0  0  0  0
   -2.5467   -3.7194    0.9021 H   0  0  0  0  0  0  0  0  0  0  0  0
   -2.2423   -4.0268   -0.8258 H   0  0  0  0  0  0  0  0  0  0  0  0
   -0.6024   -3.1036    0.2167 C   0  0  0  0  0  0  0  0  0  0  0  0
    0.4940   -3.5362    0.5234 O   0  0  0  0  0  0  0  0  0  0  0  0
   -0.7679   -1.7672   -0.0875 N   0  0  0  0  0  0  0  0  0  0  0  0
   -1.7189   -1.4488   -0.2450 H   0  0  0  0  0  0  0  0  0  0  0  0
    0.2843   -0.7487    0.0671 C   0  0  1  0  0  0  0  0  0  0  0  0
    1.1473   -1.2063   -0.4319 H   0  0  0  0  0  0  0  0  0  0  0  0
    0.0014    0.4716   -0.8392 C   0  0  0  0  0  0  0  0  0  0  0  0
    0.9401    1.0348   -0.8816 H   0  0  0  0  0  0  0  0  0  0  0  0
   -0.1880    0.1065   -1.8539 H   0  0  0  0  0  0  0  0  0  0  0  0
   -1.1037    1.4942   -0.4889 C   0  0  0  0  0  0  0  0  0  0  0  0
   -0.7146    2.4973   -0.6930 H   0  0  0  0  0  0  0  0  0  0  0  0
   -1.9399    1.3300   -1.1758 H   0  0  0  0  0  0  0  0  0  0  0  0
   -1.7924    1.4767    1.2114 S   0  0  0  0  0  0  0  0  0  0  0  0
   -2.9153    2.9285    1.1668 C   0  0  0  0  0  0  0  0  0  0  0  0
   -3.6805    2.7949    0.3964 H   0  0  0  0  0  0  0  0  0  0  0  0
   -3.4101    3.0506    2.1350 H   0  0  0  0  0  0  0  0  0  0  0  0
   -2.3490    3.8387    0.9471 H   0  0  0  0  0  0  0  0  0  0  0  0
    0.8727   -0.5132    1.4835 C   0  0  0  0  0  0  0  0  0  0  0  0
    2.0615   -0.2363    1.5885 O   0  0  0  0  0  0  0  0  0  0  0  0
    0.0791   -0.4133    2.6112 N   0  0  0  0  0  0  0  0  0  0  0  0
   -0.9234   -0.3943    2.4499 H   0  0  0  0  0  0  0  0  0  0  0  0
    0.5854    0.0156    3.9087 C   0  0  0  0  0  0  0  0  0  0  0  0
    0.9258    1.0551    3.8613 H   0  0  0  0  0  0  0  0  0  0  0  0
   -0.2018   -0.0597    4.6647 H   0  0  0  0  0  0  0  0  0  0  0  0
    1.4233   -0.6165    4.2215 H   0  0  0  0  0  0  0  0  0  0  0  0
  1  2  1  0  0  0  0
  2  3  1  0  0  0  0
  2  4  1  0  0  0  0
  2  5  1  0  0  0  0
  5  6  2  0  0  0  0
  5  7  1  0  0  0  0
  7  8  1  0  0  0  0
  7  9  1  0  0  0  0
  9 10  1  0  0  0  0
  9 11  1  0  0  0  0
  9 22  1  0  0  0  0
 11 12  1  0  0  0  0
 11 13  1  0  0  0  0
 11 14  1  0  0  0  0
 14 15  1  0  0  0  0
 14 16  1  0  0  0  0
 14 17  1  0  0  0  0
 17 18  1  0  0  0  0
 18 19  1  0  0  0  0
 18 20  1  0  0  0  0
 18 21  1  0  0  0  0
 22 23  2  0  0  0  0
 22 24  1  0  0  0  0
 24 25  1  0  0  0  0
 24 26  1  0  0  0  0
 26 27  1  0  0  0  0
 26 28  1  0  0  0  0
 26 29  1  0  0  0  0
M  END
$$$$

  -OEChem-04042216023D

 29 28  0     1  0  0  0  0  0999 V2000
   -0.6164   -4.9653    0.7393 H   0  0  0  0  0  0  0  0  0  0  0  0
   -1.1361   -4.0070    0.6500 C   0  0  0  0  0  0  0  0  0  0  0  0
   -1.6443   -3.7927    1.5930 H   0  0  0  0  0  0  0  0  0  0  0  0
   -1.8780   -4.0837   -0.1486 H   0  0  0  0  0  0  0  0  0  0  0  0
   -0.1446   -2.9037    0.3329 C   0  0  0  0  0  0  0  0  0  0  0  0
    1.0477   -3.1509    0.2962 O   0  0  0  0  0  0  0  0  0  0  0  0
   -0.5982   -1.6181    0.1174 N   0  0  0  0  0  0  0  0  0  0  0  0
   -1.5872   -1.4482    0.2685 H   0  0  0  0  0  0  0  0  0  0  0  0
    0.2783   -0.4530   -0.0948 C   0  0  1  0  0  0  0  0  0  0  0  0
    0.9793   -0.8139   -0.8569 H   0  0  0  0  0  0  0  0  0  0  0  0
   -0.4660    0.6668   -0.8629 C   0  0  0  0  0  0  0  0  0  0  0  0
    0.3143    1.3512   -1.2141 H   0  0  0  0  0  0  0  0  0  0  0  0
   -0.9205    0.2263   -1.7561 H   0  0  0  0  0  0  0  0  0  0  0  0
   -1.5304    1.5501   -0.1784 C   0  0  0  0  0  0  0  0  0  0  0  0
   -1.5684    2.5100   -0.7039 H   0  0  0  0  0  0  0  0  0  0  0  0
   -2.5023    1.0672   -0.3177 H   0  0  0  0  0  0  0  0  0  0  0  0
   -1.3462    1.8746    1.6150 S   0  0  0  0  0  0  0  0  0  0  0  0
   -2.7448    3.0222    1.9246 C   0  0  0  0  0  0  0  0  0  0  0  0
   -3.6949    2.5403    1.6757 H   0  0  0  0  0  0  0  0  0  0  0  0
   -2.7644    3.3125    2.9794 H   0  0  0  0  0  0  0  0  0  0  0  0
   -2.6363    3.9249    1.3157 H   0  0  0  0  0  0  0  0  0  0  0  0
    1.2851   -0.0620    1.0246 C   0  0  0  0  0  0  0  0  0  0  0  0
    2.3127    0.5209    0.7120 O   0  0  0  0  0  0  0  0  0  0  0  0
    1.0450    0.0106    2.3802 N   0  0  0  0  0  0  0  0  0  0  0  0
    1.8312    0.3939    2.8973 H   0  0  0  0  0  0  0  0  0  0  0  0
    0.0969   -0.8279    3.0984 C   0  0  0  0  0  0  0  0  0  0  0  0
    0.0333   -0.5049    4.1421 H   0  0  0  0  0  0  0  0  0  0  0  0
   -0.9038   -0.7585    2.6634 H   0  0  0  0  0  0  0  0  0  0  0  0
    0.4220   -1.8731    3.0783 H   0  0  0  0  0  0  0  0  0  0  0  0
  1  2  1  0  0  0  0
  2  3  1  0  0  0  0
  2  4  1  0  0  0  0
  2  5  1  0  0  0  0
  5  6  2  0  0  0  0
  5  7  1  0  0  0  0
  7  8  1  0  0  0  0
  7  9  1  0  0  0  0
  9 10  1  0  0  0  0
  9 11  1  0  0  0  0
  9 22  1  0  0  0  0
 11 12  1  0  0  0  0
 11 13  1  0  0  0  0
 11 14  1  0  0  0  0
 14 15  1  0  0  0  0
 14 16  1  0  0  0  0
 14 17  1  0  0  0  0
 17 18  1  0  0  0  0
 18 19  1  0  0  0  0
 18 20  1  0  0  0  0
 18 21  1  0  0  0  0
 22 23  2  0  0  0  0
 22 24  1  0  0  0  0
 24 25  1  0  0  0  0
 24 26  1  0  0  0  0
 26 27  1  0  0  0  0
 26 28  1  0  0  0  0
 26 29  1  0  0  0  0
M  END
$$$$

  -OEChem-04042216023D

 29 28  0     1  0  0  0  0  0999 V2000
   -1.4119   -4.9426   -0.0561 H   0  0  0  0  0  0  0  0  0  0  0  0
   -1.7732   -3.9104   -0.0809 C   0  0  0  0  0  0  0  0  0  0  0  0
   -2.3822   -3.7303    0.8079 H   0  0  0  0  0  0  0  0  0  0  0  0
   -2.3898   -3.7755   -0.9729 H   0  0  0  0  0  0  0  0  0  0  0  0
   -0.6001   -2.9491   -0.1100 C   0  0  0  0  0  0  0  0  0  0  0  0
    0.5376   -3.3823   -0.0842 O   0  0  0  0  0  0  0  0  0  0  0  0
   -0.8303   -1.5888   -0.1748 N   0  0  0  0  0  0  0  0  0  0  0  0
   -1.7978   -1.2855   -0.1456 H   0  0  0  0  0  0  0  0  0  0  0  0
    0.2296   -0.5667   -0.1060 C   0  0  1  0  0  0  0  0  0  0  0  0
    0.9669   -0.8964   -0.8479 H   0  0  0  0  0  0  0  0  0  0  0  0
   -0.2831    0.7661   -0.7044 C   0  0  0  0  0  0  0  0  0  0  0  0
    0.6076    1.3788   -0.8812 H   0  0  0  0  0  0  0  0  0  0  0  0
   -0.7200    0.5539   -1.6855 H   0  0  0  0  0  0  0  0  0  0  0  0
   -1.2730    1.6592    0.0720 C   0  0  0  0  0  0  0  0  0  0  0  0
   -1.3213    2.6289   -0.4339 H   0  0  0  0  0  0  0  0  0  0  0  0
   -2.2665    1.2066    0.0009 H   0  0  0  0  0  0  0  0  0  0  0  0
   -0.9261    1.9528    1.8479 S   0  0  0  0  0  0  0  0  0  0  0  0
   -2.2168    3.1851    2.2794 C   0  0  0  0  0  0  0  0  0  0  0  0
   -3.2139    2.7660    2.1156 H   0  0  0  0  0  0  0  0  0  0  0  0
   -2.1058    4.0829    1.6636 H   0  0  0  0  0  0  0  0  0  0  0  0
   -2.1255    3.4704    3.3318 H   0  0  0  0  0  0  0  0  0  0  0  0
    1.0855   -0.5526    1.1862 C   0  0  0  0  0  0  0  0  0  0  0  0
    2.2813   -0.3001    1.1071 O   0  0  0  0  0  0  0  0  0  0  0  0
    0.5123   -0.6593    2.4409 N   0  0  0  0  0  0  0  0  0  0  0  0
   -0.5008   -0.6325    2.4769 H   0  0  0  0  0  0  0  0  0  0  0  0
    1.2620   -0.4679    3.6755 C   0  0  0  0  0  0  0  0  0  0  0  0
    1.6652    0.5490    3.7246 H   0  0  0  0  0  0  0  0  0  0  0  0
    0.6116   -0.6266    4.5407 H   0  0  0  0  0  0  0  0  0  0  0  0
    2.0919   -1.1803    3.7329 H   0  0  0  0  0  0  0  0  0  0  0  0
  1  2  1  0  0  0  0
  2  3  1  0  0  0  0
  2  4  1  0  0  0  0
  2  5  1  0  0  0  0
  5  6  2  0  0  0  0
  5  7  1  0  0  0  0
  7  8  1  0  0  0  0
  7  9  1  0  0  0  0
  9 10  1  0  0  0  0
  9 11  1  0  0  0  0
  9 22  1  0  0  0  0
 11 12  1  0  0  0  0
 11 13  1  0  0  0  0
 11 14  1  0  0  0  0
 14 15  1  0  0  0  0
 14 16  1  0  0  0  0
 14 17  1  0  0  0  0
 17 18  1  0  0  0  0
 18 19  1  0  0  0  0
 18 20  1  0  0  0  0
 18 21  1  0  0  0  0
 22 23  2  0  0  0  0
 22 24  1  0  0  0  0
 24 25  1  0  0  0  0
 24 26  1  0  0  0  0
 26 27  1  0  0  0  0
 26 28  1  0  0  0  0
 26 29  1  0  0  0  0
M  END
$$$$

  -OEChem-04042216023D

 29 28  0     1  0  0  0  0  0999 V2000
   -2.5579   -4.5165   -0.1853 H   0  0  0  0  0  0  0  0  0  0  0  0
   -2.6023   -3.4431   -0.3912 C   0  0  0  0  0  0  0  0  0  0  0  0
   -3.4295   -3.0105    0.1766 H   0  0  0  0  0  0  0  0  0  0  0  0
   -2.7839   -3.2977   -1.4588 H   0  0  0  0  0  0  0  0  0  0  0  0
   -1.2967   -2.7818    0.0083 C   0  0  0  0  0  0  0  0  0  0  0  0
   -0.4024   -3.4489    0.4954 O   0  0  0  0  0  0  0  0  0  0  0  0
   -1.1283   -1.4252   -0.1886 N   0  0  0  0  0  0  0  0  0  0  0  0
   -1.9101   -0.9175   -0.5889 H   0  0  0  0  0  0  0  0  0  0  0  0
    0.0752   -0.6722    0.2094 C   0  0  1  0  0  0  0  0  0  0  0  0
    0.9120   -1.2302   -0.2274 H   0  0  0  0  0  0  0  0  0  0  0  0
    0.1072    0.6850   -0.5326 C   0  0  0  0  0  0  0  0  0  0  0  0
    1.1289    1.0702   -0.4583 H   0  0  0  0  0  0  0  0  0  0  0  0
   -0.0779    0.4938   -1.5944 H   0  0  0  0  0  0  0  0  0  0  0  0
   -0.8457    1.8096   -0.0813 C   0  0  0  0  0  0  0  0  0  0  0  0
   -0.6950    2.6676   -0.7445 H   0  0  0  0  0  0  0  0  0  0  0  0
   -1.8762    1.4705   -0.2208 H   0  0  0  0  0  0  0  0  0  0  0  0
   -0.6732    2.4027    1.6497 S   0  0  0  0  0  0  0  0  0  0  0  0
    1.0950    2.8888    1.7722 C   0  0  0  0  0  0  0  0  0  0  0  0
    1.7443    2.0153    1.6626 H   0  0  0  0  0  0  0  0  0  0  0  0
    1.3450    3.6146    0.9931 H   0  0  0  0  0  0  0  0  0  0  0  0
    1.2909    3.3416    2.7486 H   0  0  0  0  0  0  0  0  0  0  0  0
    0.4118   -0.6966    1.7206 C   0  0  0  0  0  0  0  0  0  0  0  0
    1.5862   -0.6985    2.0689 O   0  0  0  0  0  0  0  0  0  0  0  0
   -0.5654   -0.5101    2.6820 N   0  0  0  0  0  0  0  0  0  0  0  0
   -1.5040   -0.3191    2.3496 H   0  0  0  0  0  0  0  0  0  0  0  0
   -0.2692   -0.3384    4.0985 C   0  0  0  0  0  0  0  0  0  0  0  0
    0.3202    0.5704    4.2586 H   0  0  0  0  0  0  0  0  0  0  0  0
   -1.1973   -0.2565    4.6718 H   0  0  0  0  0  0  0  0  0  0  0  0
    0.2953   -1.1966    4.4779 H   0  0  0  0  0  0  0  0  0  0  0  0
  1  2  1  0  0  0  0
  2  3  1  0  0  0  0
  2  4  1  0  0  0  0
  2  5  1  0  0  0  0
  5  6  2  0  0  0  0
  5  7  1  0  0  0  0
  7  8  1  0  0  0  0
  7  9  1  0  0  0  0
  9 10  1  0  0  0  0
  9 11  1  0  0  0  0
  9 22  1  0  0  0  0
 11 12  1  0  0  0  0
 11 13  1  0  0  0  0
 11 14  1  0  0  0  0
 14 15  1  0  0  0  0
 14 16  1  0  0  0  0
 14 17  1  0  0  0  0
 17 18  1  0  0  0  0
 18 19  1  0  0  0  0
 18 20  1  0  0  0  0
 18 21  1  0  0  0  0
 22 23  2  0  0  0  0
 22 24  1  0  0  0  0
 24 25  1  0  0  0  0
 24 26  1  0  0  0  0
 26 27  1  0  0  0  0
 26 28  1  0  0  0  0
 26 29  1  0  0  0  0
M  END
$$$$

  -OEChem-04042216023D

 29 28  0     1  0  0  0  0  0999 V2000
   -2.5793   -4.5047    0.1656 H   0  0  0  0  0  0  0  0  0  0  0  0
   -2.6250   -3.4506   -0.1232 C   0  0  0  0  0  0  0  0  0  0  0  0
   -3.4576   -2.9782    0.4033 H   0  0  0  0  0  0  0  0  0  0  0  0
   -2.7993   -3.3894   -1.2000 H   0  0  0  0  0  0  0  0  0  0  0  0
   -1.3233   -2.7570    0.2326 C   0  0  0  0  0  0  0  0  0  0  0  0
   -0.4244   -3.3880    0.7574 O   0  0  0  0  0  0  0  0  0  0  0  0
   -1.1606   -1.4149   -0.0506 N   0  0  0  0  0  0  0  0  0  0  0  0
   -1.9241   -0.9503   -0.5309 H   0  0  0  0  0  0  0  0  0  0  0  0
    0.0754   -0.6550    0.2162 C   0  0  1  0  0  0  0  0  0  0  0  0
    0.8779   -1.2179   -0.2749 H   0  0  0  0  0  0  0  0  0  0  0  0
    0.0190    0.6979   -0.5268 C   0  0  0  0  0  0  0  0  0  0  0  0
    1.0350    1.0958   -0.5953 H   0  0  0  0  0  0  0  0  0  0  0  0
   -0.3061    0.5034   -1.5538 H   0  0  0  0  0  0  0  0  0  0  0  0
   -0.9021    1.7806    0.0668 C   0  0  0  0  0  0  0  0  0  0  0  0
   -1.0436    2.5535   -0.6956 H   0  0  0  0  0  0  0  0  0  0  0  0
   -1.8851    1.3491    0.2773 H   0  0  0  0  0  0  0  0  0  0  0  0
   -0.2843    2.6216    1.5859 S   0  0  0  0  0  0  0  0  0  0  0  0
    1.4832    3.0086    1.2634 C   0  0  0  0  0  0  0  0  0  0  0  0
    2.0777    2.0905    1.2313 H   0  0  0  0  0  0  0  0  0  0  0  0
    1.5907    3.5362    0.3114 H   0  0  0  0  0  0  0  0  0  0  0  0
    1.8775    3.6434    2.0623 H   0  0  0  0  0  0  0  0  0  0  0  0
    0.5226   -0.6020    1.6968 C   0  0  0  0  0  0  0  0  0  0  0  0
    1.7192   -0.5869    1.9584 O   0  0  0  0  0  0  0  0  0  0  0  0
   -0.3864   -0.3513    2.7088 N   0  0  0  0  0  0  0  0  0  0  0  0
   -1.3579   -0.2438    2.4412 H   0  0  0  0  0  0  0  0  0  0  0  0
    0.0017   -0.1058    4.0915 C   0  0  0  0  0  0  0  0  0  0  0  0
    0.5667   -0.9567    4.4868 H   0  0  0  0  0  0  0  0  0  0  0  0
   -0.8866    0.0378    4.7137 H   0  0  0  0  0  0  0  0  0  0  0  0
    0.6231    0.7933    4.1606 H   0  0  0  0  0  0  0  0  0  0  0  0
  1  2  1  0  0  0  0
  2  3  1  0  0  0  0
  2  4  1  0  0  0  0
  2  5  1  0  0  0  0
  5  6  2  0  0  0  0
  5  7  1  0  0  0  0
  7  8  1  0  0  0  0
  7  9  1  0  0  0  0
  9 10  1  0  0  0  0
  9 11  1  0  0  0  0
  9 22  1  0  0  0  0
 11 12  1  0  0  0  0
 11 13  1  0  0  0  0
 11 14  1  0  0  0  0
 14 15  1  0  0  0  0
 14 16  1  0  0  0  0
 14 17  1  0  0  0  0
 17 18  1  0  0  0  0
 18 19  1  0  0  0  0
 18 20  1  0  0  0  0
 18 21  1  0  0  0  0
 22 23  2  0  0  0  0
 22 24  1  0  0  0  0
 24 25  1  0  0  0  0
 24 26  1  0  0  0  0
 26 27  1  0  0  0  0
 26 28  1  0  0  0  0
 26 29  1  0  0  0  0
M  END
$$$$

  -OEChem-04042216023D

 29 28  0     1  0  0  0  0  0999 V2000
   -2.7676   -4.3046    0.0346 H   0  0  0  0  0  0  0  0  0  0  0  0
   -2.6909   -3.2630   -0.2912 C   0  0  0  0  0  0  0  0  0  0  0  0
   -3.5461   -2.7083    0.1023 H   0  0  0  0  0  0  0  0  0  0  0  0
   -2.7159   -3.2346   -1.3832 H   0  0  0  0  0  0  0  0  0  0  0  0
   -1.3973   -2.6526    0.2146 C   0  0  0  0  0  0  0  0  0  0  0  0
   -0.6307   -3.3216    0.8828 O   0  0  0  0  0  0  0  0  0  0  0  0
   -1.0929   -1.3405   -0.0907 N   0  0  0  0  0  0  0  0  0  0  0  0
   -1.7350   -0.8530   -0.7071 H   0  0  0  0  0  0  0  0  0  0  0  0
    0.1693   -0.6750    0.2847 C   0  0  1  0  0  0  0  0  0  0  0  0
    0.9716   -1.3027   -0.1203 H   0  0  0  0  0  0  0  0  0  0  0  0
    0.2813    0.6785   -0.4431 C   0  0  0  0  0  0  0  0  0  0  0  0
    1.3249    0.9990   -0.4368 H   0  0  0  0  0  0  0  0  0  0  0  0
    0.0152    0.5202   -1.4930 H   0  0  0  0  0  0  0  0  0  0  0  0
   -0.6218    1.7916    0.1219 C   0  0  0  0  0  0  0  0  0  0  0  0
   -0.8629    2.4709   -0.7019 H   0  0  0  0  0  0  0  0  0  0  0  0
   -1.5668    1.3699    0.4768 H   0  0  0  0  0  0  0  0  0  0  0  0
    0.1279    2.8215    1.4575 S   0  0  0  0  0  0  0  0  0  0  0  0
    1.9065    3.0565    1.0582 C   0  0  0  0  0  0  0  0  0  0  0  0
    2.0261    3.3919    0.0241 H   0  0  0  0  0  0  0  0  0  0  0  0
    2.3405    3.8090    1.7230 H   0  0  0  0  0  0  0  0  0  0  0  0
    2.4554    2.1197    1.1973 H   0  0  0  0  0  0  0  0  0  0  0  0
    0.4755   -0.5937    1.7992 C   0  0  0  0  0  0  0  0  0  0  0  0
    1.6413   -0.6309    2.1728 O   0  0  0  0  0  0  0  0  0  0  0  0
   -0.5049   -0.2247    2.7025 N   0  0  0  0  0  0  0  0  0  0  0  0
   -1.4519   -0.1418    2.3516 H   0  0  0  0  0  0  0  0  0  0  0  0
   -0.2353    0.0689    4.1037 C   0  0  0  0  0  0  0  0  0  0  0  0
    0.4305    0.9341    4.1910 H   0  0  0  0  0  0  0  0  0  0  0  0
   -1.1677    0.2953    4.6293 H   0  0  0  0  0  0  0  0  0  0  0  0
    0.2369   -0.7907    4.5908 H   0  0  0  0  0  0  0  0  0  0  0  0
  1  2  1  0  0  0  0
  2  3  1  0  0  0  0
  2  4  1  0  0  0  0
  2  5  1  0  0  0  0
  5  6  2  0  0  0  0
  5  7  1  0  0  0  0
  7  8  1  0  0  0  0
  7  9  1  0  0  0  0
  9 10  1  0  0  0  0
  9 11  1  0  0  0  0
  9 22  1  0  0  0  0
 11 12  1  0  0  0  0
 11 13  1  0  0  0  0
 11 14  1  0  0  0  0
 14 15  1  0  0  0  0
 14 16  1  0  0  0  0
 14 17  1  0  0  0  0
 17 18  1  0  0  0  0
 18 19  1  0  0  0  0
 18 20  1  0  0  0  0
 18 21  1  0  0  0  0
 22 23  2  0  0  0  0
 22 24  1  0  0  0  0
 24 25  1  0  0  0  0
 24 26  1  0  0  0  0
 26 27  1  0  0  0  0
 26 28  1  0  0  0  0
 26 29  1  0  0  0  0
M  END
$$$$

  -OEChem-04042216023D

 29 28  0     1  0  0  0  0  0999 V2000
   -2.6656   -4.1545    0.4389 H   0  0  0  0  0  0  0  0  0  0  0  0
   -2.6293   -3.1501    0.0069 C   0  0  0  0  0  0  0  0  0  0  0  0
   -3.4688   -2.5695    0.3968 H   0  0  0  0  0  0  0  0  0  0  0  0
   -2.7227   -3.2323   -1.0787 H   0  0  0  0  0  0  0  0  0  0  0  0
   -1.3184   -2.4757    0.3659 C   0  0  0  0  0  0  0  0  0  0  0  0
   -0.5068   -3.0604    1.0589 O   0  0  0  0  0  0  0  0  0  0  0  0
   -1.0551   -1.1997   -0.0934 N   0  0  0  0  0  0  0  0  0  0  0  0
   -1.7321   -0.8026   -0.7374 H   0  0  0  0  0  0  0  0  0  0  0  0
    0.2363   -0.5044    0.0776 C   0  0  1  0  0  0  0  0  0  0  0  0
    1.0050   -1.1598   -0.3479 H   0  0  0  0  0  0  0  0  0  0  0  0
    0.2133    0.7654   -0.8046 C   0  0  0  0  0  0  0  0  0  0  0  0
    1.2409    1.1126   -0.9465 H   0  0  0  0  0  0  0  0  0  0  0  0
   -0.1544    0.4851   -1.7969 H   0  0  0  0  0  0  0  0  0  0  0  0
   -0.6393    1.9385   -0.2844 C   0  0  0  0  0  0  0  0  0  0  0  0
   -1.2316    2.3318   -1.1166 H   0  0  0  0  0  0  0  0  0  0  0  0
   -1.3482    1.5773    0.4656 H   0  0  0  0  0  0  0  0  0  0  0  0
    0.3110    3.3554    0.4267 S   0  0  0  0  0  0  0  0  0  0  0  0
    1.7876    2.7749    1.3550 C   0  0  0  0  0  0  0  0  0  0  0  0
    2.3876    2.0860    0.7545 H   0  0  0  0  0  0  0  0  0  0  0  0
    2.4146    3.6305    1.6216 H   0  0  0  0  0  0  0  0  0  0  0  0
    1.4874    2.2762    2.2783 H   0  0  0  0  0  0  0  0  0  0  0  0
    0.6648   -0.3007    1.5495 C   0  0  0  0  0  0  0  0  0  0  0  0
    1.8472   -0.3910    1.8535 O   0  0  0  0  0  0  0  0  0  0  0  0
   -0.2439    0.1431    2.4945 N   0  0  0  0  0  0  0  0  0  0  0  0
   -1.2203    0.0858    2.2265 H   0  0  0  0  0  0  0  0  0  0  0  0
    0.0778    0.2225    3.9146 C   0  0  0  0  0  0  0  0  0  0  0  0
    0.9645    0.8429    4.0801 H   0  0  0  0  0  0  0  0  0  0  0  0
   -0.7565    0.6662    4.4662 H   0  0  0  0  0  0  0  0  0  0  0  0
    0.2706   -0.7775    4.3170 H   0  0  0  0  0  0  0  0  0  0  0  0
  1  2  1  0  0  0  0
  2  3  1  0  0  0  0
  2  4  1  0  0  0  0
  2  5  1  0  0  0  0
  5  6  2  0  0  0  0
  5  7  1  0  0  0  0
  7  8  1  0  0  0  0
  7  9  1  0  0  0  0
  9 10  1  0  0  0  0
  9 11  1  0  0  0  0
  9 22  1  0  0  0  0
 11 12  1  0  0  0  0
 11 13  1  0  0  0  0
 11 14  1  0  0  0  0
 14 15  1  0  0  0  0
 14 16  1  0  0  0  0
 14 17  1  0  0  0  0
 17 18  1  0  0  0  0
 18 19  1  0  0  0  0
 18 20  1  0  0  0  0
 18 21  1  0  0  0  0
 22 23  2  0  0  0  0
 22 24  1  0  0  0  0
 24 25  1  0  0  0  0
 24 26  1  0  0  0  0
 26 27  1  0  0  0  0
 26 28  1  0  0  0  0
 26 29  1  0  0  0  0
M  END
$$$$

  -OEChem-04042216023D

 29 28  0     1  0  0  0  0  0999 V2000
   -2.6905   -4.1065    0.5206 H   0  0  0  0  0  0  0  0  0  0  0  0
   -2.6606   -3.1057    0.0801 C   0  0  0  0  0  0  0  0  0  0  0  0
   -3.4813   -2.5148    0.4935 H   0  0  0  0  0  0  0  0  0  0  0  0
   -2.7916   -3.1949   -1.0010 H   0  0  0  0  0  0  0  0  0  0  0  0
   -1.3331   -2.4402    0.3896 C   0  0  0  0  0  0  0  0  0  0  0  0
   -0.5147   -3.0125    1.0851 O   0  0  0  0  0  0  0  0  0  0  0  0
   -1.0645   -1.1797   -0.1069 N   0  0  0  0  0  0  0  0  0  0  0  0
   -1.7521   -0.7865   -0.7422 H   0  0  0  0  0  0  0  0  0  0  0  0
    0.2429   -0.5057    0.0097 C   0  0  1  0  0  0  0  0  0  0  0  0
    0.9804   -1.1950   -0.4181 H   0  0  0  0  0  0  0  0  0  0  0  0
    0.2488    0.7378   -0.9051 C   0  0  0  0  0  0  0  0  0  0  0  0
    1.2905    1.0453   -1.0441 H   0  0  0  0  0  0  0  0  0  0  0  0
   -0.1244    0.4536   -1.8941 H   0  0  0  0  0  0  0  0  0  0  0  0
   -0.5609    1.9453   -0.3968 C   0  0  0  0  0  0  0  0  0  0  0  0
   -1.3394    2.1810   -1.1293 H   0  0  0  0  0  0  0  0  0  0  0  0
   -1.0678    1.7137    0.5426 H   0  0  0  0  0  0  0  0  0  0  0  0
    0.4841    3.4446   -0.1660 S   0  0  0  0  0  0  0  0  0  0  0  0
    1.7021    3.0075    1.1377 C   0  0  0  0  0  0  0  0  0  0  0  0
    2.3448    2.1872    0.8063 H   0  0  0  0  0  0  0  0  0  0  0  0
    2.3347    3.8714    1.3617 H   0  0  0  0  0  0  0  0  0  0  0  0
    1.1877    2.7078    2.0542 H   0  0  0  0  0  0  0  0  0  0  0  0
    0.7401   -0.2675    1.4563 C   0  0  0  0  0  0  0  0  0  0  0  0
    1.9399   -0.3098    1.6949 O   0  0  0  0  0  0  0  0  0  0  0  0
   -0.1153    0.2191    2.4294 N   0  0  0  0  0  0  0  0  0  0  0  0
   -1.1052    0.1159    2.2325 H   0  0  0  0  0  0  0  0  0  0  0  0
    0.2971    0.3858    3.8180 C   0  0  0  0  0  0  0  0  0  0  0  0
    1.1608    1.0551    3.8879 H   0  0  0  0  0  0  0  0  0  0  0  0
   -0.5188    0.8174    4.4055 H   0  0  0  0  0  0  0  0  0  0  0  0
    0.5673   -0.5819    4.2538 H   0  0  0  0  0  0  0  0  0  0  0  0
  1  2  1  0  0  0  0
  2  3  1  0  0  0  0
  2  4  1  0  0  0  0
  2  5  1  0  0  0  0
  5  6  2  0  0  0  0
  5  7  1  0  0  0  0
  7  8  1  0  0  0  0
  7  9  1  0  0  0  0
  9 10  1  0  0  0  0
  9 11  1  0  0  0  0
  9 22  1  0  0  0  0
 11 12  1  0  0  0  0
 11 13  1  0  0  0  0
 11 14  1  0  0  0  0
 14 15  1  0  0  0  0
 14 16  1  0  0  0  0
 14 17  1  0  0  0  0
 17 18  1  0  0  0  0
 18 19  1  0  0  0  0
 18 20  1  0  0  0  0
 18 21  1  0  0  0  0
 22 23  2  0  0  0  0
 22 24  1  0  0  0  0
 24 25  1  0  0  0  0
 24 26  1  0  0  0  0
 26 27  1  0  0  0  0
 26 28  1  0  0  0  0
 26 29  1  0  0  0  0
M  END
$$$$

  -OEChem-04042216023D

 29 28  0     1  0  0  0  0  0999 V2000
   -2.7005   -4.1126    0.5154 H   0  0  0  0  0  0  0  0  0  0  0  0
   -2.6743   -3.1120    0.0743 C   0  0  0  0  0  0  0  0  0  0  0  0
   -3.4960   -2.5233    0.4890 H   0  0  0  0  0  0  0  0  0  0  0  0
   -2.8075   -3.2020   -1.0064 H   0  0  0  0  0  0  0  0  0  0  0  0
   -1.3485   -2.4418    0.3808 C   0  0  0  0  0  0  0  0  0  0  0  0
   -0.5300   -3.0047    1.0843 O   0  0  0  0  0  0  0  0  0  0  0  0
   -1.0845   -1.1826   -0.1203 N   0  0  0  0  0  0  0  0  0  0  0  0
   -1.7688   -0.7997   -0.7653 H   0  0  0  0  0  0  0  0  0  0  0  0
    0.2239   -0.5110   -0.0161 C   0  0  1  0  0  0  0  0  0  0  0  0
    0.9498   -1.2100   -0.4475 H   0  0  0  0  0  0  0  0  0  0  0  0
    0.2515    0.7294   -0.9308 C   0  0  0  0  0  0  0  0  0  0  0  0
    1.3010    1.0183   -1.0477 H   0  0  0  0  0  0  0  0  0  0  0  0
   -0.1093    0.4592   -1.9282 H   0  0  0  0  0  0  0  0  0  0  0  0
   -0.5456    1.9434   -0.4194 C   0  0  0  0  0  0  0  0  0  0  0  0
   -1.4746    2.0286   -0.9916 H   0  0  0  0  0  0  0  0  0  0  0  0
   -0.8243    1.8382    0.6297 H   0  0  0  0  0  0  0  0  0  0  0  0
    0.4262    3.4899   -0.6129 S   0  0  0  0  0  0  0  0  0  0  0  0
    1.6911    3.3051    0.7097 C   0  0  0  0  0  0  0  0  0  0  0  0
    2.3282    2.4366    0.5179 H   0  0  0  0  0  0  0  0  0  0  0  0
    2.3236    4.1966    0.7504 H   0  0  0  0  0  0  0  0  0  0  0  0
    1.2077    3.1739    1.6822 H   0  0  0  0  0  0  0  0  0  0  0  0
    0.7570   -0.2604    1.4169 C   0  0  0  0  0  0  0  0  0  0  0  0
    1.9666   -0.2270    1.6022 O   0  0  0  0  0  0  0  0  0  0  0  0
   -0.0720    0.2353    2.4081 N   0  0  0  0  0  0  0  0  0  0  0  0
   -1.0655    0.0852    2.2659 H   0  0  0  0  0  0  0  0  0  0  0  0
    0.4003    0.5194    3.7578 C   0  0  0  0  0  0  0  0  0  0  0  0
    1.1906    1.2773    3.7375 H   0  0  0  0  0  0  0  0  0  0  0  0
   -0.4209    0.8964    4.3748 H   0  0  0  0  0  0  0  0  0  0  0  0
    0.7963   -0.3896    4.2230 H   0  0  0  0  0  0  0  0  0  0  0  0
  1  2  1  0  0  0  0
  2  3  1  0  0  0  0
  2  4  1  0  0  0  0
  2  5  1  0  0  0  0
  5  6  2  0  0  0  0
  5  7  1  0  0  0  0
  7  8  1  0  0  0  0
  7  9  1  0  0  0  0
  9 10  1  0  0  0  0
  9 11  1  0  0  0  0
  9 22  1  0  0  0  0
 11 12  1  0  0  0  0
 11 13  1  0  0  0  0
 11 14  1  0  0  0  0
 14 15  1  0  0  0  0
 14 16  1  0  0  0  0
 14 17  1  0  0  0  0
 17 18  1  0  0  0  0
 18 19  1  0  0  0  0
 18 20  1  0  0  0  0
 18 21  1  0  0  0  0
 22 23  2  0  0  0  0
 22 24  1  0  0  0  0
 24 25  1  0  0  0  0
 24 26  1  0  0  0  0
 26 27  1  0  0  0  0
 26 28  1  0  0  0  0
 26 29  1  0  0  0  0
M  END
$$$$

  -OEChem-04042216023D

 29 28  0     1  0  0  0  0  0999 V2000
   -2.6993   -4.1174    0.5382 H   0  0  0  0  0  0  0  0  0  0  0  0
   -2.6725   -3.1239    0.0814 C   0  0  0  0  0  0  0  0  0  0  0  0
   -3.4991   -2.5309    0.4801 H   0  0  0  0  0  0  0  0  0  0  0  0
   -2.7969   -3.2319   -0.9989 H   0  0  0  0  0  0  0  0  0  0  0  0
   -1.3504   -2.4454    0.3877 C   0  0  0  0  0  0  0  0  0  0  0  0
   -0.5291   -3.0035    1.0919 O   0  0  0  0  0  0  0  0  0  0  0  0
   -1.0914   -1.1864   -0.1167 N   0  0  0  0  0  0  0  0  0  0  0  0
   -1.7756   -0.8111   -0.7665 H   0  0  0  0  0  0  0  0  0  0  0  0
    0.2174   -0.5132   -0.0226 C   0  0  1  0  0  0  0  0  0  0  0  0
    0.9427   -1.2094   -0.4596 H   0  0  0  0  0  0  0  0  0  0  0  0
    0.2332    0.7300   -0.9339 C   0  0  0  0  0  0  0  0  0  0  0  0
    1.2817    1.0226   -1.0466 H   0  0  0  0  0  0  0  0  0  0  0  0
   -0.1283    0.4661   -1.9327 H   0  0  0  0  0  0  0  0  0  0  0  0
   -0.5589    1.9417   -0.4136 C   0  0  0  0  0  0  0  0  0  0  0  0
   -1.5962    1.8758   -0.7559 H   0  0  0  0  0  0  0  0  0  0  0  0
   -0.5737    1.9801    0.6763 H   0  0  0  0  0  0  0  0  0  0  0  0
    0.1998    3.5026   -1.0152 S   0  0  0  0  0  0  0  0  0  0  0  0
    1.6587    3.6646    0.0935 C   0  0  0  0  0  0  0  0  0  0  0  0
    2.3423    2.8209   -0.0390 H   0  0  0  0  0  0  0  0  0  0  0  0
    2.2000    4.5883   -0.1319 H   0  0  0  0  0  0  0  0  0  0  0  0
    1.3391    3.6926    1.1394 H   0  0  0  0  0  0  0  0  0  0  0  0
    0.7538   -0.2639    1.4085 C   0  0  0  0  0  0  0  0  0  0  0  0
    1.9637   -0.2170    1.5886 O   0  0  0  0  0  0  0  0  0  0  0  0
   -0.0775    0.2298    2.3988 N   0  0  0  0  0  0  0  0  0  0  0  0
   -1.0708    0.0784    2.2561 H   0  0  0  0  0  0  0  0  0  0  0  0
    0.3941    0.5277    3.7455 C   0  0  0  0  0  0  0  0  0  0  0  0
    1.1769    1.2931    3.7176 H   0  0  0  0  0  0  0  0  0  0  0  0
   -0.4295    0.9012    4.3614 H   0  0  0  0  0  0  0  0  0  0  0  0
    0.7995   -0.3742    4.2164 H   0  0  0  0  0  0  0  0  0  0  0  0
  1  2  1  0  0  0  0
  2  3  1  0  0  0  0
  2  4  1  0  0  0  0
  2  5  1  0  0  0  0
  5  6  2  0  0  0  0
  5  7  1  0  0  0  0
  7  8  1  0  0  0  0
  7  9  1  0  0  0  0
  9 10  1  0  0  0  0
  9 11  1  0  0  0  0
  9 22  1  0  0  0  0
 11 12  1  0  0  0  0
 11 13  1  0  0  0  0
 11 14  1  0  0  0  0
 14 15  1  0  0  0  0
 14 16  1  0  0  0  0
 14 17  1  0  0  0  0
 17 18  1  0  0  0  0
 18 19  1  0  0  0  0
 18 20  1  0  0  0  0
 18 21  1  0  0  0  0
 22 23  2  0  0  0  0
 22 24  1  0  0  0  0
 24 25  1  0  0  0  0
 24 26  1  0  0  0  0
 26 27  1  0  0  0  0
 26 28  1  0  0  0  0
 26 29  1  0  0  0  0
M  END
$$$$

  -OEChem-04042216023D

 29 28  0     1  0  0  0  0  0999 V2000
   -2.6842   -4.1242    0.5414 H   0  0  0  0  0  0  0  0  0  0  0  0
   -2.6599   -3.1306    0.0845 C   0  0  0  0  0  0  0  0  0  0  0  0
   -3.4902   -2.5412    0.4804 H   0  0  0  0  0  0  0  0  0  0  0  0
   -2.7804   -3.2390   -0.9961 H   0  0  0  0  0  0  0  0  0  0  0  0
   -1.3415   -2.4466    0.3946 C   0  0  0  0  0  0  0  0  0  0  0  0
   -0.5185   -3.0028    1.0982 O   0  0  0  0  0  0  0  0  0  0  0  0
   -1.0845   -1.1886   -0.1136 N   0  0  0  0  0  0  0  0  0  0  0  0
   -1.7698   -0.8161   -0.7641 H   0  0  0  0  0  0  0  0  0  0  0  0
    0.2230   -0.5114   -0.0229 C   0  0  1  0  0  0  0  0  0  0  0  0
    0.9534   -1.1983   -0.4664 H   0  0  0  0  0  0  0  0  0  0  0  0
    0.2147    0.7408   -0.9220 C   0  0  0  0  0  0  0  0  0  0  0  0
    1.2564    1.0507   -1.0486 H   0  0  0  0  0  0  0  0  0  0  0  0
   -0.1651    0.4822   -1.9154 H   0  0  0  0  0  0  0  0  0  0  0  0
   -0.5823    1.9326   -0.3710 C   0  0  0  0  0  0  0  0  0  0  0  0
   -1.6549    1.7350   -0.4574 H   0  0  0  0  0  0  0  0  0  0  0  0
   -0.3553    2.1079    0.6831 H   0  0  0  0  0  0  0  0  0  0  0  0
   -0.1507    3.4596   -1.2962 S   0  0  0  0  0  0  0  0  0  0  0  0
    1.4819    3.9167   -0.5852 C   0  0  0  0  0  0  0  0  0  0  0  0
    2.2255    3.1424   -0.7938 H   0  0  0  0  0  0  0  0  0  0  0  0
    1.8287    4.8573   -1.0232 H   0  0  0  0  0  0  0  0  0  0  0  0
    1.4023    4.0440    0.4985 H   0  0  0  0  0  0  0  0  0  0  0  0
    0.7509   -0.2605    1.4106 C   0  0  0  0  0  0  0  0  0  0  0  0
    1.9591   -0.2175    1.6006 O   0  0  0  0  0  0  0  0  0  0  0  0
   -0.0910    0.2319    2.3928 N   0  0  0  0  0  0  0  0  0  0  0  0
   -1.0825    0.0791    2.2401 H   0  0  0  0  0  0  0  0  0  0  0  0
    0.3664    0.5318    3.7443 C   0  0  0  0  0  0  0  0  0  0  0  0
    1.1521    1.2944    3.7240 H   0  0  0  0  0  0  0  0  0  0  0  0
   -0.4632    0.9103    4.3491 H   0  0  0  0  0  0  0  0  0  0  0  0
    0.7630   -0.3698    4.2230 H   0  0  0  0  0  0  0  0  0  0  0  0
  1  2  1  0  0  0  0
  2  3  1  0  0  0  0
  2  4  1  0  0  0  0
  2  5  1  0  0  0  0
  5  6  2  0  0  0  0
  5  7  1  0  0  0  0
  7  8  1  0  0  0  0
  7  9  1  0  0  0  0
  9 10  1  0  0  0  0
  9 11  1  0  0  0  0
  9 22  1  0  0  0  0
 11 12  1  0  0  0  0
 11 13  1  0  0  0  0
 11 14  1  0  0  0  0
 14 15  1  0  0  0  0
 14 16  1  0  0  0  0
 14 17  1  0  0  0  0
 17 18  1  0  0  0  0
 18 19  1  0  0  0  0
 18 20  1  0  0  0  0
 18 21  1  0  0  0  0
 22 23  2  0  0  0  0
 22 24  1  0  0  0  0
 24 25  1  0  0  0  0
 24 26  1  0  0  0  0
 26 27  1  0  0  0  0
 26 28  1  0  0  0  0
 26 29  1  0  0  0  0
M  END
$$$$

  -OEChem-04042216023D

 29 28  0     1  0  0  0  0  0999 V2000
   -2.6628   -4.1153    0.5470 H   0  0  0  0  0  0  0  0  0  0  0  0
   -2.6442   -3.1198    0.0942 C   0  0  0  0  0  0  0  0  0  0  0  0
   -3.4640   -2.5288    0.5097 H   0  0  0  0  0  0  0  0  0  0  0  0
   -2.7866   -3.2225   -0.9843 H   0  0  0  0  0  0  0  0  0  0  0  0
   -1.3177   -2.4421    0.3812 C   0  0  0  0  0  0  0  0  0  0  0  0
   -0.4820   -3.0050    1.0645 O   0  0  0  0  0  0  0  0  0  0  0  0
   -1.0698   -1.1794   -0.1194 N   0  0  0  0  0  0  0  0  0  0  0  0
   -1.7701   -0.7937   -0.7460 H   0  0  0  0  0  0  0  0  0  0  0  0
    0.2317   -0.4915   -0.0231 C   0  0  1  0  0  0  0  0  0  0  0  0
    0.9662   -1.1692   -0.4736 H   0  0  0  0  0  0  0  0  0  0  0  0
    0.2021    0.7682   -0.9151 C   0  0  0  0  0  0  0  0  0  0  0  0
    1.2248    0.9492   -1.2597 H   0  0  0  0  0  0  0  0  0  0  0  0
   -0.4088    0.5820   -1.8042 H   0  0  0  0  0  0  0  0  0  0  0  0
   -0.2898    2.0404   -0.2120 C   0  0  0  0  0  0  0  0  0  0  0  0
   -1.3080    1.8879    0.1588 H   0  0  0  0  0  0  0  0  0  0  0  0
    0.3506    2.2869    0.6414 H   0  0  0  0  0  0  0  0  0  0  0  0
   -0.2755    3.4532   -1.3865 S   0  0  0  0  0  0  0  0  0  0  0  0
    1.5134    3.8540   -1.5156 C   0  0  0  0  0  0  0  0  0  0  0  0
    2.0638    3.0233   -1.9663 H   0  0  0  0  0  0  0  0  0  0  0  0
    1.6527    4.7414   -2.1401 H   0  0  0  0  0  0  0  0  0  0  0  0
    1.9298    4.0550   -0.5240 H   0  0  0  0  0  0  0  0  0  0  0  0
    0.7529   -0.2454    1.4130 C   0  0  0  0  0  0  0  0  0  0  0  0
    1.9597   -0.1969    1.6104 O   0  0  0  0  0  0  0  0  0  0  0  0
   -0.1002    0.2345    2.3916 N   0  0  0  0  0  0  0  0  0  0  0  0
   -1.0902    0.0844    2.2269 H   0  0  0  0  0  0  0  0  0  0  0  0
    0.3439    0.5258    3.7492 C   0  0  0  0  0  0  0  0  0  0  0  0
    1.1248    1.2937    3.7422 H   0  0  0  0  0  0  0  0  0  0  0  0
   -0.4932    0.8934    4.3504 H   0  0  0  0  0  0  0  0  0  0  0  0
    0.7424   -0.3774    4.2233 H   0  0  0  0  0  0  0  0  0  0  0  0
  1  2  1  0  0  0  0
  2  3  1  0  0  0  0
  2  4  1  0  0  0  0
  2  5  1  0  0  0  0
  5  6  2  0  0  0  0
  5  7  1  0  0  0  0
  7  8  1  0  0  0  0
  7  9  1  0  0  0  0
  9 10  1  0  0  0  0
  9 11  1  0  0  0  0
  9 22  1  0  0  0  0
 11 12  1  0  0  0  0
 11 13  1  0  0  0  0
 11 14  1  0  0  0  0
 14 15  1  0  0  0  0
 14 16  1  0  0  0  0
 14 17  1  0  0  0  0
 17 18  1  0  0  0  0
 18 19  1  0  0  0  0
 18 20  1  0  0  0  0
 18 21  1  0  0  0  0
 22 23  2  0  0  0  0
 22 24  1  0  0  0  0
 24 25  1  0  0  0  0
 24 26  1  0  0  0  0
 26 27  1  0  0  0  0
 26 28  1  0  0  0  0
 26 29  1  0  0  0  0
M  END
$$$$

  -OEChem-04042216023D

 29 28  0     1  0  0  0  0  0999 V2000
   -2.6467   -4.1170    0.5170 H   0  0  0  0  0  0  0  0  0  0  0  0
   -2.6324   -3.1179    0.0720 C   0  0  0  0  0  0  0  0  0  0  0  0
   -3.4549   -2.5342    0.4920 H   0  0  0  0  0  0  0  0  0  0  0  0
   -2.7738   -3.2126   -1.0074 H   0  0  0  0  0  0  0  0  0  0  0  0
   -1.3088   -2.4365    0.3639 C   0  0  0  0  0  0  0  0  0  0  0  0
   -0.4675   -3.0035    1.0368 O   0  0  0  0  0  0  0  0  0  0  0  0
   -1.0680   -1.1665   -0.1214 N   0  0  0  0  0  0  0  0  0  0  0  0
   -1.7767   -0.7696   -0.7319 H   0  0  0  0  0  0  0  0  0  0  0  0
    0.2280   -0.4702   -0.0150 C   0  0  1  0  0  0  0  0  0  0  0  0
    0.9667   -1.1391   -0.4717 H   0  0  0  0  0  0  0  0  0  0  0  0
    0.1963    0.7991   -0.8917 C   0  0  0  0  0  0  0  0  0  0  0  0
    1.2138    0.9978   -1.2429 H   0  0  0  0  0  0  0  0  0  0  0  0
   -0.4207    0.6151   -1.7772 H   0  0  0  0  0  0  0  0  0  0  0  0
   -0.3069    2.0516   -0.1637 C   0  0  0  0  0  0  0  0  0  0  0  0
   -1.2109    1.8109    0.4038 H   0  0  0  0  0  0  0  0  0  0  0  0
    0.4488    2.4171    0.5401 H   0  0  0  0  0  0  0  0  0  0  0  0
   -0.7234    3.3651   -1.3784 S   0  0  0  0  0  0  0  0  0  0  0  0
    0.9318    3.8815   -1.9860 C   0  0  0  0  0  0  0  0  0  0  0  0
    1.4271    3.0539   -2.5015 H   0  0  0  0  0  0  0  0  0  0  0  0
    0.8297    4.7160   -2.6861 H   0  0  0  0  0  0  0  0  0  0  0  0
    1.5597    4.2019   -1.1493 H   0  0  0  0  0  0  0  0  0  0  0  0
    0.7525   -0.2320    1.4217 C   0  0  0  0  0  0  0  0  0  0  0  0
    1.9599   -0.1755    1.6135 O   0  0  0  0  0  0  0  0  0  0  0  0
   -0.0976    0.2330    2.4097 N   0  0  0  0  0  0  0  0  0  0  0  0
   -1.0876    0.0759    2.2516 H   0  0  0  0  0  0  0  0  0  0  0  0
    0.3551    0.5205    3.7653 C   0  0  0  0  0  0  0  0  0  0  0  0
    1.1284    1.2959    3.7554 H   0  0  0  0  0  0  0  0  0  0  0  0
   -0.4800    0.8763    4.3760 H   0  0  0  0  0  0  0  0  0  0  0  0
    0.7673   -0.3816    4.2298 H   0  0  0  0  0  0  0  0  0  0  0  0
  1  2  1  0  0  0  0
  2  3  1  0  0  0  0
  2  4  1  0  0  0  0
  2  5  1  0  0  0  0
  5  6  2  0  0  0  0
  5  7  1  0  0  0  0
  7  8  1  0  0  0  0
  7  9  1  0  0  0  0
  9 10  1  0  0  0  0
  9 11  1  0  0  0  0
  9 22  1  0  0  0  0
 11 12  1  0  0  0  0
 11 13  1  0  0  0  0
 11 14  1  0  0  0  0
 14 15  1  0  0  0  0
 14 16  1  0  0  0  0
 14 17  1  0  0  0  0
 17 18  1  0  0  0  0
 18 19  1  0  0  0  0
 18 20  1  0  0  0  0
 18 21  1  0  0  0  0
 22 23  2  0  0  0  0
 22 24  1  0  0  0  0
 24 25  1  0  0  0  0
 24 26  1  0  0  0  0
 26 27  1  0  0  0  0
 26 28  1  0  0  0  0
 26 29  1  0  0  0  0
M  END
$$$$

  -OEChem-04042216023D

 29 28  0     1  0  0  0  0  0999 V2000
   -2.6411   -4.1131    0.5000 H   0  0  0  0  0  0  0  0  0  0  0  0
   -2.6313   -3.1100    0.0640 C   0  0  0  0  0  0  0  0  0  0  0  0
   -3.4460   -2.5285    0.5020 H   0  0  0  0  0  0  0  0  0  0  0  0
   -2.7900   -3.1940   -1.0138 H   0  0  0  0  0  0  0  0  0  0  0  0
   -1.3021   -2.4339    0.3424 C   0  0  0  0  0  0  0  0  0  0  0  0
   -0.4478   -3.0126    0.9886 O   0  0  0  0  0  0  0  0  0  0  0  0
   -1.0722   -1.1534   -0.1193 N   0  0  0  0  0  0  0  0  0  0  0  0
   -1.7956   -0.7384   -0.6996 H   0  0  0  0  0  0  0  0  0  0  0  0
    0.2177   -0.4483   -0.0040 C   0  0  1  0  0  0  0  0  0  0  0  0
    0.9574   -1.1103   -0.4692 H   0  0  0  0  0  0  0  0  0  0  0  0
    0.1869    0.8263   -0.8731 C   0  0  0  0  0  0  0  0  0  0  0  0
    1.2025    1.0343   -1.2260 H   0  0  0  0  0  0  0  0  0  0  0  0
   -0.4277    0.6360   -1.7592 H   0  0  0  0  0  0  0  0  0  0  0  0
   -0.3266    2.0771   -0.1458 C   0  0  0  0  0  0  0  0  0  0  0  0
   -1.0771    1.7968    0.5981 H   0  0  0  0  0  0  0  0  0  0  0  0
    0.4939    2.5821    0.3756 H   0  0  0  0  0  0  0  0  0  0  0  0
   -1.1456    3.2122   -1.3361 S   0  0  0  0  0  0  0  0  0  0  0  0
    0.2758    3.8146   -2.3320 C   0  0  0  0  0  0  0  0  0  0  0  0
    0.7565    2.9829   -2.8549 H   0  0  0  0  0  0  0  0  0  0  0  0
   -0.0670    4.5418   -3.0741 H   0  0  0  0  0  0  0  0  0  0  0  0
    1.0139    4.2977   -1.6846 H   0  0  0  0  0  0  0  0  0  0  0  0
    0.7535   -0.2276    1.4315 C   0  0  0  0  0  0  0  0  0  0  0  0
    1.9626   -0.1681    1.6112 O   0  0  0  0  0  0  0  0  0  0  0  0
   -0.0868    0.2144    2.4384 N   0  0  0  0  0  0  0  0  0  0  0  0
   -1.0787    0.0614    2.2882 H   0  0  0  0  0  0  0  0  0  0  0  0
    0.3805    0.4877    3.7920 C   0  0  0  0  0  0  0  0  0  0  0  0
    1.1458    1.2710    3.7834 H   0  0  0  0  0  0  0  0  0  0  0  0
   -0.4503    0.8268    4.4181 H   0  0  0  0  0  0  0  0  0  0  0  0
    0.8068   -0.4167    4.2391 H   0  0  0  0  0  0  0  0  0  0  0  0
  1  2  1  0  0  0  0
  2  3  1  0  0  0  0
  2  4  1  0  0  0  0
  2  5  1  0  0  0  0
  5  6  2  0  0  0  0
  5  7  1  0  0  0  0
  7  8  1  0  0  0  0
  7  9  1  0  0  0  0
  9 10  1  0  0  0  0
  9 11  1  0  0  0  0
  9 22  1  0  0  0  0
 11 12  1  0  0  0  0
 11 13  1  0  0  0  0
 11 14  1  0  0  0  0
 14 15  1  0  0  0  0
 14 16  1  0  0  0  0
 14 17  1  0  0  0  0
 17 18  1  0  0  0  0
 18 19  1  0  0  0  0
 18 20  1  0  0  0  0
 18 21  1  0  0  0  0
 22 23  2  0  0  0  0
 22 24  1  0  0  0  0
 24 25  1  0  0  0  0
 24 26  1  0  0  0  0
 26 27  1  0  0  0  0
 26 28  1  0  0  0  0
 26 29  1  0  0  0  0
M  END
$$$$

  -OEChem-04042216023D

 29 28  0     1  0  0  0  0  0999 V2000
   -2.6446   -4.1105    0.4903 H   0  0  0  0  0  0  0  0  0  0  0  0
   -2.6394   -3.1004    0.0706 C   0  0  0  0  0  0  0  0  0  0  0  0
   -3.4459   -2.5245    0.5305 H   0  0  0  0  0  0  0  0  0  0  0  0
   -2.8150   -3.1670   -1.0058 H   0  0  0  0  0  0  0  0  0  0  0  0
   -1.3045   -2.4308    0.3381 C   0  0  0  0  0  0  0  0  0  0  0  0
   -0.4369   -3.0237    0.9530 O   0  0  0  0  0  0  0  0  0  0  0  0
   -1.0831   -1.1411   -0.1009 N   0  0  0  0  0  0  0  0  0  0  0  0
   -1.8256   -0.7047   -0.6404 H   0  0  0  0  0  0  0  0  0  0  0  0
    0.2037   -0.4315    0.0145 C   0  0  1  0  0  0  0  0  0  0  0  0
    0.9392   -1.0923   -0.4599 H   0  0  0  0  0  0  0  0  0  0  0  0
    0.1715    0.8396   -0.8604 C   0  0  0  0  0  0  0  0  0  0  0  0
    1.1905    1.0460   -1.2046 H   0  0  0  0  0  0  0  0  0  0  0  0
   -0.4275    0.6355   -1.7536 H   0  0  0  0  0  0  0  0  0  0  0  0
   -0.3463    2.1060   -0.1579 C   0  0  0  0  0  0  0  0  0  0  0  0
   -0.8905    1.8494    0.7529 H   0  0  0  0  0  0  0  0  0  0  0  0
    0.4899    2.7547    0.1243 H   0  0  0  0  0  0  0  0  0  0  0  0
   -1.5277    2.9985   -1.2471 S   0  0  0  0  0  0  0  0  0  0  0  0
   -0.4134    3.6686   -2.5446 C   0  0  0  0  0  0  0  0  0  0  0  0
    0.0955    2.8554   -3.0698 H   0  0  0  0  0  0  0  0  0  0  0  0
   -0.9901    4.2473   -3.2722 H   0  0  0  0  0  0  0  0  0  0  0  0
    0.3394    4.3232   -2.0953 H   0  0  0  0  0  0  0  0  0  0  0  0
    0.7575   -0.2319    1.4464 C   0  0  0  0  0  0  0  0  0  0  0  0
    1.9686   -0.1687    1.6099 O   0  0  0  0  0  0  0  0  0  0  0  0
   -0.0687    0.1876    2.4742 N   0  0  0  0  0  0  0  0  0  0  0  0
   -1.0627    0.0385    2.3340 H   0  0  0  0  0  0  0  0  0  0  0  0
    0.4162    0.4338    3.8267 C   0  0  0  0  0  0  0  0  0  0  0  0
    1.1751    1.2233    3.8253 H   0  0  0  0  0  0  0  0  0  0  0  0
   -0.4083    0.7512    4.4721 H   0  0  0  0  0  0  0  0  0  0  0  0
    0.8560   -0.4770    4.2464 H   0  0  0  0  0  0  0  0  0  0  0  0
  1  2  1  0  0  0  0
  2  3  1  0  0  0  0
  2  4  1  0  0  0  0
  2  5  1  0  0  0  0
  5  6  2  0  0  0  0
  5  7  1  0  0  0  0
  7  8  1  0  0  0  0
  7  9  1  0  0  0  0
  9 10  1  0  0  0  0
  9 11  1  0  0  0  0
  9 22  1  0  0  0  0
 11 12  1  0  0  0  0
 11 13  1  0  0  0  0
 11 14  1  0  0  0  0
 14 15  1  0  0  0  0
 14 16  1  0  0  0  0
 14 17  1  0  0  0  0
 17 18  1  0  0  0  0
 18 19  1  0  0  0  0
 18 20  1  0  0  0  0
 18 21  1  0  0  0  0
 22 23  2  0  0  0  0
 22 24  1  0  0  0  0
 24 25  1  0  0  0  0
 24 26  1  0  0  0  0
 26 27  1  0  0  0  0
 26 28  1  0  0  0  0
 26 29  1  0  0  0  0
M  END
$$$$

  -OEChem-04042216023D

 29 28  0     1  0  0  0  0  0999 V2000
   -2.6500   -4.1038    0.5376 H   0  0  0  0  0  0  0  0  0  0  0  0
   -2.6471   -3.0940    0.1172 C   0  0  0  0  0  0  0  0  0  0  0  0
   -3.4343   -2.5103    0.6003 H   0  0  0  0  0  0  0  0  0  0  0  0
   -2.8542   -3.1589   -0.9536 H   0  0  0  0  0  0  0  0  0  0  0  0
   -1.2989   -2.4370    0.3445 C   0  0  0  0  0  0  0  0  0  0  0  0
   -0.4141   -3.0448    0.9193 O   0  0  0  0  0  0  0  0  0  0  0  0
   -1.0843   -1.1426   -0.0841 N   0  0  0  0  0  0  0  0  0  0  0  0
   -1.8493   -0.6821   -0.5701 H   0  0  0  0  0  0  0  0  0  0  0  0
    0.2013   -0.4304    0.0236 C   0  0  1  0  0  0  0  0  0  0  0  0
    0.9333   -1.0910   -0.4559 H   0  0  0  0  0  0  0  0  0  0  0  0
    0.1624    0.8350   -0.8611 C   0  0  0  0  0  0  0  0  0  0  0  0
    1.1887    1.0358   -1.1864 H   0  0  0  0  0  0  0  0  0  0  0  0
   -0.4142    0.6222   -1.7669 H   0  0  0  0  0  0  0  0  0  0  0  0
   -0.3545    2.1194   -0.1870 C   0  0  0  0  0  0  0  0  0  0  0  0
   -0.6317    1.9492    0.8533 H   0  0  0  0  0  0  0  0  0  0  0  0
    0.4281    2.8851   -0.1930 H   0  0  0  0  0  0  0  0  0  0  0  0
   -1.8413    2.7390   -1.0730 S   0  0  0  0  0  0  0  0  0  0  0  0
   -1.1007    3.4618   -2.5915 C   0  0  0  0  0  0  0  0  0  0  0  0
   -0.5631    2.6961   -3.1582 H   0  0  0  0  0  0  0  0  0  0  0  0
   -1.8851    3.8813   -3.2285 H   0  0  0  0  0  0  0  0  0  0  0  0
   -0.4008    4.2604   -2.3276 H   0  0  0  0  0  0  0  0  0  0  0  0
    0.7642   -0.2461    1.4539 C   0  0  0  0  0  0  0  0  0  0  0  0
    1.9765   -0.1887    1.6125 O   0  0  0  0  0  0  0  0  0  0  0  0
   -0.0568    0.1588    2.4918 N   0  0  0  0  0  0  0  0  0  0  0  0
   -1.0530    0.0253    2.3502 H   0  0  0  0  0  0  0  0  0  0  0  0
    0.4336    0.3806    3.8462 C   0  0  0  0  0  0  0  0  0  0  0  0
    1.1982    1.1644    3.8539 H   0  0  0  0  0  0  0  0  0  0  0  0
   -0.3865    0.6935    4.4993 H   0  0  0  0  0  0  0  0  0  0  0  0
    0.8685   -0.5397    4.2502 H   0  0  0  0  0  0  0  0  0  0  0  0
  1  2  1  0  0  0  0
  2  3  1  0  0  0  0
  2  4  1  0  0  0  0
  2  5  1  0  0  0  0
  5  6  2  0  0  0  0
  5  7  1  0  0  0  0
  7  8  1  0  0  0  0
  7  9  1  0  0  0  0
  9 10  1  0  0  0  0
  9 11  1  0  0  0  0
  9 22  1  0  0  0  0
 11 12  1  0  0  0  0
 11 13  1  0  0  0  0
 11 14  1  0  0  0  0
 14 15  1  0  0  0  0
 14 16  1  0  0  0  0
 14 17  1  0  0  0  0
 17 18  1  0  0  0  0
 18 19  1  0  0  0  0
 18 20  1  0  0  0  0
 18 21  1  0  0  0  0
 22 23  2  0  0  0  0
 22 24  1  0  0  0  0
 24 25  1  0  0  0  0
 24 26  1  0  0  0  0
 26 27  1  0  0  0  0
 26 28  1  0  0  0  0
 26 29  1  0  0  0  0
M  END
$$$$

  -OEChem-04042216023D

 29 28  0     1  0  0  0  0  0999 V2000
   -2.6604   -4.0813    0.6105 H   0  0  0  0  0  0  0  0  0  0  0  0
   -2.6498   -3.0791    0.1729 C   0  0  0  0  0  0  0  0  0  0  0  0
   -3.4070   -2.4695    0.6716 H   0  0  0  0  0  0  0  0  0  0  0  0
   -2.8939   -3.1563   -0.8893 H   0  0  0  0  0  0  0  0  0  0  0  0
   -1.2799   -2.4510    0.3447 C   0  0  0  0  0  0  0  0  0  0  0  0
   -0.3836   -3.0795    0.8781 O   0  0  0  0  0  0  0  0  0  0  0  0
   -1.0570   -1.1600   -0.0893 N   0  0  0  0  0  0  0  0  0  0  0  0
   -1.8418   -0.6673   -0.5082 H   0  0  0  0  0  0  0  0  0  0  0  0
    0.2309   -0.4529    0.0169 C   0  0  1  0  0  0  0  0  0  0  0  0
    0.9648   -1.1126   -0.4609 H   0  0  0  0  0  0  0  0  0  0  0  0
    0.1790    0.8099   -0.8703 C   0  0  0  0  0  0  0  0  0  0  0  0
    1.2100    1.0115   -1.1802 H   0  0  0  0  0  0  0  0  0  0  0  0
   -0.3838    0.5999   -1.7850 H   0  0  0  0  0  0  0  0  0  0  0  0
   -0.3368    2.0968   -0.2020 C   0  0  0  0  0  0  0  0  0  0  0  0
   -0.3138    2.0442    0.8864 H   0  0  0  0  0  0  0  0  0  0  0  0
    0.3071    2.9346   -0.4890 H   0  0  0  0  0  0  0  0  0  0  0  0
   -2.0491    2.4487   -0.7721 S   0  0  0  0  0  0  0  0  0  0  0  0
   -1.7612    3.1700   -2.4376 C   0  0  0  0  0  0  0  0  0  0  0  0
   -1.2566    2.4492   -3.0872 H   0  0  0  0  0  0  0  0  0  0  0  0
   -2.7155    3.4453   -2.8966 H   0  0  0  0  0  0  0  0  0  0  0  0
   -1.1402    4.0674   -2.3592 H   0  0  0  0  0  0  0  0  0  0  0  0
    0.7803   -0.2705    1.4517 C   0  0  0  0  0  0  0  0  0  0  0  0
    1.9905   -0.2186    1.6258 O   0  0  0  0  0  0  0  0  0  0  0  0
   -0.0534    0.1394    2.4776 N   0  0  0  0  0  0  0  0  0  0  0  0
   -1.0497    0.0320    2.3162 H   0  0  0  0  0  0  0  0  0  0  0  0
    0.4172    0.3747    3.8367 C   0  0  0  0  0  0  0  0  0  0  0  0
    1.1864    1.1540    3.8479 H   0  0  0  0  0  0  0  0  0  0  0  0
   -0.4112    0.7009    4.4725 H   0  0  0  0  0  0  0  0  0  0  0  0
    0.8395   -0.5435    4.2584 H   0  0  0  0  0  0  0  0  0  0  0  0
  1  2  1  0  0  0  0
  2  3  1  0  0  0  0
  2  4  1  0  0  0  0
  2  5  1  0  0  0  0
  5  6  2  0  0  0  0
  5  7  1  0  0  0  0
  7  8  1  0  0  0  0
  7  9  1  0  0  0  0
  9 10  1  0  0  0  0
  9 11  1  0  0  0  0
  9 22  1  0  0  0  0
 11 12  1  0  0  0  0
 11 13  1  0  0  0  0
 11 14  1  0  0  0  0
 14 15  1  0  0  0  0
 14 16  1  0  0  0  0
 14 17  1  0  0  0  0
 17 18  1  0  0  0  0
 18 19  1  0  0  0  0
 18 20  1  0  0  0  0
 18 21  1  0  0  0  0
 22 23  2  0  0  0  0
 22 24  1  0  0  0  0
 24 25  1  0  0  0  0
 24 26  1  0  0  0  0
 26 27  1  0  0  0  0
 26 28  1  0  0  0  0
 26 29  1  0  0  0  0
M  END
$$$$

  -OEChem-04042216023D

 29 28  0     1  0  0  0  0  0999 V2000
   -2.6632   -4.0594    0.6665 H   0  0  0  0  0  0  0  0  0  0  0  0
   -2.6447   -3.0625    0.2168 C   0  0  0  0  0  0  0  0  0  0  0  0
   -3.3706   -2.4305    0.7338 H   0  0  0  0  0  0  0  0  0  0  0  0
   -2.9269   -3.1459   -0.8355 H   0  0  0  0  0  0  0  0  0  0  0  0
   -1.2558   -2.4642    0.3342 C   0  0  0  0  0  0  0  0  0  0  0  0
   -0.3523   -3.1136    0.8292 O   0  0  0  0  0  0  0  0  0  0  0  0
   -1.0218   -1.1802   -0.1140 N   0  0  0  0  0  0  0  0  0  0  0  0
   -1.8210   -0.6563   -0.4624 H   0  0  0  0  0  0  0  0  0  0  0  0
    0.2692   -0.4797   -0.0033 C   0  0  1  0  0  0  0  0  0  0  0  0
    1.0084   -1.1373   -0.4753 H   0  0  0  0  0  0  0  0  0  0  0  0
    0.2097    0.7877   -0.8836 C   0  0  0  0  0  0  0  0  0  0  0  0
    1.2392    0.9953   -1.1944 H   0  0  0  0  0  0  0  0  0  0  0  0
   -0.3584    0.5880   -1.7969 H   0  0  0  0  0  0  0  0  0  0  0  0
   -0.3056    2.0614   -0.1946 C   0  0  0  0  0  0  0  0  0  0  0  0
   -0.0186    2.1147    0.8573 H   0  0  0  0  0  0  0  0  0  0  0  0
    0.1410    2.9345   -0.6813 H   0  0  0  0  0  0  0  0  0  0  0  0
   -2.1322    2.1662   -0.3807 S   0  0  0  0  0  0  0  0  0  0  0  0
   -2.3227    2.7859   -2.1005 C   0  0  0  0  0  0  0  0  0  0  0  0
   -1.8961    2.0769   -2.8156 H   0  0  0  0  0  0  0  0  0  0  0  0
   -3.3830    2.9207   -2.3344 H   0  0  0  0  0  0  0  0  0  0  0  0
   -1.8155    3.7487   -2.2146 H   0  0  0  0  0  0  0  0  0  0  0  0
    0.7944   -0.2880    1.4389 C   0  0  0  0  0  0  0  0  0  0  0  0
    2.0011   -0.2528    1.6397 O   0  0  0  0  0  0  0  0  0  0  0  0
   -0.0574    0.1378    2.4433 N   0  0  0  0  0  0  0  0  0  0  0  0
   -1.0521    0.0922    2.2459 H   0  0  0  0  0  0  0  0  0  0  0  0
    0.3836    0.4006    3.8072 C   0  0  0  0  0  0  0  0  0  0  0  0
    1.1479    1.1847    3.8191 H   0  0  0  0  0  0  0  0  0  0  0  0
   -0.4598    0.7323    4.4205 H   0  0  0  0  0  0  0  0  0  0  0  0
    0.8030   -0.5069    4.2543 H   0  0  0  0  0  0  0  0  0  0  0  0
  1  2  1  0  0  0  0
  2  3  1  0  0  0  0
  2  4  1  0  0  0  0
  2  5  1  0  0  0  0
  5  6  2  0  0  0  0
  5  7  1  0  0  0  0
  7  8  1  0  0  0  0
  7  9  1  0  0  0  0
  9 10  1  0  0  0  0
  9 11  1  0  0  0  0
  9 22  1  0  0  0  0
 11 12  1  0  0  0  0
 11 13  1  0  0  0  0
 11 14  1  0  0  0  0
 14 15  1  0  0  0  0
 14 16  1  0  0  0  0
 14 17  1  0  0  0  0
 17 18  1  0  0  0  0
 18 19  1  0  0  0  0
 18 20  1  0  0  0  0
 18 21  1  0  0  0  0
 22 23  2  0  0  0  0
 22 24  1  0  0  0  0
 24 25  1  0  0  0  0
 24 26  1  0  0  0  0
 26 27  1  0  0  0  0
 26 28  1  0  0  0  0
 26 29  1  0  0  0  0
M  END
$$$$

  -OEChem-04042216023D

 29 28  0     1  0  0  0  0  0999 V2000
   -2.6558   -4.0485    0.6944 H   0  0  0  0  0  0  0  0  0  0  0  0
   -2.6377   -3.0487    0.2512 C   0  0  0  0  0  0  0  0  0  0  0  0
   -3.3229   -2.4055    0.8082 H   0  0  0  0  0  0  0  0  0  0  0  0
   -2.9735   -3.1175   -0.7864 H   0  0  0  0  0  0  0  0  0  0  0  0
   -1.2324   -2.4804    0.3039 C   0  0  0  0  0  0  0  0  0  0  0  0
   -0.3201   -3.1510    0.7524 O   0  0  0  0  0  0  0  0  0  0  0  0
   -0.9951   -1.1996   -0.1513 N   0  0  0  0  0  0  0  0  0  0  0  0
   -1.8074   -0.6481   -0.4162 H   0  0  0  0  0  0  0  0  0  0  0  0
    0.2960   -0.5018   -0.0261 C   0  0  1  0  0  0  0  0  0  0  0  0
    1.0430   -1.1549   -0.4926 H   0  0  0  0  0  0  0  0  0  0  0  0
    0.2399    0.7777   -0.8903 C   0  0  0  0  0  0  0  0  0  0  0  0
    1.2660    0.9942   -1.2058 H   0  0  0  0  0  0  0  0  0  0  0  0
   -0.3378    0.5935   -1.8008 H   0  0  0  0  0  0  0  0  0  0  0  0
   -0.2795    2.0326   -0.1727 C   0  0  0  0  0  0  0  0  0  0  0  0
    0.2152    2.1764    0.7920 H   0  0  0  0  0  0  0  0  0  0  0  0
   -0.0469    2.9143   -0.7786 H   0  0  0  0  0  0  0  0  0  0  0  0
   -2.1055    1.9300    0.0411 S   0  0  0  0  0  0  0  0  0  0  0  0
   -2.7325    2.3427   -1.6366 C   0  0  0  0  0  0  0  0  0  0  0  0
   -2.4000    1.5997   -2.3669 H   0  0  0  0  0  0  0  0  0  0  0  0
   -3.8265    2.3618   -1.6336 H   0  0  0  0  0  0  0  0  0  0  0  0
   -2.3681    3.3271   -1.9455 H   0  0  0  0  0  0  0  0  0  0  0  0
    0.7979   -0.3034    1.4235 C   0  0  0  0  0  0  0  0  0  0  0  0
    2.0002   -0.2950    1.6511 O   0  0  0  0  0  0  0  0  0  0  0  0
   -0.0679    0.1315    2.4118 N   0  0  0  0  0  0  0  0  0  0  0  0
   -1.0529    0.1867    2.1706 H   0  0  0  0  0  0  0  0  0  0  0  0
    0.3528    0.4373    3.7729 C   0  0  0  0  0  0  0  0  0  0  0  0
    1.0806    1.2554    3.7748 H   0  0  0  0  0  0  0  0  0  0  0  0
   -0.5084    0.7393    4.3766 H   0  0  0  0  0  0  0  0  0  0  0  0
    0.8099   -0.4428    4.2374 H   0  0  0  0  0  0  0  0  0  0  0  0
  1  2  1  0  0  0  0
  2  3  1  0  0  0  0
  2  4  1  0  0  0  0
  2  5  1  0  0  0  0
  5  6  2  0  0  0  0
  5  7  1  0  0  0  0
  7  8  1  0  0  0  0
  7  9  1  0  0  0  0
  9 10  1  0  0  0  0
  9 11  1  0  0  0  0
  9 22  1  0  0  0  0
 11 12  1  0  0  0  0
 11 13  1  0  0  0  0
 11 14  1  0  0  0  0
 14 15  1  0  0  0  0
 14 16  1  0  0  0  0
 14 17  1  0  0  0  0
 17 18  1  0  0  0  0
 18 19  1  0  0  0  0
 18 20  1  0  0  0  0
 18 21  1  0  0  0  0
 22 23  2  0  0  0  0
 22 24  1  0  0  0  0
 24 25  1  0  0  0  0
 24 26  1  0  0  0  0
 26 27  1  0  0  0  0
 26 28  1  0  0  0  0
 26 29  1  0  0  0  0
M  END
$$$$

  -OEChem-04042216023D

 29 28  0     1  0  0  0  0  0999 V2000
   -2.6230   -4.0906    0.6855 H   0  0  0  0  0  0  0  0  0  0  0  0
   -2.6273   -3.0747    0.2806 C   0  0  0  0  0  0  0  0  0  0  0  0
   -3.2739   -2.4510    0.9024 H   0  0  0  0  0  0  0  0  0  0  0  0
   -3.0260   -3.1030   -0.7361 H   0  0  0  0  0  0  0  0  0  0  0  0
   -1.2186   -2.5127    0.2687 C   0  0  0  0  0  0  0  0  0  0  0  0
   -0.2864   -3.1971    0.6509 O   0  0  0  0  0  0  0  0  0  0  0  0
   -1.0018   -1.2229   -0.1710 N   0  0  0  0  0  0  0  0  0  0  0  0
   -1.8294   -0.6597   -0.3462 H   0  0  0  0  0  0  0  0  0  0  0  0
    0.2819   -0.5156   -0.0270 C   0  0  1  0  0  0  0  0  0  0  0  0
    1.0323   -1.1635   -0.4952 H   0  0  0  0  0  0  0  0  0  0  0  0
    0.2513    0.7748   -0.8758 C   0  0  0  0  0  0  0  0  0  0  0  0
    1.2791    0.9889   -1.1877 H   0  0  0  0  0  0  0  0  0  0  0  0
   -0.3274    0.6005   -1.7878 H   0  0  0  0  0  0  0  0  0  0  0  0
   -0.2762    2.0271   -0.1574 C   0  0  0  0  0  0  0  0  0  0  0  0
    0.3664    2.2644    0.6972 H   0  0  0  0  0  0  0  0  0  0  0  0
   -0.2341    2.8830   -0.8385 H   0  0  0  0  0  0  0  0  0  0  0  0
   -2.0105    1.7938    0.4243 S   0  0  0  0  0  0  0  0  0  0  0  0
   -2.9685    1.9366   -1.1369 C   0  0  0  0  0  0  0  0  0  0  0  0
   -2.6840    1.1471   -1.8381 H   0  0  0  0  0  0  0  0  0  0  0  0
   -4.0392    1.8498   -0.9291 H   0  0  0  0  0  0  0  0  0  0  0  0
   -2.7827    2.9073   -1.6067 H   0  0  0  0  0  0  0  0  0  0  0  0
    0.7861   -0.3249    1.4236 C   0  0  0  0  0  0  0  0  0  0  0  0
    1.9891   -0.3243    1.6486 O   0  0  0  0  0  0  0  0  0  0  0  0
   -0.0751    0.0935    2.4222 N   0  0  0  0  0  0  0  0  0  0  0  0
   -1.0420    0.2561    2.1548 H   0  0  0  0  0  0  0  0  0  0  0  0
    0.3630    0.4638    3.7615 C   0  0  0  0  0  0  0  0  0  0  0  0
    1.0122    1.3447    3.7228 H   0  0  0  0  0  0  0  0  0  0  0  0
   -0.5016    0.6958    4.3908 H   0  0  0  0  0  0  0  0  0  0  0  0
    0.9148   -0.3611    4.2249 H   0  0  0  0  0  0  0  0  0  0  0  0
  1  2  1  0  0  0  0
  2  3  1  0  0  0  0
  2  4  1  0  0  0  0
  2  5  1  0  0  0  0
  5  6  2  0  0  0  0
  5  7  1  0  0  0  0
  7  8  1  0  0  0  0
  7  9  1  0  0  0  0
  9 10  1  0  0  0  0
  9 11  1  0  0  0  0
  9 22  1  0  0  0  0
 11 12  1  0  0  0  0
 11 13  1  0  0  0  0
 11 14  1  0  0  0  0
 14 15  1  0  0  0  0
 14 16  1  0  0  0  0
 14 17  1  0  0  0  0
 17 18  1  0  0  0  0
 18 19  1  0  0  0  0
 18 20  1  0  0  0  0
 18 21  1  0  0  0  0
 22 23  2  0  0  0  0
 22 24  1  0  0  0  0
 24 25  1  0  0  0  0
 24 26  1  0  0  0  0
 26 27  1  0  0  0  0
 26 28  1  0  0  0  0
 26 29  1  0  0  0  0
M  END
$$$$

  -OEChem-04042216023D

 29 28  0     1  0  0  0  0  0999 V2000
   -2.5319   -4.1983    0.6999 H   0  0  0  0  0  0  0  0  0  0  0  0
   -2.5723   -3.1831    0.2947 C   0  0  0  0  0  0  0  0  0  0  0  0
   -3.2376   -2.5824    0.9194 H   0  0  0  0  0  0  0  0  0  0  0  0
   -2.9740   -3.2253   -0.7205 H   0  0  0  0  0  0  0  0  0  0  0  0
   -1.1831   -2.5737    0.2778 C   0  0  0  0  0  0  0  0  0  0  0  0
   -0.2244   -3.2365    0.6312 O   0  0  0  0  0  0  0  0  0  0  0  0
   -1.0147   -1.2663   -0.1313 N   0  0  0  0  0  0  0  0  0  0  0  0
   -1.8624   -0.7265   -0.2758 H   0  0  0  0  0  0  0  0  0  0  0  0
    0.2461   -0.5208    0.0224 C   0  0  1  0  0  0  0  0  0  0  0  0
    1.0014   -1.1652   -0.4429 H   0  0  0  0  0  0  0  0  0  0  0  0
    0.2368    0.7526   -0.8527 C   0  0  0  0  0  0  0  0  0  0  0  0
    1.2691    0.9628   -1.1527 H   0  0  0  0  0  0  0  0  0  0  0  0
   -0.3238    0.5423   -1.7690 H   0  0  0  0  0  0  0  0  0  0  0  0
   -0.3237    2.0335   -0.2104 C   0  0  0  0  0  0  0  0  0  0  0  0
    0.4157    2.4141    0.5028 H   0  0  0  0  0  0  0  0  0  0  0  0
   -0.4632    2.8030   -0.9764 H   0  0  0  0  0  0  0  0  0  0  0  0
   -1.9037    1.7577    0.6997 S   0  0  0  0  0  0  0  0  0  0  0  0
   -3.1190    1.7353   -0.6777 C   0  0  0  0  0  0  0  0  0  0  0  0
   -2.8749    0.9452   -1.3936 H   0  0  0  0  0  0  0  0  0  0  0  0
   -4.1259    1.5577   -0.2879 H   0  0  0  0  0  0  0  0  0  0  0  0
   -3.1130    2.6964   -1.2012 H   0  0  0  0  0  0  0  0  0  0  0  0
    0.7889   -0.3285    1.4604 C   0  0  0  0  0  0  0  0  0  0  0  0
    1.9995   -0.3066    1.6419 O   0  0  0  0  0  0  0  0  0  0  0  0
   -0.0371    0.0474    2.5034 N   0  0  0  0  0  0  0  0  0  0  0  0
   -1.0085    0.2323    2.2690 H   0  0  0  0  0  0  0  0  0  0  0  0
    0.4544    0.4237    3.8226 C   0  0  0  0  0  0  0  0  0  0  0  0
    1.0800    1.3198    3.7572 H   0  0  0  0  0  0  0  0  0  0  0  0
   -0.3846    0.6330    4.4928 H   0  0  0  0  0  0  0  0  0  0  0  0
    1.0468   -0.3891    4.2563 H   0  0  0  0  0  0  0  0  0  0  0  0
  1  2  1  0  0  0  0
  2  3  1  0  0  0  0
  2  4  1  0  0  0  0
  2  5  1  0  0  0  0
  5  6  2  0  0  0  0
  5  7  1  0  0  0  0
  7  8  1  0  0  0  0
  7  9  1  0  0  0  0
  9 10  1  0  0  0  0
  9 11  1  0  0  0  0
  9 22  1  0  0  0  0
 11 12  1  0  0  0  0
 11 13  1  0  0  0  0
 11 14  1  0  0  0  0
 14 15  1  0  0  0  0
 14 16  1  0  0  0  0
 14 17  1  0  0  0  0
 17 18  1  0  0  0  0
 18 19  1  0  0  0  0
 18 20  1  0  0  0  0
 18 21  1  0  0  0  0
 22 23  2  0  0  0  0
 22 24  1  0  0  0  0
 24 25  1  0  0  0  0
 24 26  1  0  0  0  0
 26 27  1  0  0  0  0
 26 28  1  0  0  0  0
 26 29  1  0  0  0  0
M  END
$$$$

  -OEChem-04042216023D

 29 28  0     1  0  0  0  0  0999 V2000
   -2.3959   -4.3393    0.6230 H   0  0  0  0  0  0  0  0  0  0  0  0
   -2.4774   -3.3099    0.2622 C   0  0  0  0  0  0  0  0  0  0  0  0
   -3.1709   -2.7661    0.9078 H   0  0  0  0  0  0  0  0  0  0  0  0
   -2.8712   -3.3241   -0.7570 H   0  0  0  0  0  0  0  0  0  0  0  0
   -1.1154   -2.6420    0.2816 C   0  0  0  0  0  0  0  0  0  0  0  0
   -0.1323   -3.2777    0.6171 O   0  0  0  0  0  0  0  0  0  0  0  0
   -1.0006   -1.3144   -0.0793 N   0  0  0  0  0  0  0  0  0  0  0  0
   -1.8680   -0.8077   -0.2219 H   0  0  0  0  0  0  0  0  0  0  0  0
    0.2333   -0.5260    0.0774 C   0  0  1  0  0  0  0  0  0  0  0  0
    0.9938   -1.1592   -0.3954 H   0  0  0  0  0  0  0  0  0  0  0  0
    0.2222    0.7276   -0.8270 C   0  0  0  0  0  0  0  0  0  0  0  0
    1.2569    0.9401   -1.1174 H   0  0  0  0  0  0  0  0  0  0  0  0
   -0.3156    0.4717   -1.7454 H   0  0  0  0  0  0  0  0  0  0  0  0
   -0.3739    2.0373   -0.2753 C   0  0  0  0  0  0  0  0  0  0  0  0
    0.4318    2.5777    0.2336 H   0  0  0  0  0  0  0  0  0  0  0  0
   -0.7125    2.6682   -1.1033 H   0  0  0  0  0  0  0  0  0  0  0  0
   -1.7330    1.8215    0.9490 S   0  0  0  0  0  0  0  0  0  0  0  0
   -3.1976    1.6829   -0.1503 C   0  0  0  0  0  0  0  0  0  0  0  0
   -3.0703    0.8586   -0.8575 H   0  0  0  0  0  0  0  0  0  0  0  0
   -4.0982    1.5012    0.4441 H   0  0  0  0  0  0  0  0  0  0  0  0
   -3.3347    2.6104   -0.7146 H   0  0  0  0  0  0  0  0  0  0  0  0
    0.8185   -0.3518    1.5026 C   0  0  0  0  0  0  0  0  0  0  0  0
    2.0345   -0.2981    1.6381 O   0  0  0  0  0  0  0  0  0  0  0  0
    0.0271   -0.0407    2.5927 N   0  0  0  0  0  0  0  0  0  0  0  0
   -0.9528    0.1450    2.3983 H   0  0  0  0  0  0  0  0  0  0  0  0
    0.5666    0.3347    3.8934 C   0  0  0  0  0  0  0  0  0  0  0  0
    1.1335    1.2684    3.8175 H   0  0  0  0  0  0  0  0  0  0  0  0
   -0.2457    0.4776    4.6123 H   0  0  0  0  0  0  0  0  0  0  0  0
    1.2290   -0.4498    4.2745 H   0  0  0  0  0  0  0  0  0  0  0  0
  1  2  1  0  0  0  0
  2  3  1  0  0  0  0
  2  4  1  0  0  0  0
  2  5  1  0  0  0  0
  5  6  2  0  0  0  0
  5  7  1  0  0  0  0
  7  8  1  0  0  0  0
  7  9  1  0  0  0  0
  9 10  1  0  0  0  0
  9 11  1  0  0  0  0
  9 22  1  0  0  0  0
 11 12  1  0  0  0  0
 11 13  1  0  0  0  0
 11 14  1  0  0  0  0
 14 15  1  0  0  0  0
 14 16  1  0  0  0  0
 14 17  1  0  0  0  0
 17 18  1  0  0  0  0
 18 19  1  0  0  0  0
 18 20  1  0  0  0  0
 18 21  1  0  0  0  0
 22 23  2  0  0  0  0
 22 24  1  0  0  0  0
 24 25  1  0  0  0  0
 24 26  1  0  0  0  0
 26 27  1  0  0  0  0
 26 28  1  0  0  0  0
 26 29  1  0  0  0  0
M  END
$$$$

  -OEChem-04042216023D

 29 28  0     1  0  0  0  0  0999 V2000
   -2.2968   -4.4408    0.5052 H   0  0  0  0  0  0  0  0  0  0  0  0
   -2.4038   -3.3988    0.1900 C   0  0  0  0  0  0  0  0  0  0  0  0
   -3.1252   -2.9061    0.8462 H   0  0  0  0  0  0  0  0  0  0  0  0
   -2.7788   -3.3788   -0.8360 H   0  0  0  0  0  0  0  0  0  0  0  0
   -1.0639   -2.6913    0.2656 C   0  0  0  0  0  0  0  0  0  0  0  0
   -0.0693   -3.3097    0.5991 O   0  0  0  0  0  0  0  0  0  0  0  0
   -0.9826   -1.3481   -0.0436 N   0  0  0  0  0  0  0  0  0  0  0  0
   -1.8554   -0.8688   -0.2353 H   0  0  0  0  0  0  0  0  0  0  0  0
    0.2362   -0.5353    0.1097 C   0  0  1  0  0  0  0  0  0  0  0  0
    0.9937   -1.1566   -0.3837 H   0  0  0  0  0  0  0  0  0  0  0  0
    0.2096    0.7130   -0.8049 C   0  0  0  0  0  0  0  0  0  0  0  0
    1.2460    0.9282   -1.0880 H   0  0  0  0  0  0  0  0  0  0  0  0
   -0.3108    0.4325   -1.7262 H   0  0  0  0  0  0  0  0  0  0  0  0
   -0.4012    2.0429   -0.3105 C   0  0  0  0  0  0  0  0  0  0  0  0
    0.4322    2.7106   -0.0670 H   0  0  0  0  0  0  0  0  0  0  0  0
   -0.9565    2.5141   -1.1275 H   0  0  0  0  0  0  0  0  0  0  0  0
   -1.4629    1.9683    1.1884 S   0  0  0  0  0  0  0  0  0  0  0  0
   -3.1254    1.7095    0.4533 C   0  0  0  0  0  0  0  0  0  0  0  0
   -3.1387    0.8015   -0.1554 H   0  0  0  0  0  0  0  0  0  0  0  0
   -3.8749    1.6134    1.2449 H   0  0  0  0  0  0  0  0  0  0  0  0
   -3.3947    2.5606   -0.1795 H   0  0  0  0  0  0  0  0  0  0  0  0
    0.8639   -0.3968    1.5216 C   0  0  0  0  0  0  0  0  0  0  0  0
    2.0832   -0.3293    1.6174 O   0  0  0  0  0  0  0  0  0  0  0  0
    0.1069   -0.1463    2.6512 N   0  0  0  0  0  0  0  0  0  0  0  0
   -0.8769    0.0505    2.4940 H   0  0  0  0  0  0  0  0  0  0  0  0
    0.6903    0.2032    3.9402 C   0  0  0  0  0  0  0  0  0  0  0  0
    1.2159    1.1614    3.8744 H   0  0  0  0  0  0  0  0  0  0  0  0
   -0.0929    0.2865    4.6995 H   0  0  0  0  0  0  0  0  0  0  0  0
    1.3993   -0.5674    4.2612 H   0  0  0  0  0  0  0  0  0  0  0  0
  1  2  1  0  0  0  0
  2  3  1  0  0  0  0
  2  4  1  0  0  0  0
  2  5  1  0  0  0  0
  5  6  2  0  0  0  0
  5  7  1  0  0  0  0
  7  8  1  0  0  0  0
  7  9  1  0  0  0  0
  9 10  1  0  0  0  0
  9 11  1  0  0  0  0
  9 22  1  0  0  0  0
 11 12  1  0  0  0  0
 11 13  1  0  0  0  0
 11 14  1  0  0  0  0
 14 15  1  0  0  0  0
 14 16  1  0  0  0  0
 14 17  1  0  0  0  0
 17 18  1  0  0  0  0
 18 19  1  0  0  0  0
 18 20  1  0  0  0  0
 18 21  1  0  0  0  0
 22 23  2  0  0  0  0
 22 24  1  0  0  0  0
 24 25  1  0  0  0  0
 24 26  1  0  0  0  0
 26 27  1  0  0  0  0
 26 28  1  0  0  0  0
 26 29  1  0  0  0  0
M  END
$$$$

  -OEChem-04042216023D

 29 28  0     1  0  0  0  0  0999 V2000
   -2.3200   -4.4462    0.3705 H   0  0  0  0  0  0  0  0  0  0  0  0
   -2.4116   -3.3989    0.0687 C   0  0  0  0  0  0  0  0  0  0  0  0
   -3.1792   -2.9226    0.6831 H   0  0  0  0  0  0  0  0  0  0  0  0
   -2.7158   -3.3610   -0.9800 H   0  0  0  0  0  0  0  0  0  0  0  0
   -1.0845   -2.6868    0.2495 C   0  0  0  0  0  0  0  0  0  0  0  0
   -0.1111   -3.3077    0.6353 O   0  0  0  0  0  0  0  0  0  0  0  0
   -0.9889   -1.3378   -0.0292 N   0  0  0  0  0  0  0  0  0  0  0  0
   -1.8302   -0.8723   -0.3515 H   0  0  0  0  0  0  0  0  0  0  0  0
    0.2440   -0.5425    0.1102 C   0  0  1  0  0  0  0  0  0  0  0  0
    0.9819   -1.1686   -0.4066 H   0  0  0  0  0  0  0  0  0  0  0  0
    0.2103    0.7102   -0.8016 C   0  0  0  0  0  0  0  0  0  0  0  0
    1.2529    0.9089   -1.0742 H   0  0  0  0  0  0  0  0  0  0  0  0
   -0.3005    0.4342   -1.7297 H   0  0  0  0  0  0  0  0  0  0  0  0
   -0.3693    2.0674   -0.3330 C   0  0  0  0  0  0  0  0  0  0  0  0
    0.4340    2.8080   -0.4087 H   0  0  0  0  0  0  0  0  0  0  0  0
   -1.1476    2.3762   -1.0378 H   0  0  0  0  0  0  0  0  0  0  0  0
   -1.0507    2.2002    1.3667 S   0  0  0  0  0  0  0  0  0  0  0  0
   -2.7979    1.6844    1.1391 C   0  0  0  0  0  0  0  0  0  0  0  0
   -2.8501    0.6590    0.7650 H   0  0  0  0  0  0  0  0  0  0  0  0
   -3.3300    1.7359    2.0939 H   0  0  0  0  0  0  0  0  0  0  0  0
   -3.2977    2.3465    0.4258 H   0  0  0  0  0  0  0  0  0  0  0  0
    0.9028   -0.4508    1.5117 C   0  0  0  0  0  0  0  0  0  0  0  0
    2.1250   -0.4096    1.5845 O   0  0  0  0  0  0  0  0  0  0  0  0
    0.1702   -0.2224    2.6618 N   0  0  0  0  0  0  0  0  0  0  0  0
   -0.8137   -0.0134    2.5296 H   0  0  0  0  0  0  0  0  0  0  0  0
    0.7818    0.0834    3.9487 C   0  0  0  0  0  0  0  0  0  0  0  0
    1.3229    1.0340    3.8984 H   0  0  0  0  0  0  0  0  0  0  0  0
    0.0130    0.1607    4.7234 H   0  0  0  0  0  0  0  0  0  0  0  0
    1.4827   -0.7072    4.2372 H   0  0  0  0  0  0  0  0  0  0  0  0
  1  2  1  0  0  0  0
  2  3  1  0  0  0  0
  2  4  1  0  0  0  0
  2  5  1  0  0  0  0
  5  6  2  0  0  0  0
  5  7  1  0  0  0  0
  7  8  1  0  0  0  0
  7  9  1  0  0  0  0
  9 10  1  0  0  0  0
  9 11  1  0  0  0  0
  9 22  1  0  0  0  0
 11 12  1  0  0  0  0
 11 13  1  0  0  0  0
 11 14  1  0  0  0  0
 14 15  1  0  0  0  0
 14 16  1  0  0  0  0
 14 17  1  0  0  0  0
 17 18  1  0  0  0  0
 18 19  1  0  0  0  0
 18 20  1  0  0  0  0
 18 21  1  0  0  0  0
 22 23  2  0  0  0  0
 22 24  1  0  0  0  0
 24 25  1  0  0  0  0
 24 26  1  0  0  0  0
 26 27  1  0  0  0  0
 26 28  1  0  0  0  0
 26 29  1  0  0  0  0
M  END
$$$$

  -OEChem-04042216023D

 29 28  0     1  0  0  0  0  0999 V2000
   -1.4296   -4.9374    0.4296 H   0  0  0  0  0  0  0  0  0  0  0  0
   -1.8059   -3.9128    0.3594 C   0  0  0  0  0  0  0  0  0  0  0  0
   -2.3305   -3.6666    1.2855 H   0  0  0  0  0  0  0  0  0  0  0  0
   -2.5064   -3.8526   -0.4768 H   0  0  0  0  0  0  0  0  0  0  0  0
   -0.6557   -2.9482    0.1409 C   0  0  0  0  0  0  0  0  0  0  0  0
    0.4848   -3.3701    0.0682 O   0  0  0  0  0  0  0  0  0  0  0  0
   -0.9080   -1.5939    0.0523 N   0  0  0  0  0  0  0  0  0  0  0  0
   -1.8636   -1.2919    0.2116 H   0  0  0  0  0  0  0  0  0  0  0  0
    0.1330   -0.5587   -0.0769 C   0  0  1  0  0  0  0  0  0  0  0  0
    0.7638   -0.9700   -0.8742 H   0  0  0  0  0  0  0  0  0  0  0  0
   -0.4294    0.7110   -0.7685 C   0  0  0  0  0  0  0  0  0  0  0  0
    0.4297    1.1525   -1.2856 H   0  0  0  0  0  0  0  0  0  0  0  0
   -1.1283    0.3952   -1.5497 H   0  0  0  0  0  0  0  0  0  0  0  0
   -1.0786    1.8832    0.0040 C   0  0  0  0  0  0  0  0  0  0  0  0
   -0.7270    2.8186   -0.4437 H   0  0  0  0  0  0  0  0  0  0  0  0
   -2.1585    1.8334   -0.1662 H   0  0  0  0  0  0  0  0  0  0  0  0
   -0.8322    1.9908    1.8163 S   0  0  0  0  0  0  0  0  0  0  0  0
   -1.6181    3.6036    2.2035 C   0  0  0  0  0  0  0  0  0  0  0  0
   -2.6725    3.5926    1.9130 H   0  0  0  0  0  0  0  0  0  0  0  0
   -1.5518    3.8041    3.2770 H   0  0  0  0  0  0  0  0  0  0  0  0
   -1.1118    4.4109    1.6659 H   0  0  0  0  0  0  0  0  0  0  0  0
    1.1992   -0.4291    1.0474 C   0  0  0  0  0  0  0  0  0  0  0  0
    2.3098   -0.0066    0.7615 O   0  0  0  0  0  0  0  0  0  0  0  0
    0.9814   -0.4479    2.4087 N   0  0  0  0  0  0  0  0  0  0  0  0
    1.8195   -0.2559    2.9500 H   0  0  0  0  0  0  0  0  0  0  0  0
   -0.1335   -1.1113    3.0671 C   0  0  0  0  0  0  0  0  0  0  0  0
   -0.1273   -0.8761    4.1357 H   0  0  0  0  0  0  0  0  0  0  0  0
   -1.0901   -0.7786    2.6543 H   0  0  0  0  0  0  0  0  0  0  0  0
   -0.0528   -2.1967    2.9507 H   0  0  0  0  0  0  0  0  0  0  0  0
  1  2  1  0  0  0  0
  2  3  1  0  0  0  0
  2  4  1  0  0  0  0
  2  5  1  0  0  0  0
  5  6  2  0  0  0  0
  5  7  1  0  0  0  0
  7  8  1  0  0  0  0
  7  9  1  0  0  0  0
  9 10  1  0  0  0  0
  9 11  1  0  0  0  0
  9 22  1  0  0  0  0
 11 12  1  0  0  0  0
 11 13  1  0  0  0  0
 11 14  1  0  0  0  0
 14 15  1  0  0  0  0
 14 16  1  0  0  0  0
 14 17  1  0  0  0  0
 17 18  1  0  0  0  0
 18 19  1  0  0  0  0
 18 20  1  0  0  0  0
 18 21  1  0  0  0  0
 22 23  2  0  0  0  0
 22 24  1  0  0  0  0
 24 25  1  0  0  0  0
 24 26  1  0  0  0  0
 26 27  1  0  0  0  0
 26 28  1  0  0  0  0
 26 29  1  0  0  0  0
M  END
$$$$

  -OEChem-04042216023D

 29 28  0     1  0  0  0  0  0999 V2000
   -1.4498   -4.9804   -0.2634 H   0  0  0  0  0  0  0  0  0  0  0  0
   -1.8070   -3.9485   -0.2006 C   0  0  0  0  0  0  0  0  0  0  0  0
   -2.4099   -3.8395    0.7041 H   0  0  0  0  0  0  0  0  0  0  0  0
   -2.4287   -3.7392   -1.0743 H   0  0  0  0  0  0  0  0  0  0  0  0
   -0.6303   -2.9920   -0.1581 C   0  0  0  0  0  0  0  0  0  0  0  0
    0.5037   -3.4301   -0.0931 O   0  0  0  0  0  0  0  0  0  0  0  0
   -0.8551   -1.6297   -0.1981 N   0  0  0  0  0  0  0  0  0  0  0  0
   -1.8230   -1.3255   -0.2020 H   0  0  0  0  0  0  0  0  0  0  0  0
    0.1987   -0.6097   -0.0465 C   0  0  1  0  0  0  0  0  0  0  0  0
    0.9755   -0.9415   -0.7464 H   0  0  0  0  0  0  0  0  0  0  0  0
   -0.2685    0.7252   -0.6861 C   0  0  0  0  0  0  0  0  0  0  0  0
    0.6563    1.2165   -1.0076 H   0  0  0  0  0  0  0  0  0  0  0  0
   -0.8292    0.4966   -1.5983 H   0  0  0  0  0  0  0  0  0  0  0  0
   -1.0439    1.8131    0.0922 C   0  0  0  0  0  0  0  0  0  0  0  0
   -0.8459    2.7772   -0.3878 H   0  0  0  0  0  0  0  0  0  0  0  0
   -2.1114    1.6066   -0.0312 H   0  0  0  0  0  0  0  0  0  0  0  0
   -0.7473    1.9955    1.8916 S   0  0  0  0  0  0  0  0  0  0  0  0
   -1.7598    3.4749    2.2860 C   0  0  0  0  0  0  0  0  0  0  0  0
   -1.6864    3.7052    3.3531 H   0  0  0  0  0  0  0  0  0  0  0  0
   -2.8100    3.2957    2.0375 H   0  0  0  0  0  0  0  0  0  0  0  0
   -1.4044    4.3395    1.7171 H   0  0  0  0  0  0  0  0  0  0  0  0
    0.9841   -0.6322    1.2894 C   0  0  0  0  0  0  0  0  0  0  0  0
    2.1831   -0.3822    1.2835 O   0  0  0  0  0  0  0  0  0  0  0  0
    0.3400   -0.7741    2.5062 N   0  0  0  0  0  0  0  0  0  0  0  0
   -0.6733   -0.7656    2.4846 H   0  0  0  0  0  0  0  0  0  0  0  0
    1.0168   -0.6105    3.7863 C   0  0  0  0  0  0  0  0  0  0  0  0
    1.4094    0.4071    3.8837 H   0  0  0  0  0  0  0  0  0  0  0  0
    0.3198   -0.7944    4.6090 H   0  0  0  0  0  0  0  0  0  0  0  0
    1.8473   -1.3190    3.8729 H   0  0  0  0  0  0  0  0  0  0  0  0
  1  2  1  0  0  0  0
  2  3  1  0  0  0  0
  2  4  1  0  0  0  0
  2  5  1  0  0  0  0
  5  6  2  0  0  0  0
  5  7  1  0  0  0  0
  7  8  1  0  0  0  0
  7  9  1  0  0  0  0
  9 10  1  0  0  0  0
  9 11  1  0  0  0  0
  9 22  1  0  0  0  0
 11 12  1  0  0  0  0
 11 13  1  0  0  0  0
 11 14  1  0  0  0  0
 14 15  1  0  0  0  0
 14 16  1  0  0  0  0
 14 17  1  0  0  0  0
 17 18  1  0  0  0  0
 18 19  1  0  0  0  0
 18 20  1  0  0  0  0
 18 21  1  0  0  0  0
 22 23  2  0  0  0  0
 22 24  1  0  0  0  0
 24 25  1  0  0  0  0
 24 26  1  0  0  0  0
 26 27  1  0  0  0  0
 26 28  1  0  0  0  0
 26 29  1  0  0  0  0
M  END
$$$$

  -OEChem-04042216023D

 29 28  0     1  0  0  0  0  0999 V2000
   -2.6974   -4.4392   -0.2452 H   0  0  0  0  0  0  0  0  0  0  0  0
   -2.6944   -3.3670   -0.4616 C   0  0  0  0  0  0  0  0  0  0  0  0
   -3.5304   -2.9002    0.0644 H   0  0  0  0  0  0  0  0  0  0  0  0
   -2.8229   -3.2262   -1.5375 H   0  0  0  0  0  0  0  0  0  0  0  0
   -1.3850   -2.7481   -0.0098 C   0  0  0  0  0  0  0  0  0  0  0  0
   -0.5312   -3.4453    0.5067 O   0  0  0  0  0  0  0  0  0  0  0  0
   -1.1650   -1.3977   -0.1994 N   0  0  0  0  0  0  0  0  0  0  0  0
   -1.9197   -0.8634   -0.6174 H   0  0  0  0  0  0  0  0  0  0  0  0
    0.0454   -0.6809    0.2447 C   0  0  1  0  0  0  0  0  0  0  0  0
    0.8753   -1.2814   -0.1471 H   0  0  0  0  0  0  0  0  0  0  0  0
    0.1604    0.6506   -0.5462 C   0  0  0  0  0  0  0  0  0  0  0  0
    1.2332    0.8597   -0.6116 H   0  0  0  0  0  0  0  0  0  0  0  0
   -0.1832    0.4770   -1.5711 H   0  0  0  0  0  0  0  0  0  0  0  0
   -0.4845    1.9606   -0.0416 C   0  0  0  0  0  0  0  0  0  0  0  0
   -0.1018    2.7873   -0.6487 H   0  0  0  0  0  0  0  0  0  0  0  0
   -1.5601    1.8946   -0.2311 H   0  0  0  0  0  0  0  0  0  0  0  0
   -0.2807    2.4093    1.7270 S   0  0  0  0  0  0  0  0  0  0  0  0
    1.5337    2.6621    1.8721 C   0  0  0  0  0  0  0  0  0  0  0  0
    1.8576    3.4758    1.2169 H   0  0  0  0  0  0  0  0  0  0  0  0
    2.0744    1.7529    1.5952 H   0  0  0  0  0  0  0  0  0  0  0  0
    1.7935    2.9174    2.9036 H   0  0  0  0  0  0  0  0  0  0  0  0
    0.3141   -0.7184    1.7693 C   0  0  0  0  0  0  0  0  0  0  0  0
    1.4680   -0.7937    2.1742 O   0  0  0  0  0  0  0  0  0  0  0  0
   -0.7026   -0.5018    2.6828 N   0  0  0  0  0  0  0  0  0  0  0  0
   -1.6213   -0.2942    2.3083 H   0  0  0  0  0  0  0  0  0  0  0  0
   -0.4753   -0.3740    4.1165 C   0  0  0  0  0  0  0  0  0  0  0  0
    0.1683    0.4867    4.3270 H   0  0  0  0  0  0  0  0  0  0  0  0
   -1.4260   -0.2323    4.6389 H   0  0  0  0  0  0  0  0  0  0  0  0
    0.0034   -1.2772    4.5095 H   0  0  0  0  0  0  0  0  0  0  0  0
  1  2  1  0  0  0  0
  2  3  1  0  0  0  0
  2  4  1  0  0  0  0
  2  5  1  0  0  0  0
  5  6  2  0  0  0  0
  5  7  1  0  0  0  0
  7  8  1  0  0  0  0
  7  9  1  0  0  0  0
  9 10  1  0  0  0  0
  9 11  1  0  0  0  0
  9 22  1  0  0  0  0
 11 12  1  0  0  0  0
 11 13  1  0  0  0  0
 11 14  1  0  0  0  0
 14 15  1  0  0  0  0
 14 16  1  0  0  0  0
 14 17  1  0  0  0  0
 17 18  1  0  0  0  0
 18 19  1  0  0  0  0
 18 20  1  0  0  0  0
 18 21  1  0  0  0  0
 22 23  2  0  0  0  0
 22 24  1  0  0  0  0
 24 25  1  0  0  0  0
 24 26  1  0  0  0  0
 26 27  1  0  0  0  0
 26 28  1  0  0  0  0
 26 29  1  0  0  0  0
M  END
$$$$

  -OEChem-04042216023D

 29 28  0     1  0  0  0  0  0999 V2000
   -3.3627   -3.9322   -0.1668 H   0  0  0  0  0  0  0  0  0  0  0  0
   -3.1971   -2.8556   -0.2669 C   0  0  0  0  0  0  0  0  0  0  0  0
   -3.7756   -2.3378    0.5018 H   0  0  0  0  0  0  0  0  0  0  0  0
   -3.5445   -2.5374   -1.2528 H   0  0  0  0  0  0  0  0  0  0  0  0
   -1.7215   -2.5386   -0.1100 C   0  0  0  0  0  0  0  0  0  0  0  0
   -0.9269   -3.4382    0.0905 O   0  0  0  0  0  0  0  0  0  0  0  0
   -1.2900   -1.2306   -0.2132 N   0  0  0  0  0  0  0  0  0  0  0  0
   -1.9952   -0.5311   -0.4193 H   0  0  0  0  0  0  0  0  0  0  0  0
    0.1206   -0.8049   -0.1229 C   0  0  1  0  0  0  0  0  0  0  0  0
    0.6579   -1.4215   -0.8532 H   0  0  0  0  0  0  0  0  0  0  0  0
    0.2214    0.6417   -0.6761 C   0  0  0  0  0  0  0  0  0  0  0  0
    1.2257    0.7397   -1.1021 H   0  0  0  0  0  0  0  0  0  0  0  0
   -0.4825    0.7497   -1.5073 H   0  0  0  0  0  0  0  0  0  0  0  0
    0.0434    1.8451    0.2697 C   0  0  0  0  0  0  0  0  0  0  0  0
    0.1204    2.7627   -0.3224 H   0  0  0  0  0  0  0  0  0  0  0  0
   -0.9643    1.8101    0.6941 H   0  0  0  0  0  0  0  0  0  0  0  0
    1.2504    1.9530    1.6494 S   0  0  0  0  0  0  0  0  0  0  0  0
    0.7206    3.4986    2.4840 C   0  0  0  0  0  0  0  0  0  0  0  0
    0.7856    4.3442    1.7930 H   0  0  0  0  0  0  0  0  0  0  0  0
    1.3667    3.6993    3.3439 H   0  0  0  0  0  0  0  0  0  0  0  0
   -0.3112    3.4066    2.8352 H   0  0  0  0  0  0  0  0  0  0  0  0
    0.8201   -1.1498    1.2145 C   0  0  0  0  0  0  0  0  0  0  0  0
    1.9911   -1.5078    1.2113 O   0  0  0  0  0  0  0  0  0  0  0  0
    0.1863   -0.9275    2.4250 N   0  0  0  0  0  0  0  0  0  0  0  0
   -0.7711   -0.5988    2.3934 H   0  0  0  0  0  0  0  0  0  0  0  0
    0.8289   -1.1410    3.7152 C   0  0  0  0  0  0  0  0  0  0  0  0
    1.7048   -0.4917    3.8179 H   0  0  0  0  0  0  0  0  0  0  0  0
    0.1324   -0.9141    4.5276 H   0  0  0  0  0  0  0  0  0  0  0  0
    1.1499   -2.1832    3.8146 H   0  0  0  0  0  0  0  0  0  0  0  0
  1  2  1  0  0  0  0
  2  3  1  0  0  0  0
  2  4  1  0  0  0  0
  2  5  1  0  0  0  0
  5  6  2  0  0  0  0
  5  7  1  0  0  0  0
  7  8  1  0  0  0  0
  7  9  1  0  0  0  0
  9 10  1  0  0  0  0
  9 11  1  0  0  0  0
  9 22  1  0  0  0  0
 11 12  1  0  0  0  0
 11 13  1  0  0  0  0
 11 14  1  0  0  0  0
 14 15  1  0  0  0  0
 14 16  1  0  0  0  0
 14 17  1  0  0  0  0
 17 18  1  0  0  0  0
 18 19  1  0  0  0  0
 18 20  1  0  0  0  0
 18 21  1  0  0  0  0
 22 23  2  0  0  0  0
 22 24  1  0  0  0  0
 24 25  1  0  0  0  0
 24 26  1  0  0  0  0
 26 27  1  0  0  0  0
 26 28  1  0  0  0  0
 26 29  1  0  0  0  0
M  END
$$$$

  -OEChem-04042216023D

 29 28  0     1  0  0  0  0  0999 V2000
   -3.2957   -3.9550    0.2993 H   0  0  0  0  0  0  0  0  0  0  0  0
   -3.0939   -2.9368   -0.0458 C   0  0  0  0  0  0  0  0  0  0  0  0
   -3.7389   -2.2463    0.5027 H   0  0  0  0  0  0  0  0  0  0  0  0
   -3.3257   -2.8753   -1.1117 H   0  0  0  0  0  0  0  0  0  0  0  0
   -1.6362   -2.5870    0.1895 C   0  0  0  0  0  0  0  0  0  0  0  0
   -0.8871   -3.4149    0.6731 O   0  0  0  0  0  0  0  0  0  0  0  0
   -1.1706   -1.3307   -0.1475 N   0  0  0  0  0  0  0  0  0  0  0  0
   -1.8274   -0.7123   -0.6120 H   0  0  0  0  0  0  0  0  0  0  0  0
    0.2444   -0.9158   -0.0626 C   0  0  1  0  0  0  0  0  0  0  0  0
    0.8118   -1.6487   -0.6483 H   0  0  0  0  0  0  0  0  0  0  0  0
    0.3943    0.4332   -0.8115 C   0  0  0  0  0  0  0  0  0  0  0  0
    1.4073    0.4707   -1.2267 H   0  0  0  0  0  0  0  0  0  0  0  0
   -0.2942    0.4450   -1.6622 H   0  0  0  0  0  0  0  0  0  0  0  0
    0.1918    1.7212    0.0048 C   0  0  0  0  0  0  0  0  0  0  0  0
    0.0569    2.5600   -0.6856 H   0  0  0  0  0  0  0  0  0  0  0  0
   -0.7194    1.6346    0.6041 H   0  0  0  0  0  0  0  0  0  0  0  0
    1.6164    2.1085    1.1000 S   0  0  0  0  0  0  0  0  0  0  0  0
    0.9809    3.5445    2.0489 C   0  0  0  0  0  0  0  0  0  0  0  0
    0.7123    4.3595    1.3705 H   0  0  0  0  0  0  0  0  0  0  0  0
    1.7478    3.9037    2.7419 H   0  0  0  0  0  0  0  0  0  0  0  0
    0.0968    3.2561    2.6251 H   0  0  0  0  0  0  0  0  0  0  0  0
    0.8624   -0.9975    1.3542 C   0  0  0  0  0  0  0  0  0  0  0  0
    2.0235   -1.3604    1.4915 O   0  0  0  0  0  0  0  0  0  0  0  0
    0.1651   -0.5265    2.4535 N   0  0  0  0  0  0  0  0  0  0  0  0
   -0.8162   -0.3157    2.3160 H   0  0  0  0  0  0  0  0  0  0  0  0
    0.7072   -0.5477    3.8053 C   0  0  0  0  0  0  0  0  0  0  0  0
    1.6325    0.0362    3.8543 H   0  0  0  0  0  0  0  0  0  0  0  0
   -0.0107   -0.1158    4.5088 H   0  0  0  0  0  0  0  0  0  0  0  0
    0.9222   -1.5759    4.1148 H   0  0  0  0  0  0  0  0  0  0  0  0
  1  2  1  0  0  0  0
  2  3  1  0  0  0  0
  2  4  1  0  0  0  0
  2  5  1  0  0  0  0
  5  6  2  0  0  0  0
  5  7  1  0  0  0  0
  7  8  1  0  0  0  0
  7  9  1  0  0  0  0
  9 10  1  0  0  0  0
  9 11  1  0  0  0  0
  9 22  1  0  0  0  0
 11 12  1  0  0  0  0
 11 13  1  0  0  0  0
 11 14  1  0  0  0  0
 14 15  1  0  0  0  0
 14 16  1  0  0  0  0
 14 17  1  0  0  0  0
 17 18  1  0  0  0  0
 18 19  1  0  0  0  0
 18 20  1  0  0  0  0
 18 21  1  0  0  0  0
 22 23  2  0  0  0  0
 22 24  1  0  0  0  0
 24 25  1  0  0  0  0
 24 26  1  0  0  0  0
 26 27  1  0  0  0  0
 26 28  1  0  0  0  0
 26 29  1  0  0  0  0
M  END
$$$$

  -OEChem-04042216023D

 29 28  0     1  0  0  0  0  0999 V2000
   -2.8444   -4.1891    0.1768 H   0  0  0  0  0  0  0  0  0  0  0  0
   -2.7206   -3.1745   -0.2124 C   0  0  0  0  0  0  0  0  0  0  0  0
   -3.5667   -2.5667    0.1167 H   0  0  0  0  0  0  0  0  0  0  0  0
   -2.7113   -3.2164   -1.3041 H   0  0  0  0  0  0  0  0  0  0  0  0
   -1.4217   -2.5771    0.2951 C   0  0  0  0  0  0  0  0  0  0  0  0
   -0.6915   -3.2341    1.0137 O   0  0  0  0  0  0  0  0  0  0  0  0
   -1.0754   -1.2873   -0.0572 N   0  0  0  0  0  0  0  0  0  0  0  0
   -1.6951   -0.8057   -0.7008 H   0  0  0  0  0  0  0  0  0  0  0  0
    0.1951   -0.6383    0.3195 C   0  0  1  0  0  0  0  0  0  0  0  0
    0.9819   -1.3151   -0.0335 H   0  0  0  0  0  0  0  0  0  0  0  0
    0.3731    0.6625   -0.4935 C   0  0  0  0  0  0  0  0  0  0  0  0
    1.4361    0.8120   -0.6898 H   0  0  0  0  0  0  0  0  0  0  0  0
   -0.0978    0.5262   -1.4720 H   0  0  0  0  0  0  0  0  0  0  0  0
   -0.2198    1.9258    0.1594 C   0  0  0  0  0  0  0  0  0  0  0  0
   -0.4966    2.6092   -0.6496 H   0  0  0  0  0  0  0  0  0  0  0  0
   -1.1417    1.6807    0.6947 H   0  0  0  0  0  0  0  0  0  0  0  0
    0.9108    2.8686    1.2748 S   0  0  0  0  0  0  0  0  0  0  0  0
    2.6440    2.6182    0.7149 C   0  0  0  0  0  0  0  0  0  0  0  0
    2.7450    2.8676   -0.3453 H   0  0  0  0  0  0  0  0  0  0  0  0
    3.3168    3.2609    1.2902 H   0  0  0  0  0  0  0  0  0  0  0  0
    2.9486    1.5785    0.8703 H   0  0  0  0  0  0  0  0  0  0  0  0
    0.4747   -0.4975    1.8352 C   0  0  0  0  0  0  0  0  0  0  0  0
    1.6279   -0.5784    2.2393 O   0  0  0  0  0  0  0  0  0  0  0  0
   -0.5129   -0.0640    2.7018 N   0  0  0  0  0  0  0  0  0  0  0  0
   -1.4627   -0.0489    2.3483 H   0  0  0  0  0  0  0  0  0  0  0  0
   -0.2747    0.1935    4.1158 C   0  0  0  0  0  0  0  0  0  0  0  0
    0.4588    0.9974    4.2386 H   0  0  0  0  0  0  0  0  0  0  0  0
   -1.2037    0.4962    4.6077 H   0  0  0  0  0  0  0  0  0  0  0  0
    0.1023   -0.7077    4.6110 H   0  0  0  0  0  0  0  0  0  0  0  0
  1  2  1  0  0  0  0
  2  3  1  0  0  0  0
  2  4  1  0  0  0  0
  2  5  1  0  0  0  0
  5  6  2  0  0  0  0
  5  7  1  0  0  0  0
  7  8  1  0  0  0  0
  7  9  1  0  0  0  0
  9 10  1  0  0  0  0
  9 11  1  0  0  0  0
  9 22  1  0  0  0  0
 11 12  1  0  0  0  0
 11 13  1  0  0  0  0
 11 14  1  0  0  0  0
 14 15  1  0  0  0  0
 14 16  1  0  0  0  0
 14 17  1  0  0  0  0
 17 18  1  0  0  0  0
 18 19  1  0  0  0  0
 18 20  1  0  0  0  0
 18 21  1  0  0  0  0
 22 23  2  0  0  0  0
 22 24  1  0  0  0  0
 24 25  1  0  0  0  0
 24 26  1  0  0  0  0
 26 27  1  0  0  0  0
 26 28  1  0  0  0  0
 26 29  1  0  0  0  0
M  END
$$$$

  -OEChem-04042216023D

 29 28  0     1  0  0  0  0  0999 V2000
   -2.7435   -4.0723    0.5087 H   0  0  0  0  0  0  0  0  0  0  0  0
   -2.6860   -3.0701    0.0742 C   0  0  0  0  0  0  0  0  0  0  0  0
   -3.4885   -2.4588    0.4937 H   0  0  0  0  0  0  0  0  0  0  0  0
   -2.8221   -3.1488   -1.0072 H   0  0  0  0  0  0  0  0  0  0  0  0
   -1.3394   -2.4444    0.3849 C   0  0  0  0  0  0  0  0  0  0  0  0
   -0.5308   -3.0525    1.0610 O   0  0  0  0  0  0  0  0  0  0  0  0
   -1.0419   -1.1841   -0.0965 N   0  0  0  0  0  0  0  0  0  0  0  0
   -1.7288   -0.7591   -0.7115 H   0  0  0  0  0  0  0  0  0  0  0  0
    0.2694   -0.5222    0.0543 C   0  0  1  0  0  0  0  0  0  0  0  0
    1.0127   -1.2134   -0.3599 H   0  0  0  0  0  0  0  0  0  0  0  0
    0.2693    0.7168   -0.8787 C   0  0  0  0  0  0  0  0  0  0  0  0
    1.2975    0.8764   -1.2195 H   0  0  0  0  0  0  0  0  0  0  0  0
   -0.3152    0.4848   -1.7747 H   0  0  0  0  0  0  0  0  0  0  0  0
   -0.2377    2.0500   -0.2933 C   0  0  0  0  0  0  0  0  0  0  0  0
   -0.9039    2.5145   -1.0273 H   0  0  0  0  0  0  0  0  0  0  0  0
   -0.8365    1.8705    0.6026 H   0  0  0  0  0  0  0  0  0  0  0  0
    1.0849    3.2791    0.0935 S   0  0  0  0  0  0  0  0  0  0  0  0
    2.3805    2.4957    1.1296 C   0  0  0  0  0  0  0  0  0  0  0  0
    2.8152    1.6335    0.6164 H   0  0  0  0  0  0  0  0  0  0  0  0
    3.1804    3.2140    1.3305 H   0  0  0  0  0  0  0  0  0  0  0  0
    1.9619    2.1743    2.0866 H   0  0  0  0  0  0  0  0  0  0  0  0
    0.7138   -0.3061    1.5206 C   0  0  0  0  0  0  0  0  0  0  0  0
    1.8823   -0.4878    1.8362 O   0  0  0  0  0  0  0  0  0  0  0  0
   -0.1726    0.1793    2.4661 N   0  0  0  0  0  0  0  0  0  0  0  0
   -1.1519    0.1693    2.2028 H   0  0  0  0  0  0  0  0  0  0  0  0
    0.1652    0.2808    3.8804 C   0  0  0  0  0  0  0  0  0  0  0  0
    1.0328    0.9333    4.0238 H   0  0  0  0  0  0  0  0  0  0  0  0
   -0.6757    0.7001    4.4408 H   0  0  0  0  0  0  0  0  0  0  0  0
    0.3971   -0.7085    4.2889 H   0  0  0  0  0  0  0  0  0  0  0  0
  1  2  1  0  0  0  0
  2  3  1  0  0  0  0
  2  4  1  0  0  0  0
  2  5  1  0  0  0  0
  5  6  2  0  0  0  0
  5  7  1  0  0  0  0
  7  8  1  0  0  0  0
  7  9  1  0  0  0  0
  9 10  1  0  0  0  0
  9 11  1  0  0  0  0
  9 22  1  0  0  0  0
 11 12  1  0  0  0  0
 11 13  1  0  0  0  0
 11 14  1  0  0  0  0
 14 15  1  0  0  0  0
 14 16  1  0  0  0  0
 14 17  1  0  0  0  0
 17 18  1  0  0  0  0
 18 19  1  0  0  0  0
 18 20  1  0  0  0  0
 18 21  1  0  0  0  0
 22 23  2  0  0  0  0
 22 24  1  0  0  0  0
 24 25  1  0  0  0  0
 24 26  1  0  0  0  0
 26 27  1  0  0  0  0
 26 28  1  0  0  0  0
 26 29  1  0  0  0  0
M  END
$$$$

  -OEChem-04042216023D

 29 28  0     1  0  0  0  0  0999 V2000
   -2.7189   -4.0858    0.5223 H   0  0  0  0  0  0  0  0  0  0  0  0
   -2.6813   -3.0851    0.0824 C   0  0  0  0  0  0  0  0  0  0  0  0
   -3.4920   -2.4858    0.5030 H   0  0  0  0  0  0  0  0  0  0  0  0
   -2.8221   -3.1716   -0.9976 H   0  0  0  0  0  0  0  0  0  0  0  0
   -1.3439   -2.4347    0.3821 C   0  0  0  0  0  0  0  0  0  0  0  0
   -0.5231   -3.0198    1.0641 O   0  0  0  0  0  0  0  0  0  0  0  0
   -1.0697   -1.1720   -0.1057 N   0  0  0  0  0  0  0  0  0  0  0  0
   -1.7622   -0.7649   -0.7268 H   0  0  0  0  0  0  0  0  0  0  0  0
    0.2414   -0.5052    0.0120 C   0  0  1  0  0  0  0  0  0  0  0  0
    0.9664   -1.2100   -0.4123 H   0  0  0  0  0  0  0  0  0  0  0  0
    0.2666    0.7229   -0.9295 C   0  0  0  0  0  0  0  0  0  0  0  0
    1.3025    0.8548   -1.2582 H   0  0  0  0  0  0  0  0  0  0  0  0
   -0.3129    0.5014   -1.8312 H   0  0  0  0  0  0  0  0  0  0  0  0
   -0.2192    2.0617   -0.3396 C   0  0  0  0  0  0  0  0  0  0  0  0
   -1.0684    2.4159   -0.9325 H   0  0  0  0  0  0  0  0  0  0  0  0
   -0.5775    1.9506    0.6845 H   0  0  0  0  0  0  0  0  0  0  0  0
    1.0900    3.3547   -0.3852 S   0  0  0  0  0  0  0  0  0  0  0  0
    2.3712    2.7471    0.7831 C   0  0  0  0  0  0  0  0  0  0  0  0
    2.8322    1.8303    0.4048 H   0  0  0  0  0  0  0  0  0  0  0  0
    3.1543    3.5007    0.9060 H   0  0  0  0  0  0  0  0  0  0  0  0
    1.9287    2.5417    1.7621 H   0  0  0  0  0  0  0  0  0  0  0  0
    0.7514   -0.2765    1.4564 C   0  0  0  0  0  0  0  0  0  0  0  0
    1.9518   -0.3344    1.6887 O   0  0  0  0  0  0  0  0  0  0  0  0
   -0.0940    0.2097    2.4382 N   0  0  0  0  0  0  0  0  0  0  0  0
   -1.0870    0.1190    2.2513 H   0  0  0  0  0  0  0  0  0  0  0  0
    0.3383    0.4217    3.8139 C   0  0  0  0  0  0  0  0  0  0  0  0
    1.1570    1.1479    3.8523 H   0  0  0  0  0  0  0  0  0  0  0  0
   -0.4905    0.8066    4.4154 H   0  0  0  0  0  0  0  0  0  0  0  0
    0.6813   -0.5199    4.2556 H   0  0  0  0  0  0  0  0  0  0  0  0
  1  2  1  0  0  0  0
  2  3  1  0  0  0  0
  2  4  1  0  0  0  0
  2  5  1  0  0  0  0
  5  6  2  0  0  0  0
  5  7  1  0  0  0  0
  7  8  1  0  0  0  0
  7  9  1  0  0  0  0
  9 10  1  0  0  0  0
  9 11  1  0  0  0  0
  9 22  1  0  0  0  0
 11 12  1  0  0  0  0
 11 13  1  0  0  0  0
 11 14  1  0  0  0  0
 14 15  1  0  0  0  0
 14 16  1  0  0  0  0
 14 17  1  0  0  0  0
 17 18  1  0  0  0  0
 18 19  1  0  0  0  0
 18 20  1  0  0  0  0
 18 21  1  0  0  0  0
 22 23  2  0  0  0  0
 22 24  1  0  0  0  0
 24 25  1  0  0  0  0
 24 26  1  0  0  0  0
 26 27  1  0  0  0  0
 26 28  1  0  0  0  0
 26 29  1  0  0  0  0
M  END
$$$$

  -OEChem-04042216023D

 29 28  0     1  0  0  0  0  0999 V2000
   -2.7050   -4.1072    0.5189 H   0  0  0  0  0  0  0  0  0  0  0  0
   -2.6798   -3.1064    0.0778 C   0  0  0  0  0  0  0  0  0  0  0  0
   -3.4958   -2.5154    0.5003 H   0  0  0  0  0  0  0  0  0  0  0  0
   -2.8227   -3.1955   -1.0019 H   0  0  0  0  0  0  0  0  0  0  0  0
   -1.3493   -2.4403    0.3735 C   0  0  0  0  0  0  0  0  0  0  0  0
   -0.5185   -3.0154    1.0525 O   0  0  0  0  0  0  0  0  0  0  0  0
   -1.0920   -1.1734   -0.1121 N   0  0  0  0  0  0  0  0  0  0  0  0
   -1.7915   -0.7733   -0.7300 H   0  0  0  0  0  0  0  0  0  0  0  0
    0.2162   -0.4996   -0.0120 C   0  0  1  0  0  0  0  0  0  0  0  0
    0.9333   -1.2061   -0.4464 H   0  0  0  0  0  0  0  0  0  0  0  0
    0.2479    0.7296   -0.9484 C   0  0  0  0  0  0  0  0  0  0  0  0
    1.2900    0.8509   -1.2612 H   0  0  0  0  0  0  0  0  0  0  0  0
   -0.3224    0.5211   -1.8591 H   0  0  0  0  0  0  0  0  0  0  0  0
   -0.2274    2.0679   -0.3493 C   0  0  0  0  0  0  0  0  0  0  0  0
   -1.2274    2.2968   -0.7303 H   0  0  0  0  0  0  0  0  0  0  0  0
   -0.2983    2.0369    0.7377 H   0  0  0  0  0  0  0  0  0  0  0  0
    0.9248    3.4252   -0.8030 S   0  0  0  0  0  0  0  0  0  0  0  0
    2.3569    3.0755    0.2972 C   0  0  0  0  0  0  0  0  0  0  0  0
    2.7951    2.1004    0.0647 H   0  0  0  0  0  0  0  0  0  0  0  0
    3.1262    3.8419    0.1664 H   0  0  0  0  0  0  0  0  0  0  0  0
    2.0397    3.0725    1.3442 H   0  0  0  0  0  0  0  0  0  0  0  0
    0.7578   -0.2703    1.4209 C   0  0  0  0  0  0  0  0  0  0  0  0
    1.9680   -0.2282    1.5999 O   0  0  0  0  0  0  0  0  0  0  0  0
   -0.0724    0.2077    2.4201 N   0  0  0  0  0  0  0  0  0  0  0  0
   -1.0668    0.0657    2.2750 H   0  0  0  0  0  0  0  0  0  0  0  0
    0.4013    0.4996    3.7677 C   0  0  0  0  0  0  0  0  0  0  0  0
    1.1788    1.2705    3.7423 H   0  0  0  0  0  0  0  0  0  0  0  0
   -0.4231    0.8642    4.3880 H   0  0  0  0  0  0  0  0  0  0  0  0
    0.8140   -0.4024    4.2322 H   0  0  0  0  0  0  0  0  0  0  0  0
  1  2  1  0  0  0  0
  2  3  1  0  0  0  0
  2  4  1  0  0  0  0
  2  5  1  0  0  0  0
  5  6  2  0  0  0  0
  5  7  1  0  0  0  0
  7  8  1  0  0  0  0
  7  9  1  0  0  0  0
  9 10  1  0  0  0  0
  9 11  1  0  0  0  0
  9 22  1  0  0  0  0
 11 12  1  0  0  0  0
 11 13  1  0  0  0  0
 11 14  1  0  0  0  0
 14 15  1  0  0  0  0
 14 16  1  0  0  0  0
 14 17  1  0  0  0  0
 17 18  1  0  0  0  0
 18 19  1  0  0  0  0
 18 20  1  0  0  0  0
 18 21  1  0  0  0  0
 22 23  2  0  0  0  0
 22 24  1  0  0  0  0
 24 25  1  0  0  0  0
 24 26  1  0  0  0  0
 26 27  1  0  0  0  0
 26 28  1  0  0  0  0
 26 29  1  0  0  0  0
M  END
$$$$

  -OEChem-04042216023D

 29 28  0     1  0  0  0  0  0999 V2000
   -2.6998   -4.1120    0.5338 H   0  0  0  0  0  0  0  0  0  0  0  0
   -2.6749   -3.1140    0.0868 C   0  0  0  0  0  0  0  0  0  0  0  0
   -3.4962   -2.5234    0.4997 H   0  0  0  0  0  0  0  0  0  0  0  0
   -2.8102   -3.2106   -0.9932 H   0  0  0  0  0  0  0  0  0  0  0  0
   -1.3481   -2.4418    0.3856 C   0  0  0  0  0  0  0  0  0  0  0  0
   -0.5169   -3.0122    1.0681 O   0  0  0  0  0  0  0  0  0  0  0  0
   -1.0924   -1.1780   -0.1088 N   0  0  0  0  0  0  0  0  0  0  0  0
   -1.7909   -0.7864   -0.7334 H   0  0  0  0  0  0  0  0  0  0  0  0
    0.2160   -0.5029   -0.0187 C   0  0  1  0  0  0  0  0  0  0  0  0
    0.9353   -1.2035   -0.4592 H   0  0  0  0  0  0  0  0  0  0  0  0
    0.2238    0.7329   -0.9465 C   0  0  0  0  0  0  0  0  0  0  0  0
    1.2628    0.8667   -1.2627 H   0  0  0  0  0  0  0  0  0  0  0  0
   -0.3534    0.5311   -1.8541 H   0  0  0  0  0  0  0  0  0  0  0  0
   -0.2498    2.0596   -0.3257 C   0  0  0  0  0  0  0  0  0  0  0  0
   -1.3338    2.1534   -0.4420 H   0  0  0  0  0  0  0  0  0  0  0  0
   -0.0247    2.1181    0.7404 H   0  0  0  0  0  0  0  0  0  0  0  0
    0.5995    3.4727   -1.1358 S   0  0  0  0  0  0  0  0  0  0  0  0
    2.2478    3.4353   -0.3209 C   0  0  0  0  0  0  0  0  0  0  0  0
    2.7573    2.4882   -0.5209 H   0  0  0  0  0  0  0  0  0  0  0  0
    2.8706    4.2517   -0.6981 H   0  0  0  0  0  0  0  0  0  0  0  0
    2.1383    3.5496    0.7617 H   0  0  0  0  0  0  0  0  0  0  0  0
    0.7564   -0.2680    1.4127 C   0  0  0  0  0  0  0  0  0  0  0  0
    1.9662   -0.2182    1.5922 O   0  0  0  0  0  0  0  0  0  0  0  0
   -0.0794    0.2140    2.4053 N   0  0  0  0  0  0  0  0  0  0  0  0
   -1.0723    0.0662    2.2565 H   0  0  0  0  0  0  0  0  0  0  0  0
    0.3866    0.5073    3.7550 C   0  0  0  0  0  0  0  0  0  0  0  0
    1.1645    1.2779    3.7342 H   0  0  0  0  0  0  0  0  0  0  0  0
   -0.4414    0.8719    4.3703 H   0  0  0  0  0  0  0  0  0  0  0  0
    0.7965   -0.3945    4.2222 H   0  0  0  0  0  0  0  0  0  0  0  0
  1  2  1  0  0  0  0
  2  3  1  0  0  0  0
  2  4  1  0  0  0  0
  2  5  1  0  0  0  0
  5  6  2  0  0  0  0
  5  7  1  0  0  0  0
  7  8  1  0  0  0  0
  7  9  1  0  0  0  0
  9 10  1  0  0  0  0
  9 11  1  0  0  0  0
  9 22  1  0  0  0  0
 11 12  1  0  0  0  0
 11 13  1  0  0  0  0
 11 14  1  0  0  0  0
 14 15  1  0  0  0  0
 14 16  1  0  0  0  0
 14 17  1  0  0  0  0
 17 18  1  0  0  0  0
 18 19  1  0  0  0  0
 18 20  1  0  0  0  0
 18 21  1  0  0  0  0
 22 23  2  0  0  0  0
 22 24  1  0  0  0  0
 24 25  1  0  0  0  0
 24 26  1  0  0  0  0
 26 27  1  0  0  0  0
 26 28  1  0  0  0  0
 26 29  1  0  0  0  0
M  END
$$$$

  -OEChem-04042216023D

 29 28  0     1  0  0  0  0  0999 V2000
   -2.6857   -4.1164    0.5449 H   0  0  0  0  0  0  0  0  0  0  0  0
   -2.6625   -3.1205    0.0929 C   0  0  0  0  0  0  0  0  0  0  0  0
   -3.4871   -2.5305    0.5001 H   0  0  0  0  0  0  0  0  0  0  0  0
   -2.7939   -3.2228   -0.9871 H   0  0  0  0  0  0  0  0  0  0  0  0
   -1.3386   -2.4426    0.3926 C   0  0  0  0  0  0  0  0  0  0  0  0
   -0.5084   -3.0063    1.0817 O   0  0  0  0  0  0  0  0  0  0  0  0
   -1.0840   -1.1817   -0.1097 N   0  0  0  0  0  0  0  0  0  0  0  0
   -1.7796   -0.7976   -0.7422 H   0  0  0  0  0  0  0  0  0  0  0  0
    0.2230   -0.5031   -0.0216 C   0  0  1  0  0  0  0  0  0  0  0  0
    0.9486   -1.1936   -0.4671 H   0  0  0  0  0  0  0  0  0  0  0  0
    0.2074    0.7434   -0.9340 C   0  0  0  0  0  0  0  0  0  0  0  0
    1.2385    0.8994   -1.2658 H   0  0  0  0  0  0  0  0  0  0  0  0
   -0.3879    0.5494   -1.8319 H   0  0  0  0  0  0  0  0  0  0  0  0
   -0.2715    2.0460   -0.2741 C   0  0  0  0  0  0  0  0  0  0  0  0
   -1.3555    2.0117   -0.1303 H   0  0  0  0  0  0  0  0  0  0  0  0
    0.1953    2.1941    0.7033 H   0  0  0  0  0  0  0  0  0  0  0  0
    0.1807    3.4829   -1.3257 S   0  0  0  0  0  0  0  0  0  0  0  0
    1.9653    3.7065   -0.9445 C   0  0  0  0  0  0  0  0  0  0  0  0
    2.5388    2.8262   -1.2483 H   0  0  0  0  0  0  0  0  0  0  0  0
    2.3558    4.5770   -1.4801 H   0  0  0  0  0  0  0  0  0  0  0  0
    2.1071    3.8636    0.1289 H   0  0  0  0  0  0  0  0  0  0  0  0
    0.7539   -0.2604    1.4114 C   0  0  0  0  0  0  0  0  0  0  0  0
    1.9621   -0.2130    1.6005 O   0  0  0  0  0  0  0  0  0  0  0  0
   -0.0912    0.2253    2.3942 N   0  0  0  0  0  0  0  0  0  0  0  0
   -1.0825    0.0753    2.2374 H   0  0  0  0  0  0  0  0  0  0  0  0
    0.3634    0.5195    3.7477 C   0  0  0  0  0  0  0  0  0  0  0  0
    1.1437    1.2878    3.7324 H   0  0  0  0  0  0  0  0  0  0  0  0
   -0.4692    0.8880    4.3545 H   0  0  0  0  0  0  0  0  0  0  0  0
    0.7663   -0.3826    4.2205 H   0  0  0  0  0  0  0  0  0  0  0  0
  1  2  1  0  0  0  0
  2  3  1  0  0  0  0
  2  4  1  0  0  0  0
  2  5  1  0  0  0  0
  5  6  2  0  0  0  0
  5  7  1  0  0  0  0
  7  8  1  0  0  0  0
  7  9  1  0  0  0  0
  9 10  1  0  0  0  0
  9 11  1  0  0  0  0
  9 22  1  0  0  0  0
 11 12  1  0  0  0  0
 11 13  1  0  0  0  0
 11 14  1  0  0  0  0
 14 15  1  0  0  0  0
 14 16  1  0  0  0  0
 14 17  1  0  0  0  0
 17 18  1  0  0  0  0
 18 19  1  0  0  0  0
 18 20  1  0  0  0  0
 18 21  1  0  0  0  0
 22 23  2  0  0  0  0
 22 24  1  0  0  0  0
 24 25  1  0  0  0  0
 24 26  1  0  0  0  0
 26 27  1  0  0  0  0
 26 28  1  0  0  0  0
 26 29  1  0  0  0  0
M  END
$$$$

  -OEChem-04042216023D

 29 28  0     1  0  0  0  0  0999 V2000
   -2.6651   -4.1096    0.5540 H   0  0  0  0  0  0  0  0  0  0  0  0
   -2.6453   -3.1137    0.1022 C   0  0  0  0  0  0  0  0  0  0  0  0
   -3.4592   -2.5199    0.5248 H   0  0  0  0  0  0  0  0  0  0  0  0
   -2.7965   -3.2146   -0.9752 H   0  0  0  0  0  0  0  0  0  0  0  0
   -1.3138   -2.4414    0.3787 C   0  0  0  0  0  0  0  0  0  0  0  0
   -0.4697   -3.0130    1.0439 O   0  0  0  0  0  0  0  0  0  0  0  0
   -1.0682   -1.1763   -0.1177 N   0  0  0  0  0  0  0  0  0  0  0  0
   -1.7807   -0.7791   -0.7230 H   0  0  0  0  0  0  0  0  0  0  0  0
    0.2329   -0.4858   -0.0254 C   0  0  1  0  0  0  0  0  0  0  0  0
    0.9670   -1.1638   -0.4766 H   0  0  0  0  0  0  0  0  0  0  0  0
    0.1974    0.7755   -0.9227 C   0  0  0  0  0  0  0  0  0  0  0  0
    1.1389    0.8044   -1.4793 H   0  0  0  0  0  0  0  0  0  0  0  0
   -0.6059    0.6919   -1.6614 H   0  0  0  0  0  0  0  0  0  0  0  0
    0.0596    2.1092   -0.1751 C   0  0  0  0  0  0  0  0  0  0  0  0
   -0.8698    2.1154    0.4028 H   0  0  0  0  0  0  0  0  0  0  0  0
    0.8939    2.2560    0.5195 H   0  0  0  0  0  0  0  0  0  0  0  0
    0.0312    3.4990   -1.3767 S   0  0  0  0  0  0  0  0  0  0  0  0
    1.7969    3.6443   -1.8646 C   0  0  0  0  0  0  0  0  0  0  0  0
    2.1303    2.7387   -2.3790 H   0  0  0  0  0  0  0  0  0  0  0  0
    1.9296    4.4955   -2.5391 H   0  0  0  0  0  0  0  0  0  0  0  0
    2.4229    3.7979   -0.9804 H   0  0  0  0  0  0  0  0  0  0  0  0
    0.7536   -0.2473    1.4127 C   0  0  0  0  0  0  0  0  0  0  0  0
    1.9602   -0.2023    1.6132 O   0  0  0  0  0  0  0  0  0  0  0  0
   -0.1019    0.2254    2.3925 N   0  0  0  0  0  0  0  0  0  0  0  0
   -1.0920    0.0806    2.2238 H   0  0  0  0  0  0  0  0  0  0  0  0
    0.3395    0.5150    3.7512 C   0  0  0  0  0  0  0  0  0  0  0  0
    1.1165    1.2869    3.7470 H   0  0  0  0  0  0  0  0  0  0  0  0
   -0.4999    0.8766    4.3526 H   0  0  0  0  0  0  0  0  0  0  0  0
    0.7425   -0.3877    4.2225 H   0  0  0  0  0  0  0  0  0  0  0  0
  1  2  1  0  0  0  0
  2  3  1  0  0  0  0
  2  4  1  0  0  0  0
  2  5  1  0  0  0  0
  5  6  2  0  0  0  0
  5  7  1  0  0  0  0
  7  8  1  0  0  0  0
  7  9  1  0  0  0  0
  9 10  1  0  0  0  0
  9 11  1  0  0  0  0
  9 22  1  0  0  0  0
 11 12  1  0  0  0  0
 11 13  1  0  0  0  0
 11 14  1  0  0  0  0
 14 15  1  0  0  0  0
 14 16  1  0  0  0  0
 14 17  1  0  0  0  0
 17 18  1  0  0  0  0
 18 19  1  0  0  0  0
 18 20  1  0  0  0  0
 18 21  1  0  0  0  0
 22 23  2  0  0  0  0
 22 24  1  0  0  0  0
 24 25  1  0  0  0  0
 24 26  1  0  0  0  0
 26 27  1  0  0  0  0
 26 28  1  0  0  0  0
 26 29  1  0  0  0  0
M  END
$$$$

  -OEChem-04042216023D

 29 28  0     1  0  0  0  0  0999 V2000
   -2.6304   -4.1161    0.5218 H   0  0  0  0  0  0  0  0  0  0  0  0
   -2.6275   -3.1113    0.0893 C   0  0  0  0  0  0  0  0  0  0  0  0
   -3.4418   -2.5344    0.5343 H   0  0  0  0  0  0  0  0  0  0  0  0
   -2.7921   -3.1928   -0.9877 H   0  0  0  0  0  0  0  0  0  0  0  0
   -1.2993   -2.4313    0.3613 C   0  0  0  0  0  0  0  0  0  0  0  0
   -0.4444   -3.0054    1.0106 O   0  0  0  0  0  0  0  0  0  0  0  0
   -1.0698   -1.1555   -0.1145 N   0  0  0  0  0  0  0  0  0  0  0  0
   -1.7935   -0.7492   -0.7003 H   0  0  0  0  0  0  0  0  0  0  0  0
    0.2234   -0.4528   -0.0120 C   0  0  1  0  0  0  0  0  0  0  0  0
    0.9606   -1.1242   -0.4678 H   0  0  0  0  0  0  0  0  0  0  0  0
    0.1969    0.8138   -0.9009 C   0  0  0  0  0  0  0  0  0  0  0  0
    1.1371    0.8555   -1.4596 H   0  0  0  0  0  0  0  0  0  0  0  0
   -0.6087    0.7279   -1.6370 H   0  0  0  0  0  0  0  0  0  0  0  0
    0.0469    2.1384   -0.1410 C   0  0  0  0  0  0  0  0  0  0  0  0
   -0.7526    2.0528    0.6005 H   0  0  0  0  0  0  0  0  0  0  0  0
    0.9746    2.3889    0.3854 H   0  0  0  0  0  0  0  0  0  0  0  0
   -0.4115    3.4833   -1.3065 S   0  0  0  0  0  0  0  0  0  0  0  0
    1.1542    3.7584   -2.2278 C   0  0  0  0  0  0  0  0  0  0  0  0
    1.4294    2.8634   -2.7928 H   0  0  0  0  0  0  0  0  0  0  0  0
    1.0354    4.5896   -2.9292 H   0  0  0  0  0  0  0  0  0  0  0  0
    1.9647    4.0002   -1.5336 H   0  0  0  0  0  0  0  0  0  0  0  0
    0.7479   -0.2305    1.4275 C   0  0  0  0  0  0  0  0  0  0  0  0
    1.9551   -0.1776    1.6214 O   0  0  0  0  0  0  0  0  0  0  0  0
   -0.1043    0.2171    2.4218 N   0  0  0  0  0  0  0  0  0  0  0  0
   -1.0945    0.0682    2.2567 H   0  0  0  0  0  0  0  0  0  0  0  0
    0.3438    0.4744    3.7848 C   0  0  0  0  0  0  0  0  0  0  0  0
    1.1144    1.2526    3.7950 H   0  0  0  0  0  0  0  0  0  0  0  0
   -0.4947    0.8127    4.4010 H   0  0  0  0  0  0  0  0  0  0  0  0
    0.7570   -0.4370    4.2298 H   0  0  0  0  0  0  0  0  0  0  0  0
  1  2  1  0  0  0  0
  2  3  1  0  0  0  0
  2  4  1  0  0  0  0
  2  5  1  0  0  0  0
  5  6  2  0  0  0  0
  5  7  1  0  0  0  0
  7  8  1  0  0  0  0
  7  9  1  0  0  0  0
  9 10  1  0  0  0  0
  9 11  1  0  0  0  0
  9 22  1  0  0  0  0
 11 12  1  0  0  0  0
 11 13  1  0  0  0  0
 11 14  1  0  0  0  0
 14 15  1  0  0  0  0
 14 16  1  0  0  0  0
 14 17  1  0  0  0  0
 17 18  1  0  0  0  0
 18 19  1  0  0  0  0
 18 20  1  0  0  0  0
 18 21  1  0  0  0  0
 22 23  2  0  0  0  0
 22 24  1  0  0  0  0
 24 25  1  0  0  0  0
 24 26  1  0  0  0  0
 26 27  1  0  0  0  0
 26 28  1  0  0  0  0
 26 29  1  0  0  0  0
M  END
$$$$

  -OEChem-04042216023D

 29 28  0     1  0  0  0  0  0999 V2000
   -2.6237   -4.1128    0.5072 H   0  0  0  0  0  0  0  0  0  0  0  0
   -2.6271   -3.1039    0.0847 C   0  0  0  0  0  0  0  0  0  0  0  0
   -3.4326   -2.5309    0.5501 H   0  0  0  0  0  0  0  0  0  0  0  0
   -2.8111   -3.1741   -0.9901 H   0  0  0  0  0  0  0  0  0  0  0  0
   -1.2932   -2.4280    0.3395 C   0  0  0  0  0  0  0  0  0  0  0  0
   -0.4208   -3.0166    0.9517 O   0  0  0  0  0  0  0  0  0  0  0  0
   -1.0782   -1.1389   -0.1060 N   0  0  0  0  0  0  0  0  0  0  0  0
   -1.8232   -0.7090   -0.6466 H   0  0  0  0  0  0  0  0  0  0  0  0
    0.2086   -0.4262    0.0045 C   0  0  1  0  0  0  0  0  0  0  0  0
    0.9448   -1.0915   -0.4614 H   0  0  0  0  0  0  0  0  0  0  0  0
    0.1890    0.8442   -0.8798 C   0  0  0  0  0  0  0  0  0  0  0  0
    1.1298    0.8907   -1.4380 H   0  0  0  0  0  0  0  0  0  0  0  0
   -0.6128    0.7486   -1.6191 H   0  0  0  0  0  0  0  0  0  0  0  0
    0.0289    2.1752   -0.1285 C   0  0  0  0  0  0  0  0  0  0  0  0
   -0.5942    2.0389    0.7583 H   0  0  0  0  0  0  0  0  0  0  0  0
    1.0036    2.5540    0.1978 H   0  0  0  0  0  0  0  0  0  0  0  0
   -0.8351    3.3993   -1.1924 S   0  0  0  0  0  0  0  0  0  0  0  0
    0.4528    3.7925   -2.4422 C   0  0  0  0  0  0  0  0  0  0  0  0
    0.7251    2.8966   -3.0073 H   0  0  0  0  0  0  0  0  0  0  0  0
    0.0786    4.5459   -3.1417 H   0  0  0  0  0  0  0  0  0  0  0  0
    1.3486    4.1851   -1.9520 H   0  0  0  0  0  0  0  0  0  0  0  0
    0.7481   -0.2299    1.4424 C   0  0  0  0  0  0  0  0  0  0  0  0
    1.9571   -0.1681    1.6221 O   0  0  0  0  0  0  0  0  0  0  0  0
   -0.0943    0.1867    2.4583 N   0  0  0  0  0  0  0  0  0  0  0  0
   -1.0861    0.0393    2.3016 H   0  0  0  0  0  0  0  0  0  0  0  0
    0.3697    0.4214    3.8200 C   0  0  0  0  0  0  0  0  0  0  0  0
    1.1334    1.2061    3.8356 H   0  0  0  0  0  0  0  0  0  0  0  0
   -0.4628    0.7401    4.4543 H   0  0  0  0  0  0  0  0  0  0  0  0
    0.7969   -0.4951    4.2407 H   0  0  0  0  0  0  0  0  0  0  0  0
  1  2  1  0  0  0  0
  2  3  1  0  0  0  0
  2  4  1  0  0  0  0
  2  5  1  0  0  0  0
  5  6  2  0  0  0  0
  5  7  1  0  0  0  0
  7  8  1  0  0  0  0
  7  9  1  0  0  0  0
  9 10  1  0  0  0  0
  9 11  1  0  0  0  0
  9 22  1  0  0  0  0
 11 12  1  0  0  0  0
 11 13  1  0  0  0  0
 11 14  1  0  0  0  0
 14 15  1  0  0  0  0
 14 16  1  0  0  0  0
 14 17  1  0  0  0  0
 17 18  1  0  0  0  0
 18 19  1  0  0  0  0
 18 20  1  0  0  0  0
 18 21  1  0  0  0  0
 22 23  2  0  0  0  0
 22 24  1  0  0  0  0
 24 25  1  0  0  0  0
 24 26  1  0  0  0  0
 26 27  1  0  0  0  0
 26 28  1  0  0  0  0
 26 29  1  0  0  0  0
M  END
$$$$

  -OEChem-04042216023D

 29 28  0     1  0  0  0  0  0999 V2000
   -2.6412   -4.0956    0.4806 H   0  0  0  0  0  0  0  0  0  0  0  0
   -2.6396   -3.0789    0.0770 C   0  0  0  0  0  0  0  0  0  0  0  0
   -3.4318   -2.5059    0.5646 H   0  0  0  0  0  0  0  0  0  0  0  0
   -2.8398   -3.1265   -0.9962 H   0  0  0  0  0  0  0  0  0  0  0  0
   -1.2948   -2.4224    0.3242 C   0  0  0  0  0  0  0  0  0  0  0  0
   -0.4131   -3.0361    0.8973 O   0  0  0  0  0  0  0  0  0  0  0  0
   -1.0793   -1.1236   -0.0909 N   0  0  0  0  0  0  0  0  0  0  0  0
   -1.8398   -0.6655   -0.5849 H   0  0  0  0  0  0  0  0  0  0  0  0
    0.2071   -0.4124    0.0274 C   0  0  1  0  0  0  0  0  0  0  0  0
    0.9390   -1.0746   -0.4504 H   0  0  0  0  0  0  0  0  0  0  0  0
    0.1856    0.8621   -0.8524 C   0  0  0  0  0  0  0  0  0  0  0  0
    1.1324    0.9088   -1.4004 H   0  0  0  0  0  0  0  0  0  0  0  0
   -0.6026    0.7573   -1.6045 H   0  0  0  0  0  0  0  0  0  0  0  0
    0.0215    2.2057   -0.1179 C   0  0  0  0  0  0  0  0  0  0  0  0
   -0.3553    2.0618    0.8954 H   0  0  0  0  0  0  0  0  0  0  0  0
    0.9866    2.7175   -0.0417 H   0  0  0  0  0  0  0  0  0  0  0  0
   -1.2085    3.2567   -0.9908 S   0  0  0  0  0  0  0  0  0  0  0  0
   -0.2917    3.7294   -2.5110 C   0  0  0  0  0  0  0  0  0  0  0  0
   -0.0264    2.8406   -3.0908 H   0  0  0  0  0  0  0  0  0  0  0  0
   -0.9107    4.3814   -3.1346 H   0  0  0  0  0  0  0  0  0  0  0  0
    0.6255    4.2650   -2.2480 H   0  0  0  0  0  0  0  0  0  0  0  0
    0.7586   -0.2472    1.4642 C   0  0  0  0  0  0  0  0  0  0  0  0
    1.9692   -0.1871    1.6339 O   0  0  0  0  0  0  0  0  0  0  0  0
   -0.0738    0.1453    2.4979 N   0  0  0  0  0  0  0  0  0  0  0  0
   -1.0689    0.0174    2.3444 H   0  0  0  0  0  0  0  0  0  0  0  0
    0.4034    0.3680    3.8570 C   0  0  0  0  0  0  0  0  0  0  0  0
    1.1535    1.1657    3.8748 H   0  0  0  0  0  0  0  0  0  0  0  0
   -0.4266    0.6621    4.5062 H   0  0  0  0  0  0  0  0  0  0  0  0
    0.8522   -0.5466    4.2588 H   0  0  0  0  0  0  0  0  0  0  0  0
  1  2  1  0  0  0  0
  2  3  1  0  0  0  0
  2  4  1  0  0  0  0
  2  5  1  0  0  0  0
  5  6  2  0  0  0  0
  5  7  1  0  0  0  0
  7  8  1  0  0  0  0
  7  9  1  0  0  0  0
  9 10  1  0  0  0  0
  9 11  1  0  0  0  0
  9 22  1  0  0  0  0
 11 12  1  0  0  0  0
 11 13  1  0  0  0  0
 11 14  1  0  0  0  0
 14 15  1  0  0  0  0
 14 16  1  0  0  0  0
 14 17  1  0  0  0  0
 17 18  1  0  0  0  0
 18 19  1  0  0  0  0
 18 20  1  0  0  0  0
 18 21  1  0  0  0  0
 22 23  2  0  0  0  0
 22 24  1  0  0  0  0
 24 25  1  0  0  0  0
 24 26  1  0  0  0  0
 26 27  1  0  0  0  0
 26 28  1  0  0  0  0
 26 29  1  0  0  0  0
M  END
$$$$

  -OEChem-04042216023D

 29 28  0     1  0  0  0  0  0999 V2000
   -2.6585   -4.0806    0.5546 H   0  0  0  0  0  0  0  0  0  0  0  0
   -2.6497   -3.0703    0.1352 C   0  0  0  0  0  0  0  0  0  0  0  0
   -3.4149   -2.4747    0.6386 H   0  0  0  0  0  0  0  0  0  0  0  0
   -2.8847   -3.1300   -0.9303 H   0  0  0  0  0  0  0  0  0  0  0  0
   -1.2853   -2.4366    0.3300 C   0  0  0  0  0  0  0  0  0  0  0  0
   -0.3918   -3.0679    0.8645 O   0  0  0  0  0  0  0  0  0  0  0  0
   -1.0650   -1.1389   -0.0866 N   0  0  0  0  0  0  0  0  0  0  0  0
   -1.8428   -0.6559   -0.5273 H   0  0  0  0  0  0  0  0  0  0  0  0
    0.2249   -0.4329    0.0242 C   0  0  1  0  0  0  0  0  0  0  0  0
    0.9550   -1.0930   -0.4593 H   0  0  0  0  0  0  0  0  0  0  0  0
    0.1868    0.8428   -0.8553 C   0  0  0  0  0  0  0  0  0  0  0  0
    1.1412    0.8866   -1.3906 H   0  0  0  0  0  0  0  0  0  0  0  0
   -0.5869    0.7335   -1.6218 H   0  0  0  0  0  0  0  0  0  0  0  0
    0.0281    2.1985   -0.1367 C   0  0  0  0  0  0  0  0  0  0  0  0
   -0.0280    2.0955    0.9467 H   0  0  0  0  0  0  0  0  0  0  0  0
    0.8955    2.8317   -0.3500 H   0  0  0  0  0  0  0  0  0  0  0  0
   -1.5026    3.0383   -0.7125 S   0  0  0  0  0  0  0  0  0  0  0  0
   -1.0045    3.6393   -2.3756 C   0  0  0  0  0  0  0  0  0  0  0  0
   -0.7275    2.8002   -3.0201 H   0  0  0  0  0  0  0  0  0  0  0  0
   -1.8333    4.1800   -2.8421 H   0  0  0  0  0  0  0  0  0  0  0  0
   -0.1489    4.3163   -2.2926 H   0  0  0  0  0  0  0  0  0  0  0  0
    0.7733   -0.2761    1.4625 C   0  0  0  0  0  0  0  0  0  0  0  0
    1.9832   -0.2292    1.6405 O   0  0  0  0  0  0  0  0  0  0  0  0
   -0.0638    0.1171    2.4923 N   0  0  0  0  0  0  0  0  0  0  0  0
   -1.0603    0.0249    2.3235 H   0  0  0  0  0  0  0  0  0  0  0  0
    0.4024    0.3372    3.8556 C   0  0  0  0  0  0  0  0  0  0  0  0
    1.1592    1.1284    3.8800 H   0  0  0  0  0  0  0  0  0  0  0  0
   -0.4314    0.6393    4.4966 H   0  0  0  0  0  0  0  0  0  0  0  0
    0.8390   -0.5810    4.2629 H   0  0  0  0  0  0  0  0  0  0  0  0
  1  2  1  0  0  0  0
  2  3  1  0  0  0  0
  2  4  1  0  0  0  0
  2  5  1  0  0  0  0
  5  6  2  0  0  0  0
  5  7  1  0  0  0  0
  7  8  1  0  0  0  0
  7  9  1  0  0  0  0
  9 10  1  0  0  0  0
  9 11  1  0  0  0  0
  9 22  1  0  0  0  0
 11 12  1  0  0  0  0
 11 13  1  0  0  0  0
 11 14  1  0  0  0  0
 14 15  1  0  0  0  0
 14 16  1  0  0  0  0
 14 17  1  0  0  0  0
 17 18  1  0  0  0  0
 18 19  1  0  0  0  0
 18 20  1  0  0  0  0
 18 21  1  0  0  0  0
 22 23  2  0  0  0  0
 22 24  1  0  0  0  0
 24 25  1  0  0  0  0
 24 26  1  0  0  0  0
 26 27  1  0  0  0  0
 26 28  1  0  0  0  0
 26 29  1  0  0  0  0
M  END
$$$$

  -OEChem-04042216023D

 29 28  0     1  0  0  0  0  0999 V2000
   -2.6678   -4.0722    0.6112 H   0  0  0  0  0  0  0  0  0  0  0  0
   -2.6517   -3.0670    0.1800 C   0  0  0  0  0  0  0  0  0  0  0  0
   -3.3930   -2.4518    0.6956 H   0  0  0  0  0  0  0  0  0  0  0  0
   -2.9153   -3.1342   -0.8783 H   0  0  0  0  0  0  0  0  0  0  0  0
   -1.2709   -2.4570    0.3319 C   0  0  0  0  0  0  0  0  0  0  0  0
   -0.3712   -3.1051    0.8352 O   0  0  0  0  0  0  0  0  0  0  0  0
   -1.0391   -1.1659   -0.0985 N   0  0  0  0  0  0  0  0  0  0  0  0
   -1.8292   -0.6568   -0.4845 H   0  0  0  0  0  0  0  0  0  0  0  0
    0.2551   -0.4685    0.0119 C   0  0  1  0  0  0  0  0  0  0  0  0
    0.9872   -1.1283   -0.4684 H   0  0  0  0  0  0  0  0  0  0  0  0
    0.2020    0.8082   -0.8648 C   0  0  0  0  0  0  0  0  0  0  0  0
    1.1637    0.8552   -1.3868 H   0  0  0  0  0  0  0  0  0  0  0  0
   -0.5612    0.7021   -1.6415 H   0  0  0  0  0  0  0  0  0  0  0  0
    0.0454    2.1605   -0.1419 C   0  0  0  0  0  0  0  0  0  0  0  0
    0.3055    2.1146    0.9165 H   0  0  0  0  0  0  0  0  0  0  0  0
    0.7270    2.8883   -0.5943 H   0  0  0  0  0  0  0  0  0  0  0  0
   -1.6763    2.7736   -0.3425 S   0  0  0  0  0  0  0  0  0  0  0  0
   -1.6524    3.4480   -2.0517 C   0  0  0  0  0  0  0  0  0  0  0  0
   -1.4098    2.6620   -2.7726 H   0  0  0  0  0  0  0  0  0  0  0  0
   -2.6328    3.8630   -2.3042 H   0  0  0  0  0  0  0  0  0  0  0  0
   -0.9051    4.2430   -2.1340 H   0  0  0  0  0  0  0  0  0  0  0  0
    0.7881   -0.3032    1.4544 C   0  0  0  0  0  0  0  0  0  0  0  0
    1.9959   -0.2725    1.6496 O   0  0  0  0  0  0  0  0  0  0  0  0
   -0.0594    0.1069    2.4688 N   0  0  0  0  0  0  0  0  0  0  0  0
   -1.0549    0.0668    2.2758 H   0  0  0  0  0  0  0  0  0  0  0  0
    0.3895    0.3589    3.8319 C   0  0  0  0  0  0  0  0  0  0  0  0
    1.1389    1.1574    3.8473 H   0  0  0  0  0  0  0  0  0  0  0  0
   -0.4538    0.6664    4.4575 H   0  0  0  0  0  0  0  0  0  0  0  0
    0.8295   -0.5467    4.2630 H   0  0  0  0  0  0  0  0  0  0  0  0
  1  2  1  0  0  0  0
  2  3  1  0  0  0  0
  2  4  1  0  0  0  0
  2  5  1  0  0  0  0
  5  6  2  0  0  0  0
  5  7  1  0  0  0  0
  7  8  1  0  0  0  0
  7  9  1  0  0  0  0
  9 10  1  0  0  0  0
  9 11  1  0  0  0  0
  9 22  1  0  0  0  0
 11 12  1  0  0  0  0
 11 13  1  0  0  0  0
 11 14  1  0  0  0  0
 14 15  1  0  0  0  0
 14 16  1  0  0  0  0
 14 17  1  0  0  0  0
 17 18  1  0  0  0  0
 18 19  1  0  0  0  0
 18 20  1  0  0  0  0
 18 21  1  0  0  0  0
 22 23  2  0  0  0  0
 22 24  1  0  0  0  0
 24 25  1  0  0  0  0
 24 26  1  0  0  0  0
 26 27  1  0  0  0  0
 26 28  1  0  0  0  0
 26 29  1  0  0  0  0
M  END
$$$$

  -OEChem-04042216023D

 29 28  0     1  0  0  0  0  0999 V2000
   -2.6697   -4.0584    0.6569 H   0  0  0  0  0  0  0  0  0  0  0  0
   -2.6446   -3.0577    0.2160 C   0  0  0  0  0  0  0  0  0  0  0  0
   -3.3502   -2.4197    0.7533 H   0  0  0  0  0  0  0  0  0  0  0  0
   -2.9488   -3.1267   -0.8313 H   0  0  0  0  0  0  0  0  0  0  0  0
   -1.2446   -2.4812    0.3116 C   0  0  0  0  0  0  0  0  0  0  0  0
   -0.3417   -3.1493    0.7821 O   0  0  0  0  0  0  0  0  0  0  0  0
   -0.9998   -1.1981   -0.1346 N   0  0  0  0  0  0  0  0  0  0  0  0
   -1.7989   -0.6629   -0.4622 H   0  0  0  0  0  0  0  0  0  0  0  0
    0.2974   -0.5085   -0.0135 C   0  0  1  0  0  0  0  0  0  0  0  0
    1.0381   -1.1643   -0.4858 H   0  0  0  0  0  0  0  0  0  0  0  0
    0.2328    0.7736   -0.8810 C   0  0  0  0  0  0  0  0  0  0  0  0
    1.1924    0.8341   -1.4050 H   0  0  0  0  0  0  0  0  0  0  0  0
   -0.5342    0.6787   -1.6554 H   0  0  0  0  0  0  0  0  0  0  0  0
    0.0724    2.1054   -0.1280 C   0  0  0  0  0  0  0  0  0  0  0  0
    0.5897    2.1132    0.8347 H   0  0  0  0  0  0  0  0  0  0  0  0
    0.5221    2.9063   -0.7238 H   0  0  0  0  0  0  0  0  0  0  0  0
   -1.7170    2.4769    0.0806 S   0  0  0  0  0  0  0  0  0  0  0  0
   -2.1819    3.1507   -1.5646 C   0  0  0  0  0  0  0  0  0  0  0  0
   -2.0293    2.4008   -2.3457 H   0  0  0  0  0  0  0  0  0  0  0  0
   -3.2359    3.4441   -1.5642 H   0  0  0  0  0  0  0  0  0  0  0  0
   -1.5752    4.0307   -1.7986 H   0  0  0  0  0  0  0  0  0  0  0  0
    0.8007   -0.3301    1.4385 C   0  0  0  0  0  0  0  0  0  0  0  0
    2.0030   -0.3289    1.6668 O   0  0  0  0  0  0  0  0  0  0  0  0
   -0.0659    0.0995    2.4283 N   0  0  0  0  0  0  0  0  0  0  0  0
   -1.0483    0.1699    2.1825 H   0  0  0  0  0  0  0  0  0  0  0  0
    0.3543    0.4152    3.7873 C   0  0  0  0  0  0  0  0  0  0  0  0
    1.0812    1.2342    3.7841 H   0  0  0  0  0  0  0  0  0  0  0  0
   -0.5078    0.7209    4.3877 H   0  0  0  0  0  0  0  0  0  0  0  0
    0.8115   -0.4611    4.2589 H   0  0  0  0  0  0  0  0  0  0  0  0
  1  2  1  0  0  0  0
  2  3  1  0  0  0  0
  2  4  1  0  0  0  0
  2  5  1  0  0  0  0
  5  6  2  0  0  0  0
  5  7  1  0  0  0  0
  7  8  1  0  0  0  0
  7  9  1  0  0  0  0
  9 10  1  0  0  0  0
  9 11  1  0  0  0  0
  9 22  1  0  0  0  0
 11 12  1  0  0  0  0
 11 13  1  0  0  0  0
 11 14  1  0  0  0  0
 14 15  1  0  0  0  0
 14 16  1  0  0  0  0
 14 17  1  0  0  0  0
 17 18  1  0  0  0  0
 18 19  1  0  0  0  0
 18 20  1  0  0  0  0
 18 21  1  0  0  0  0
 22 23  2  0  0  0  0
 22 24  1  0  0  0  0
 24 25  1  0  0  0  0
 24 26  1  0  0  0  0
 26 27  1  0  0  0  0
 26 28  1  0  0  0  0
 26 29  1  0  0  0  0
M  END
$$$$

  -OEChem-04042216023D

 29 28  0     1  0  0  0  0  0999 V2000
   -2.6392   -4.1069    0.6209 H   0  0  0  0  0  0  0  0  0  0  0  0
   -2.6361   -3.0806    0.2428 C   0  0  0  0  0  0  0  0  0  0  0  0
   -3.2988   -2.4747    0.8652 H   0  0  0  0  0  0  0  0  0  0  0  0
   -3.0105   -3.0830   -0.7838 H   0  0  0  0  0  0  0  0  0  0  0  0
   -1.2286   -2.5157    0.2805 C   0  0  0  0  0  0  0  0  0  0  0  0
   -0.3095   -3.1981    0.6962 O   0  0  0  0  0  0  0  0  0  0  0  0
   -0.9969   -1.2271   -0.1570 N   0  0  0  0  0  0  0  0  0  0  0  0
   -1.8126   -0.6752   -0.4051 H   0  0  0  0  0  0  0  0  0  0  0  0
    0.2934   -0.5295   -0.0162 C   0  0  1  0  0  0  0  0  0  0  0  0
    1.0404   -1.1823   -0.4829 H   0  0  0  0  0  0  0  0  0  0  0  0
    0.2490    0.7555   -0.8799 C   0  0  0  0  0  0  0  0  0  0  0  0
    1.2123    0.8225   -1.3962 H   0  0  0  0  0  0  0  0  0  0  0  0
   -0.5160    0.6690   -1.6573 H   0  0  0  0  0  0  0  0  0  0  0  0
    0.0735    2.0730   -0.1102 C   0  0  0  0  0  0  0  0  0  0  0  0
    0.7631    2.1361    0.7376 H   0  0  0  0  0  0  0  0  0  0  0  0
    0.3088    2.9136   -0.7709 H   0  0  0  0  0  0  0  0  0  0  0  0
   -1.6711    2.2291    0.4584 S   0  0  0  0  0  0  0  0  0  0  0  0
   -2.5297    2.8224   -1.0541 C   0  0  0  0  0  0  0  0  0  0  0  0
   -2.4455    2.0869   -1.8590 H   0  0  0  0  0  0  0  0  0  0  0  0
   -3.5904    2.9876   -0.8423 H   0  0  0  0  0  0  0  0  0  0  0  0
   -2.0911    3.7659   -1.3926 H   0  0  0  0  0  0  0  0  0  0  0  0
    0.7905   -0.3513    1.4386 C   0  0  0  0  0  0  0  0  0  0  0  0
    1.9922   -0.3603    1.6708 O   0  0  0  0  0  0  0  0  0  0  0  0
   -0.0766    0.0691    2.4316 N   0  0  0  0  0  0  0  0  0  0  0  0
   -1.0329    0.2636    2.1497 H   0  0  0  0  0  0  0  0  0  0  0  0
    0.3597    0.4540    3.7673 C   0  0  0  0  0  0  0  0  0  0  0  0
    0.9805    1.3547    3.7219 H   0  0  0  0  0  0  0  0  0  0  0  0
   -0.5067    0.6589    4.4030 H   0  0  0  0  0  0  0  0  0  0  0  0
    0.9406   -0.3523    4.2276 H   0  0  0  0  0  0  0  0  0  0  0  0
  1  2  1  0  0  0  0
  2  3  1  0  0  0  0
  2  4  1  0  0  0  0
  2  5  1  0  0  0  0
  5  6  2  0  0  0  0
  5  7  1  0  0  0  0
  7  8  1  0  0  0  0
  7  9  1  0  0  0  0
  9 10  1  0  0  0  0
  9 11  1  0  0  0  0
  9 22  1  0  0  0  0
 11 12  1  0  0  0  0
 11 13  1  0  0  0  0
 11 14  1  0  0  0  0
 14 15  1  0  0  0  0
 14 16  1  0  0  0  0
 14 17  1  0  0  0  0
 17 18  1  0  0  0  0
 18 19  1  0  0  0  0
 18 20  1  0  0  0  0
 18 21  1  0  0  0  0
 22 23  2  0  0  0  0
 22 24  1  0  0  0  0
 24 25  1  0  0  0  0
 24 26  1  0  0  0  0
 26 27  1  0  0  0  0
 26 28  1  0  0  0  0
 26 29  1  0  0  0  0
M  END
$$$$

  -OEChem-04042216023D

 29 28  0     1  0  0  0  0  0999 V2000
   -2.6182   -4.1422    0.5827 H   0  0  0  0  0  0  0  0  0  0  0  0
   -2.6366   -3.1056    0.2340 C   0  0  0  0  0  0  0  0  0  0  0  0
   -3.2952   -2.5277    0.8868 H   0  0  0  0  0  0  0  0  0  0  0  0
   -3.0310   -3.0843   -0.7848 H   0  0  0  0  0  0  0  0  0  0  0  0
   -1.2366   -2.5222    0.2608 C   0  0  0  0  0  0  0  0  0  0  0  0
   -0.3006   -3.2061    0.6341 O   0  0  0  0  0  0  0  0  0  0  0  0
   -1.0320   -1.2151   -0.1335 N   0  0  0  0  0  0  0  0  0  0  0  0
   -1.8615   -0.6636   -0.3288 H   0  0  0  0  0  0  0  0  0  0  0  0
    0.2483   -0.5030    0.0223 C   0  0  1  0  0  0  0  0  0  0  0  0
    0.9877   -1.1623   -0.4484 H   0  0  0  0  0  0  0  0  0  0  0  0
    0.2515    0.7722   -0.8557 C   0  0  0  0  0  0  0  0  0  0  0  0
    1.2252    0.8228   -1.3549 H   0  0  0  0  0  0  0  0  0  0  0  0
   -0.5013    0.6806   -1.6440 H   0  0  0  0  0  0  0  0  0  0  0  0
    0.0611    2.1054   -0.1181 C   0  0  0  0  0  0  0  0  0  0  0  0
    0.8748    2.2483    0.6014 H   0  0  0  0  0  0  0  0  0  0  0  0
    0.1101    2.9335   -0.8323 H   0  0  0  0  0  0  0  0  0  0  0  0
   -1.5536    2.1503    0.7704 S   0  0  0  0  0  0  0  0  0  0  0  0
   -2.7463    2.4512   -0.5940 C   0  0  0  0  0  0  0  0  0  0  0  0
   -2.7204    1.6309   -1.3166 H   0  0  0  0  0  0  0  0  0  0  0  0
   -3.7612    2.5313   -0.1930 H   0  0  0  0  0  0  0  0  0  0  0  0
   -2.5013    3.3838   -1.1113 H   0  0  0  0  0  0  0  0  0  0  0  0
    0.7881   -0.3486    1.4659 C   0  0  0  0  0  0  0  0  0  0  0  0
    1.9980   -0.3517    1.6533 O   0  0  0  0  0  0  0  0  0  0  0  0
   -0.0391    0.0320    2.5068 N   0  0  0  0  0  0  0  0  0  0  0  0
   -0.9977    0.2609    2.2602 H   0  0  0  0  0  0  0  0  0  0  0  0
    0.4555    0.4117    3.8237 C   0  0  0  0  0  0  0  0  0  0  0  0
    1.0493    1.3294    3.7595 H   0  0  0  0  0  0  0  0  0  0  0  0
   -0.3822    0.5855    4.5057 H   0  0  0  0  0  0  0  0  0  0  0  0
    1.0802   -0.3845    4.2425 H   0  0  0  0  0  0  0  0  0  0  0  0
  1  2  1  0  0  0  0
  2  3  1  0  0  0  0
  2  4  1  0  0  0  0
  2  5  1  0  0  0  0
  5  6  2  0  0  0  0
  5  7  1  0  0  0  0
  7  8  1  0  0  0  0
  7  9  1  0  0  0  0
  9 10  1  0  0  0  0
  9 11  1  0  0  0  0
  9 22  1  0  0  0  0
 11 12  1  0  0  0  0
 11 13  1  0  0  0  0
 11 14  1  0  0  0  0
 14 15  1  0  0  0  0
 14 16  1  0  0  0  0
 14 17  1  0  0  0  0
 17 18  1  0  0  0  0
 18 19  1  0  0  0  0
 18 20  1  0  0  0  0
 18 21  1  0  0  0  0
 22 23  2  0  0  0  0
 22 24  1  0  0  0  0
 24 25  1  0  0  0  0
 24 26  1  0  0  0  0
 26 27  1  0  0  0  0
 26 28  1  0  0  0  0
 26 29  1  0  0  0  0
M  END
$$$$

  -OEChem-04042216023D

 29 28  0     1  0  0  0  0  0999 V2000
   -2.5635   -4.2156    0.5755 H   0  0  0  0  0  0  0  0  0  0  0  0
   -2.6027   -3.1842    0.2134 C   0  0  0  0  0  0  0  0  0  0  0  0
   -3.2998   -2.6196    0.8371 H   0  0  0  0  0  0  0  0  0  0  0  0
   -2.9644   -3.1875   -0.8177 H   0  0  0  0  0  0  0  0  0  0  0  0
   -1.2223   -2.5576    0.2764 C   0  0  0  0  0  0  0  0  0  0  0  0
   -0.2692   -3.2246    0.6365 O   0  0  0  0  0  0  0  0  0  0  0  0
   -1.0560   -1.2322   -0.0730 N   0  0  0  0  0  0  0  0  0  0  0  0
   -1.8981   -0.7042   -0.2760 H   0  0  0  0  0  0  0  0  0  0  0  0
    0.2071   -0.4895    0.0825 C   0  0  1  0  0  0  0  0  0  0  0  0
    0.9408   -1.1524   -0.3920 H   0  0  0  0  0  0  0  0  0  0  0  0
    0.2374    0.7623   -0.8297 C   0  0  0  0  0  0  0  0  0  0  0  0
    1.2172    0.7933   -1.3181 H   0  0  0  0  0  0  0  0  0  0  0  0
   -0.5044    0.6351   -1.6241 H   0  0  0  0  0  0  0  0  0  0  0  0
    0.0223    2.1383   -0.1776 C   0  0  0  0  0  0  0  0  0  0  0  0
    0.9329    2.4056    0.3702 H   0  0  0  0  0  0  0  0  0  0  0  0
   -0.1274    2.8970   -0.9521 H   0  0  0  0  0  0  0  0  0  0  0  0
   -1.3834    2.1715    1.0123 S   0  0  0  0  0  0  0  0  0  0  0  0
   -2.8299    2.2331   -0.1175 C   0  0  0  0  0  0  0  0  0  0  0  0
   -2.8422    1.3587   -0.7739 H   0  0  0  0  0  0  0  0  0  0  0  0
   -3.7580    2.2505    0.4621 H   0  0  0  0  0  0  0  0  0  0  0  0
   -2.7882    3.1354   -0.7351 H   0  0  0  0  0  0  0  0  0  0  0  0
    0.8003   -0.3524    1.5086 C   0  0  0  0  0  0  0  0  0  0  0  0
    2.0176   -0.3394    1.6421 O   0  0  0  0  0  0  0  0  0  0  0  0
    0.0191   -0.0245    2.6013 N   0  0  0  0  0  0  0  0  0  0  0  0
   -0.9504    0.2070    2.4059 H   0  0  0  0  0  0  0  0  0  0  0  0
    0.5737    0.3292    3.9019 C   0  0  0  0  0  0  0  0  0  0  0  0
    1.1673    1.2464    3.8286 H   0  0  0  0  0  0  0  0  0  0  0  0
   -0.2316    0.4924    4.6242 H   0  0  0  0  0  0  0  0  0  0  0  0
    1.2139   -0.4764    4.2770 H   0  0  0  0  0  0  0  0  0  0  0  0
  1  2  1  0  0  0  0
  2  3  1  0  0  0  0
  2  4  1  0  0  0  0
  2  5  1  0  0  0  0
  5  6  2  0  0  0  0
  5  7  1  0  0  0  0
  7  8  1  0  0  0  0
  7  9  1  0  0  0  0
  9 10  1  0  0  0  0
  9 11  1  0  0  0  0
  9 22  1  0  0  0  0
 11 12  1  0  0  0  0
 11 13  1  0  0  0  0
 11 14  1  0  0  0  0
 14 15  1  0  0  0  0
 14 16  1  0  0  0  0
 14 17  1  0  0  0  0
 17 18  1  0  0  0  0
 18 19  1  0  0  0  0
 18 20  1  0  0  0  0
 18 21  1  0  0  0  0
 22 23  2  0  0  0  0
 22 24  1  0  0  0  0
 24 25  1  0  0  0  0
 24 26  1  0  0  0  0
 26 27  1  0  0  0  0
 26 28  1  0  0  0  0
 26 29  1  0  0  0  0
M  END
$$$$

  -OEChem-04042216023D

 29 28  0     1  0  0  0  0  0999 V2000
   -2.4796   -4.3128    0.4904 H   0  0  0  0  0  0  0  0  0  0  0  0
   -2.5419   -3.2721    0.1599 C   0  0  0  0  0  0  0  0  0  0  0  0
   -3.2701   -2.7484    0.7836 H   0  0  0  0  0  0  0  0  0  0  0  0
   -2.8788   -3.2530   -0.8793 H   0  0  0  0  0  0  0  0  0  0  0  0
   -1.1836   -2.6068    0.2756 C   0  0  0  0  0  0  0  0  0  0  0  0
   -0.2189   -3.2557    0.6376 O   0  0  0  0  0  0  0  0  0  0  0  0
   -1.0515   -1.2668   -0.0306 N   0  0  0  0  0  0  0  0  0  0  0  0
   -1.8986   -0.7657   -0.2746 H   0  0  0  0  0  0  0  0  0  0  0  0
    0.1976   -0.4992    0.1210 C   0  0  1  0  0  0  0  0  0  0  0  0
    0.9284   -1.1567   -0.3660 H   0  0  0  0  0  0  0  0  0  0  0  0
    0.2295    0.7424   -0.8087 C   0  0  0  0  0  0  0  0  0  0  0  0
    1.2096    0.7604   -1.2977 H   0  0  0  0  0  0  0  0  0  0  0  0
   -0.5082    0.5838   -1.6014 H   0  0  0  0  0  0  0  0  0  0  0  0
   -0.0007    2.1560   -0.2368 C   0  0  0  0  0  0  0  0  0  0  0  0
    0.9746    2.5446    0.0767 H   0  0  0  0  0  0  0  0  0  0  0  0
   -0.3707    2.8160   -1.0278 H   0  0  0  0  0  0  0  0  0  0  0  0
   -1.1063    2.2641    1.2285 S   0  0  0  0  0  0  0  0  0  0  0  0
   -2.7673    2.1441    0.4557 C   0  0  0  0  0  0  0  0  0  0  0  0
   -2.8645    1.2086   -0.1015 H   0  0  0  0  0  0  0  0  0  0  0  0
   -3.5425    2.1755    1.2272 H   0  0  0  0  0  0  0  0  0  0  0  0
   -2.9252    2.9811   -0.2313 H   0  0  0  0  0  0  0  0  0  0  0  0
    0.8252   -0.3932    1.5351 C   0  0  0  0  0  0  0  0  0  0  0  0
    2.0456   -0.3665    1.6362 O   0  0  0  0  0  0  0  0  0  0  0  0
    0.0681   -0.1210    2.6597 N   0  0  0  0  0  0  0  0  0  0  0  0
   -0.9070    0.1077    2.4952 H   0  0  0  0  0  0  0  0  0  0  0  0
    0.6541    0.2167    3.9505 C   0  0  0  0  0  0  0  0  0  0  0  0
    1.1978    1.1650    3.8867 H   0  0  0  0  0  0  0  0  0  0  0  0
   -0.1299    0.3147    4.7072 H   0  0  0  0  0  0  0  0  0  0  0  0
    1.3476   -0.5669    4.2740 H   0  0  0  0  0  0  0  0  0  0  0  0
  1  2  1  0  0  0  0
  2  3  1  0  0  0  0
  2  4  1  0  0  0  0
  2  5  1  0  0  0  0
  5  6  2  0  0  0  0
  5  7  1  0  0  0  0
  7  8  1  0  0  0  0
  7  9  1  0  0  0  0
  9 10  1  0  0  0  0
  9 11  1  0  0  0  0
  9 22  1  0  0  0  0
 11 12  1  0  0  0  0
 11 13  1  0  0  0  0
 11 14  1  0  0  0  0
 14 15  1  0  0  0  0
 14 16  1  0  0  0  0
 14 17  1  0  0  0  0
 17 18  1  0  0  0  0
 18 19  1  0  0  0  0
 18 20  1  0  0  0  0
 18 21  1  0  0  0  0
 22 23  2  0  0  0  0
 22 24  1  0  0  0  0
 24 25  1  0  0  0  0
 24 26  1  0  0  0  0
 26 27  1  0  0  0  0
 26 28  1  0  0  0  0
 26 29  1  0  0  0  0
M  END
$$$$

  -OEChem-04042216023D

 29 28  0     1  0  0  0  0  0999 V2000
   -2.4719   -4.3432    0.3697 H   0  0  0  0  0  0  0  0  0  0  0  0
   -2.5301   -3.2951    0.0624 C   0  0  0  0  0  0  0  0  0  0  0  0
   -3.2908   -2.7946    0.6660 H   0  0  0  0  0  0  0  0  0  0  0  0
   -2.8209   -3.2529   -0.9899 H   0  0  0  0  0  0  0  0  0  0  0  0
   -1.1849   -2.6213    0.2567 C   0  0  0  0  0  0  0  0  0  0  0  0
   -0.2354   -3.2691    0.6574 O   0  0  0  0  0  0  0  0  0  0  0  0
   -1.0469   -1.2753   -0.0211 N   0  0  0  0  0  0  0  0  0  0  0  0
   -1.8688   -0.7893   -0.3631 H   0  0  0  0  0  0  0  0  0  0  0  0
    0.2084   -0.5159    0.1310 C   0  0  1  0  0  0  0  0  0  0  0  0
    0.9301   -1.1751   -0.3671 H   0  0  0  0  0  0  0  0  0  0  0  0
    0.2411    0.7264   -0.8017 C   0  0  0  0  0  0  0  0  0  0  0  0
    1.2236    0.7270   -1.2866 H   0  0  0  0  0  0  0  0  0  0  0  0
   -0.4895    0.5567   -1.5985 H   0  0  0  0  0  0  0  0  0  0  0  0
    0.0246    2.1687   -0.2857 C   0  0  0  0  0  0  0  0  0  0  0  0
    1.0080    2.6502   -0.2608 H   0  0  0  0  0  0  0  0  0  0  0  0
   -0.5790    2.7199   -1.0136 H   0  0  0  0  0  0  0  0  0  0  0  0
   -0.7001    2.4048    1.3849 S   0  0  0  0  0  0  0  0  0  0  0  0
   -2.4780    2.0571    1.0904 C   0  0  0  0  0  0  0  0  0  0  0  0
   -2.6123    1.0365    0.7237 H   0  0  0  0  0  0  0  0  0  0  0  0
   -3.0406    2.1722    2.0218 H   0  0  0  0  0  0  0  0  0  0  0  0
   -2.8820    2.7546    0.3506 H   0  0  0  0  0  0  0  0  0  0  0  0
    0.8472   -0.4492    1.5424 C   0  0  0  0  0  0  0  0  0  0  0  0
    2.0686   -0.4439    1.6371 O   0  0  0  0  0  0  0  0  0  0  0  0
    0.0978   -0.2021    2.6785 N   0  0  0  0  0  0  0  0  0  0  0  0
   -0.8794    0.0236    2.5305 H   0  0  0  0  0  0  0  0  0  0  0  0
    0.6931    0.0843    3.9777 C   0  0  0  0  0  0  0  0  0  0  0  0
    1.2735    1.0118    3.9360 H   0  0  0  0  0  0  0  0  0  0  0  0
   -0.0885    0.1964    4.7349 H   0  0  0  0  0  0  0  0  0  0  0  0
    1.3548   -0.7326    4.2848 H   0  0  0  0  0  0  0  0  0  0  0  0
  1  2  1  0  0  0  0
  2  3  1  0  0  0  0
  2  4  1  0  0  0  0
  2  5  1  0  0  0  0
  5  6  2  0  0  0  0
  5  7  1  0  0  0  0
  7  8  1  0  0  0  0
  7  9  1  0  0  0  0
  9 10  1  0  0  0  0
  9 11  1  0  0  0  0
  9 22  1  0  0  0  0
 11 12  1  0  0  0  0
 11 13  1  0  0  0  0
 11 14  1  0  0  0  0
 14 15  1  0  0  0  0
 14 16  1  0  0  0  0
 14 17  1  0  0  0  0
 17 18  1  0  0  0  0
 18 19  1  0  0  0  0
 18 20  1  0  0  0  0
 18 21  1  0  0  0  0
 22 23  2  0  0  0  0
 22 24  1  0  0  0  0
 24 25  1  0  0  0  0
 24 26  1  0  0  0  0
 26 27  1  0  0  0  0
 26 28  1  0  0  0  0
 26 29  1  0  0  0  0
M  END
$$$$

  -OEChem-04042216023D

 29 28  0     1  0  0  0  0  0999 V2000
   -2.3616   -4.3686    0.4873 H   0  0  0  0  0  0  0  0  0  0  0  0
   -2.4759   -3.2837    0.4073 C   0  0  0  0  0  0  0  0  0  0  0  0
   -2.9484   -2.9119    1.3194 H   0  0  0  0  0  0  0  0  0  0  0  0
   -3.1188   -3.0605   -0.4475 H   0  0  0  0  0  0  0  0  0  0  0  0
   -1.1195   -2.6304    0.2212 C   0  0  0  0  0  0  0  0  0  0  0  0
   -0.1124   -3.3150    0.2228 O   0  0  0  0  0  0  0  0  0  0  0  0
   -1.0333   -1.2595    0.0808 N   0  0  0  0  0  0  0  0  0  0  0  0
   -1.8977   -0.7333    0.1518 H   0  0  0  0  0  0  0  0  0  0  0  0
    0.2315   -0.5108   -0.0472 C   0  0  1  0  0  0  0  0  0  0  0  0
    0.7630   -1.1045   -0.8009 H   0  0  0  0  0  0  0  0  0  0  0  0
    0.0169    0.8226   -0.8198 C   0  0  0  0  0  0  0  0  0  0  0  0
    0.8421    0.8772   -1.5389 H   0  0  0  0  0  0  0  0  0  0  0  0
   -0.8951    0.7207   -1.4162 H   0  0  0  0  0  0  0  0  0  0  0  0
   -0.0245    2.2194   -0.1510 C   0  0  0  0  0  0  0  0  0  0  0  0
    0.7729    2.8200   -0.6015 H   0  0  0  0  0  0  0  0  0  0  0  0
   -0.9682    2.7020   -0.4224 H   0  0  0  0  0  0  0  0  0  0  0  0
    0.1841    2.3543    1.6661 S   0  0  0  0  0  0  0  0  0  0  0  0
   -1.5234    2.7276    2.2265 C   0  0  0  0  0  0  0  0  0  0  0  0
   -2.2110    1.9412    1.9027 H   0  0  0  0  0  0  0  0  0  0  0  0
   -1.5525    2.7919    3.3182 H   0  0  0  0  0  0  0  0  0  0  0  0
   -1.8580    3.6826    1.8109 H   0  0  0  0  0  0  0  0  0  0  0  0
    1.2643   -0.6033    1.1108 C   0  0  0  0  0  0  0  0  0  0  0  0
    2.4554   -0.5102    0.8541 O   0  0  0  0  0  0  0  0  0  0  0  0
    1.0041   -0.5173    2.4625 N   0  0  0  0  0  0  0  0  0  0  0  0
    1.8422   -0.5277    3.0368 H   0  0  0  0  0  0  0  0  0  0  0  0
   -0.2795   -0.7804    3.0927 C   0  0  0  0  0  0  0  0  0  0  0  0
   -0.2453   -0.4804    4.1445 H   0  0  0  0  0  0  0  0  0  0  0  0
   -1.0790   -0.2150    2.6063 H   0  0  0  0  0  0  0  0  0  0  0  0
   -0.5158   -1.8481    3.0438 H   0  0  0  0  0  0  0  0  0  0  0  0
  1  2  1  0  0  0  0
  2  3  1  0  0  0  0
  2  4  1  0  0  0  0
  2  5  1  0  0  0  0
  5  6  2  0  0  0  0
  5  7  1  0  0  0  0
  7  8  1  0  0  0  0
  7  9  1  0  0  0  0
  9 10  1  0  0  0  0
  9 11  1  0  0  0  0
  9 22  1  0  0  0  0
 11 12  1  0  0  0  0
 11 13  1  0  0  0  0
 11 14  1  0  0  0  0
 14 15  1  0  0  0  0
 14 16  1  0  0  0  0
 14 17  1  0  0  0  0
 17 18  1  0  0  0  0
 18 19  1  0  0  0  0
 18 20  1  0  0  0  0
 18 21  1  0  0  0  0
 22 23  2  0  0  0  0
 22 24  1  0  0  0  0
 24 25  1  0  0  0  0
 24 26  1  0  0  0  0
 26 27  1  0  0  0  0
 26 28  1  0  0  0  0
 26 29  1  0  0  0  0
M  END
$$$$

  -OEChem-04042216023D

 29 28  0     1  0  0  0  0  0999 V2000
   -2.2947   -4.4774    0.1602 H   0  0  0  0  0  0  0  0  0  0  0  0
   -2.4058   -3.4114   -0.0583 C   0  0  0  0  0  0  0  0  0  0  0  0
   -3.1385   -2.9866    0.6317 H   0  0  0  0  0  0  0  0  0  0  0  0
   -2.7693   -3.2996   -1.0826 H   0  0  0  0  0  0  0  0  0  0  0  0
   -1.0721   -2.7054    0.0981 C   0  0  0  0  0  0  0  0  0  0  0  0
   -0.0810   -3.3446    0.3991 O   0  0  0  0  0  0  0  0  0  0  0  0
   -0.9919   -1.3407   -0.1013 N   0  0  0  0  0  0  0  0  0  0  0  0
   -1.8473   -0.8643   -0.3675 H   0  0  0  0  0  0  0  0  0  0  0  0
    0.2511   -0.5509   -0.0019 C   0  0  1  0  0  0  0  0  0  0  0  0
    0.9597   -1.1274   -0.6095 H   0  0  0  0  0  0  0  0  0  0  0  0
    0.1080    0.7649   -0.8228 C   0  0  0  0  0  0  0  0  0  0  0  0
    1.0620    0.8541   -1.3545 H   0  0  0  0  0  0  0  0  0  0  0  0
   -0.6516    0.6121   -1.5959 H   0  0  0  0  0  0  0  0  0  0  0  0
   -0.1174    2.1734   -0.2154 C   0  0  0  0  0  0  0  0  0  0  0  0
    0.5196    2.8749   -0.7644 H   0  0  0  0  0  0  0  0  0  0  0  0
   -1.1516    2.4629   -0.4251 H   0  0  0  0  0  0  0  0  0  0  0  0
    0.1731    2.4631    1.5726 S   0  0  0  0  0  0  0  0  0  0  0  0
   -1.5300    2.4235    2.2565 C   0  0  0  0  0  0  0  0  0  0  0  0
   -2.0136    1.4722    2.0184 H   0  0  0  0  0  0  0  0  0  0  0  0
   -1.4982    2.5392    3.3440 H   0  0  0  0  0  0  0  0  0  0  0  0
   -2.1264    3.2383    1.8355 H   0  0  0  0  0  0  0  0  0  0  0  0
    0.9618   -0.5853    1.3737 C   0  0  0  0  0  0  0  0  0  0  0  0
    2.1856   -0.5807    1.4184 O   0  0  0  0  0  0  0  0  0  0  0  0
    0.2500   -0.4488    2.5527 N   0  0  0  0  0  0  0  0  0  0  0  0
   -0.7598   -0.4267    2.4823 H   0  0  0  0  0  0  0  0  0  0  0  0
    0.8788   -0.3772    3.8650 C   0  0  0  0  0  0  0  0  0  0  0  0
    1.5606    0.4782    3.9161 H   0  0  0  0  0  0  0  0  0  0  0  0
    0.1193   -0.2597    4.6435 H   0  0  0  0  0  0  0  0  0  0  0  0
    1.4450   -1.2924    4.0670 H   0  0  0  0  0  0  0  0  0  0  0  0
  1  2  1  0  0  0  0
  2  3  1  0  0  0  0
  2  4  1  0  0  0  0
  2  5  1  0  0  0  0
  5  6  2  0  0  0  0
  5  7  1  0  0  0  0
  7  8  1  0  0  0  0
  7  9  1  0  0  0  0
  9 10  1  0  0  0  0
  9 11  1  0  0  0  0
  9 22  1  0  0  0  0
 11 12  1  0  0  0  0
 11 13  1  0  0  0  0
 11 14  1  0  0  0  0
 14 15  1  0  0  0  0
 14 16  1  0  0  0  0
 14 17  1  0  0  0  0
 17 18  1  0  0  0  0
 18 19  1  0  0  0  0
 18 20  1  0  0  0  0
 18 21  1  0  0  0  0
 22 23  2  0  0  0  0
 22 24  1  0  0  0  0
 24 25  1  0  0  0  0
 24 26  1  0  0  0  0
 26 27  1  0  0  0  0
 26 28  1  0  0  0  0
 26 29  1  0  0  0  0
M  END
$$$$

  -OEChem-04042216023D

 29 28  0     1  0  0  0  0  0999 V2000
   -2.4736   -4.6006    0.0430 H   0  0  0  0  0  0  0  0  0  0  0  0
   -2.5021   -3.5552   -0.2780 C   0  0  0  0  0  0  0  0  0  0  0  0
   -3.3779   -3.0756    0.1655 H   0  0  0  0  0  0  0  0  0  0  0  0
   -2.5885   -3.5250   -1.3667 H   0  0  0  0  0  0  0  0  0  0  0  0
   -1.2385   -2.8404    0.1628 C   0  0  0  0  0  0  0  0  0  0  0  0
   -0.3808   -3.4492    0.7756 O   0  0  0  0  0  0  0  0  0  0  0  0
   -1.0662   -1.5042   -0.1426 N   0  0  0  0  0  0  0  0  0  0  0  0
   -1.8246   -1.0455   -0.6366 H   0  0  0  0  0  0  0  0  0  0  0  0
    0.0823   -0.6888    0.2993 C   0  0  1  0  0  0  0  0  0  0  0  0
    0.9644   -1.2760    0.0161 H   0  0  0  0  0  0  0  0  0  0  0  0
    0.1624    0.5704   -0.6165 C   0  0  0  0  0  0  0  0  0  0  0  0
    1.2295    0.6717   -0.8424 H   0  0  0  0  0  0  0  0  0  0  0  0
   -0.3266    0.3487   -1.5704 H   0  0  0  0  0  0  0  0  0  0  0  0
   -0.2689    1.9936   -0.1830 C   0  0  0  0  0  0  0  0  0  0  0  0
    0.2767    2.7208   -0.7932 H   0  0  0  0  0  0  0  0  0  0  0  0
   -1.3276    2.0957   -0.4406 H   0  0  0  0  0  0  0  0  0  0  0  0
   -0.1260    2.4972    1.5757 S   0  0  0  0  0  0  0  0  0  0  0  0
    1.6922    2.6674    1.7769 C   0  0  0  0  0  0  0  0  0  0  0  0
    1.9335    2.8874    2.8210 H   0  0  0  0  0  0  0  0  0  0  0  0
    2.1999    1.7416    1.4923 H   0  0  0  0  0  0  0  0  0  0  0  0
    2.0690    3.4803    1.1498 H   0  0  0  0  0  0  0  0  0  0  0  0
    0.2381   -0.5836    1.8362 C   0  0  0  0  0  0  0  0  0  0  0  0
    1.3561   -0.6218    2.3362 O   0  0  0  0  0  0  0  0  0  0  0  0
   -0.8551   -0.3396    2.6496 N   0  0  0  0  0  0  0  0  0  0  0  0
   -1.7487   -0.1986    2.1931 H   0  0  0  0  0  0  0  0  0  0  0  0
   -0.7488   -0.1296    4.0876 C   0  0  0  0  0  0  0  0  0  0  0  0
   -0.0948    0.7218    4.3037 H   0  0  0  0  0  0  0  0  0  0  0  0
   -1.7349    0.0755    4.5143 H   0  0  0  0  0  0  0  0  0  0  0  0
   -0.3389   -1.0211    4.5737 H   0  0  0  0  0  0  0  0  0  0  0  0
  1  2  1  0  0  0  0
  2  3  1  0  0  0  0
  2  4  1  0  0  0  0
  2  5  1  0  0  0  0
  5  6  2  0  0  0  0
  5  7  1  0  0  0  0
  7  8  1  0  0  0  0
  7  9  1  0  0  0  0
  9 10  1  0  0  0  0
  9 11  1  0  0  0  0
  9 22  1  0  0  0  0
 11 12  1  0  0  0  0
 11 13  1  0  0  0  0
 11 14  1  0  0  0  0
 14 15  1  0  0  0  0
 14 16  1  0  0  0  0
 14 17  1  0  0  0  0
 17 18  1  0  0  0  0
 18 19  1  0  0  0  0
 18 20  1  0  0  0  0
 18 21  1  0  0  0  0
 22 23  2  0  0  0  0
 22 24  1  0  0  0  0
 24 25  1  0  0  0  0
 24 26  1  0  0  0  0
 26 27  1  0  0  0  0
 26 28  1  0  0  0  0
 26 29  1  0  0  0  0
M  END
$$$$

  -OEChem-04042216023D

 29 28  0     1  0  0  0  0  0999 V2000
   -3.3163   -3.9270   -0.4246 H   0  0  0  0  0  0  0  0  0  0  0  0
   -3.1436   -2.8504   -0.5113 C   0  0  0  0  0  0  0  0  0  0  0  0
   -3.7644   -2.3356    0.2257 H   0  0  0  0  0  0  0  0  0  0  0  0
   -3.4339   -2.5278   -1.5141 H   0  0  0  0  0  0  0  0  0  0  0  0
   -1.6790   -2.5379   -0.2681 C   0  0  0  0  0  0  0  0  0  0  0  0
   -0.8983   -3.4434   -0.0415 O   0  0  0  0  0  0  0  0  0  0  0  0
   -1.2416   -1.2282   -0.3139 N   0  0  0  0  0  0  0  0  0  0  0  0
   -1.9356   -0.5202   -0.5294 H   0  0  0  0  0  0  0  0  0  0  0  0
    0.1536   -0.8024   -0.0801 C   0  0  1  0  0  0  0  0  0  0  0  0
    0.7661   -1.4083   -0.7586 H   0  0  0  0  0  0  0  0  0  0  0  0
    0.2878    0.6586   -0.6055 C   0  0  0  0  0  0  0  0  0  0  0  0
    1.2367    0.6759   -1.1525 H   0  0  0  0  0  0  0  0  0  0  0  0
   -0.4945    0.8482   -1.3473 H   0  0  0  0  0  0  0  0  0  0  0  0
    0.3563    1.8822    0.3371 C   0  0  0  0  0  0  0  0  0  0  0  0
    0.6574    2.7522   -0.2553 H   0  0  0  0  0  0  0  0  0  0  0  0
   -0.6554    2.0745    0.7072 H   0  0  0  0  0  0  0  0  0  0  0  0
    1.4612    1.7776    1.8005 S   0  0  0  0  0  0  0  0  0  0  0  0
    1.2066    3.4192    2.5802 C   0  0  0  0  0  0  0  0  0  0  0  0
    1.4916    4.2166    1.8875 H   0  0  0  0  0  0  0  0  0  0  0  0
    1.8201    3.5039    3.4823 H   0  0  0  0  0  0  0  0  0  0  0  0
    0.1564    3.5497    2.8572 H   0  0  0  0  0  0  0  0  0  0  0  0
    0.6950   -1.1727    1.3217 C   0  0  0  0  0  0  0  0  0  0  0  0
    1.8415   -1.5849    1.4453 O   0  0  0  0  0  0  0  0  0  0  0  0
   -0.0761   -0.9622    2.4524 N   0  0  0  0  0  0  0  0  0  0  0  0
   -1.0194   -0.6204    2.3138 H   0  0  0  0  0  0  0  0  0  0  0  0
    0.3935   -1.2456    3.8019 C   0  0  0  0  0  0  0  0  0  0  0  0
   -0.3912   -1.0234    4.5309 H   0  0  0  0  0  0  0  0  0  0  0  0
    0.6666   -2.3018    3.8976 H   0  0  0  0  0  0  0  0  0  0  0  0
    1.2695   -0.6320    4.0376 H   0  0  0  0  0  0  0  0  0  0  0  0
  1  2  1  0  0  0  0
  2  3  1  0  0  0  0
  2  4  1  0  0  0  0
  2  5  1  0  0  0  0
  5  6  2  0  0  0  0
  5  7  1  0  0  0  0
  7  8  1  0  0  0  0
  7  9  1  0  0  0  0
  9 10  1  0  0  0  0
  9 11  1  0  0  0  0
  9 22  1  0  0  0  0
 11 12  1  0  0  0  0
 11 13  1  0  0  0  0
 11 14  1  0  0  0  0
 14 15  1  0  0  0  0
 14 16  1  0  0  0  0
 14 17  1  0  0  0  0
 17 18  1  0  0  0  0
 18 19  1  0  0  0  0
 18 20  1  0  0  0  0
 18 21  1  0  0  0  0
 22 23  2  0  0  0  0
 22 24  1  0  0  0  0
 24 25  1  0  0  0  0
 24 26  1  0  0  0  0
 26 27  1  0  0  0  0
 26 28  1  0  0  0  0
 26 29  1  0  0  0  0
M  END
$$$$

  -OEChem-04042216023D

 29 28  0     1  0  0  0  0  0999 V2000
   -3.3026   -4.0224    0.7852 H   0  0  0  0  0  0  0  0  0  0  0  0
   -3.0886   -3.0592    0.3128 C   0  0  0  0  0  0  0  0  0  0  0  0
   -3.7544   -2.3040    0.7375 H   0  0  0  0  0  0  0  0  0  0  0  0
   -3.2803   -3.1448   -0.7596 H   0  0  0  0  0  0  0  0  0  0  0  0
   -1.6414   -2.6718    0.5535 C   0  0  0  0  0  0  0  0  0  0  0  0
   -0.9288   -3.3895    1.2298 O   0  0  0  0  0  0  0  0  0  0  0  0
   -1.1451   -1.5051    0.0049 N   0  0  0  0  0  0  0  0  0  0  0  0
   -1.7680   -0.9933   -0.6113 H   0  0  0  0  0  0  0  0  0  0  0  0
    0.2667   -1.0770    0.0893 C   0  0  1  0  0  0  0  0  0  0  0  0
    0.8677   -1.9001   -0.3148 H   0  0  0  0  0  0  0  0  0  0  0  0
    0.4506    0.1202   -0.8853 C   0  0  0  0  0  0  0  0  0  0  0  0
    1.3719   -0.0544   -1.4516 H   0  0  0  0  0  0  0  0  0  0  0  0
   -0.3651    0.1245   -1.6149 H   0  0  0  0  0  0  0  0  0  0  0  0
    0.5598    1.5262   -0.2712 C   0  0  0  0  0  0  0  0  0  0  0  0
    0.4190    2.2698   -1.0619 H   0  0  0  0  0  0  0  0  0  0  0  0
   -0.2356    1.6740    0.4650 H   0  0  0  0  0  0  0  0  0  0  0  0
    2.1980    1.8243    0.5059 S   0  0  0  0  0  0  0  0  0  0  0  0
    1.9585    3.4773    1.2650 C   0  0  0  0  0  0  0  0  0  0  0  0
    1.7045    4.2145    0.4980 H   0  0  0  0  0  0  0  0  0  0  0  0
    2.8783    3.7947    1.7653 H   0  0  0  0  0  0  0  0  0  0  0  0
    1.1531    3.4420    2.0044 H   0  0  0  0  0  0  0  0  0  0  0  0
    0.7896   -0.8801    1.5341 C   0  0  0  0  0  0  0  0  0  0  0  0
    1.9162   -1.2509    1.8369 O   0  0  0  0  0  0  0  0  0  0  0  0
    0.0234   -0.2050    2.4689 N   0  0  0  0  0  0  0  0  0  0  0  0
   -0.9480   -0.0481    2.2270 H   0  0  0  0  0  0  0  0  0  0  0  0
    0.4470   -0.0244    3.8507 C   0  0  0  0  0  0  0  0  0  0  0  0
    1.3963    0.5203    3.8901 H   0  0  0  0  0  0  0  0  0  0  0  0
   -0.3019    0.5483    4.4055 H   0  0  0  0  0  0  0  0  0  0  0  0
    0.5770   -0.9950    4.3408 H   0  0  0  0  0  0  0  0  0  0  0  0
  1  2  1  0  0  0  0
  2  3  1  0  0  0  0
  2  4  1  0  0  0  0
  2  5  1  0  0  0  0
  5  6  2  0  0  0  0
  5  7  1  0  0  0  0
  7  8  1  0  0  0  0
  7  9  1  0  0  0  0
  9 10  1  0  0  0  0
  9 11  1  0  0  0  0
  9 22  1  0  0  0  0
 11 12  1  0  0  0  0
 11 13  1  0  0  0  0
 11 14  1  0  0  0  0
 14 15  1  0  0  0  0
 14 16  1  0  0  0  0
 14 17  1  0  0  0  0
 17 18  1  0  0  0  0
 18 19  1  0  0  0  0
 18 20  1  0  0  0  0
 18 21  1  0  0  0  0
 22 23  2  0  0  0  0
 22 24  1  0  0  0  0
 24 25  1  0  0  0  0
 24 26  1  0  0  0  0
 26 27  1  0  0  0  0
 26 28  1  0  0  0  0
 26 29  1  0  0  0  0
M  END
$$$$

  -OEChem-04042216023D

 29 28  0     1  0  0  0  0  0999 V2000
   -2.7612   -4.0709    0.4754 H   0  0  0  0  0  0  0  0  0  0  0  0
   -2.6695   -3.0797    0.0219 C   0  0  0  0  0  0  0  0  0  0  0  0
   -3.4840   -2.4502    0.3877 H   0  0  0  0  0  0  0  0  0  0  0  0
   -2.7530   -3.1816   -1.0626 H   0  0  0  0  0  0  0  0  0  0  0  0
   -1.3312   -2.4636    0.3841 C   0  0  0  0  0  0  0  0  0  0  0  0
   -0.5465   -3.0872    1.0735 O   0  0  0  0  0  0  0  0  0  0  0  0
   -1.0106   -1.2008   -0.0761 N   0  0  0  0  0  0  0  0  0  0  0  0
   -1.6798   -0.7603   -0.6991 H   0  0  0  0  0  0  0  0  0  0  0  0
    0.2840   -0.5280    0.1599 C   0  0  1  0  0  0  0  0  0  0  0  0
    1.0648   -1.2026   -0.2101 H   0  0  0  0  0  0  0  0  0  0  0  0
    0.3137    0.7304   -0.7555 C   0  0  0  0  0  0  0  0  0  0  0  0
    1.2766    0.7546   -1.2738 H   0  0  0  0  0  0  0  0  0  0  0  0
   -0.4405    0.6145   -1.5403 H   0  0  0  0  0  0  0  0  0  0  0  0
    0.0996    2.1095   -0.1020 C   0  0  0  0  0  0  0  0  0  0  0  0
   -0.3704    2.7607   -0.8458 H   0  0  0  0  0  0  0  0  0  0  0  0
   -0.6114    2.0218    0.7232 H   0  0  0  0  0  0  0  0  0  0  0  0
    1.6062    3.0025    0.4918 S   0  0  0  0  0  0  0  0  0  0  0  0
    3.0375    1.8816    0.7700 C   0  0  0  0  0  0  0  0  0  0  0  0
    3.0237    1.0293    0.0873 H   0  0  0  0  0  0  0  0  0  0  0  0
    3.9703    2.4314    0.6151 H   0  0  0  0  0  0  0  0  0  0  0  0
    3.0326    1.5151    1.7996 H   0  0  0  0  0  0  0  0  0  0  0  0
    0.6103   -0.3184    1.6595 C   0  0  0  0  0  0  0  0  0  0  0  0
    1.7280   -0.5758    2.0848 O   0  0  0  0  0  0  0  0  0  0  0  0
   -0.3519    0.1551    2.5343 N   0  0  0  0  0  0  0  0  0  0  0  0
   -1.3023    0.1936    2.1833 H   0  0  0  0  0  0  0  0  0  0  0  0
   -0.1270    0.2685    3.9695 C   0  0  0  0  0  0  0  0  0  0  0  0
    0.7463    0.8978    4.1718 H   0  0  0  0  0  0  0  0  0  0  0  0
   -0.9964    0.7223    4.4544 H   0  0  0  0  0  0  0  0  0  0  0  0
    0.0416   -0.7202    4.4091 H   0  0  0  0  0  0  0  0  0  0  0  0
  1  2  1  0  0  0  0
  2  3  1  0  0  0  0
  2  4  1  0  0  0  0
  2  5  1  0  0  0  0
  5  6  2  0  0  0  0
  5  7  1  0  0  0  0
  7  8  1  0  0  0  0
  7  9  1  0  0  0  0
  9 10  1  0  0  0  0
  9 11  1  0  0  0  0
  9 22  1  0  0  0  0
 11 12  1  0  0  0  0
 11 13  1  0  0  0  0
 11 14  1  0  0  0  0
 14 15  1  0  0  0  0
 14 16  1  0  0  0  0
 14 17  1  0  0  0  0
 17 18  1  0  0  0  0
 18 19  1  0  0  0  0
 18 20  1  0  0  0  0
 18 21  1  0  0  0  0
 22 23  2  0  0  0  0
 22 24  1  0  0  0  0
 24 25  1  0  0  0  0
 24 26  1  0  0  0  0
 26 27  1  0  0  0  0
 26 28  1  0  0  0  0
 26 29  1  0  0  0  0
M  END
$$$$

  -OEChem-04042216023D

 29 28  0     1  0  0  0  0  0999 V2000
   -2.7651   -4.0388    0.5655 H   0  0  0  0  0  0  0  0  0  0  0  0
   -2.7006   -3.0441    0.1152 C   0  0  0  0  0  0  0  0  0  0  0  0
   -3.4915   -2.4173    0.5337 H   0  0  0  0  0  0  0  0  0  0  0  0
   -2.8489   -3.1377   -0.9633 H   0  0  0  0  0  0  0  0  0  0  0  0
   -1.3429   -2.4303    0.4011 C   0  0  0  0  0  0  0  0  0  0  0  0
   -0.5315   -3.0420    1.0703 O   0  0  0  0  0  0  0  0  0  0  0  0
   -1.0373   -1.1794   -0.0995 N   0  0  0  0  0  0  0  0  0  0  0  0
   -1.7300   -0.7528   -0.7068 H   0  0  0  0  0  0  0  0  0  0  0  0
    0.2845   -0.5303    0.0223 C   0  0  1  0  0  0  0  0  0  0  0  0
    1.0162   -1.2333   -0.3932 H   0  0  0  0  0  0  0  0  0  0  0  0
    0.2791    0.7040   -0.9260 C   0  0  0  0  0  0  0  0  0  0  0  0
    1.2192    0.6856   -1.4873 H   0  0  0  0  0  0  0  0  0  0  0  0
   -0.5154    0.5824   -1.6691 H   0  0  0  0  0  0  0  0  0  0  0  0
    0.1458    2.1127   -0.3105 C   0  0  0  0  0  0  0  0  0  0  0  0
   -0.5702    2.6806   -0.9128 H   0  0  0  0  0  0  0  0  0  0  0  0
   -0.2642    2.0700    0.7002 H   0  0  0  0  0  0  0  0  0  0  0  0
    1.7228    3.0693   -0.2981 S   0  0  0  0  0  0  0  0  0  0  0  0
    2.9348    2.1560    0.7310 C   0  0  0  0  0  0  0  0  0  0  0  0
    3.1466    1.1763    0.2937 H   0  0  0  0  0  0  0  0  0  0  0  0
    3.8722    2.7164    0.7890 H   0  0  0  0  0  0  0  0  0  0  0  0
    2.5495    2.0225    1.7458 H   0  0  0  0  0  0  0  0  0  0  0  0
    0.7403   -0.3088    1.4859 C   0  0  0  0  0  0  0  0  0  0  0  0
    1.9013   -0.5227    1.8072 O   0  0  0  0  0  0  0  0  0  0  0  0
   -0.1371    0.1939    2.4309 N   0  0  0  0  0  0  0  0  0  0  0  0
   -1.1181    0.1922    2.1731 H   0  0  0  0  0  0  0  0  0  0  0  0
    0.2147    0.3251    3.8391 C   0  0  0  0  0  0  0  0  0  0  0  0
    1.0839    0.9806    3.9581 H   0  0  0  0  0  0  0  0  0  0  0  0
   -0.6199    0.7570    4.3994 H   0  0  0  0  0  0  0  0  0  0  0  0
    0.4512   -0.6550    4.2667 H   0  0  0  0  0  0  0  0  0  0  0  0
  1  2  1  0  0  0  0
  2  3  1  0  0  0  0
  2  4  1  0  0  0  0
  2  5  1  0  0  0  0
  5  6  2  0  0  0  0
  5  7  1  0  0  0  0
  7  8  1  0  0  0  0
  7  9  1  0  0  0  0
  9 10  1  0  0  0  0
  9 11  1  0  0  0  0
  9 22  1  0  0  0  0
 11 12  1  0  0  0  0
 11 13  1  0  0  0  0
 11 14  1  0  0  0  0
 14 15  1  0  0  0  0
 14 16  1  0  0  0  0
 14 17  1  0  0  0  0
 17 18  1  0  0  0  0
 18 19  1  0  0  0  0
 18 20  1  0  0  0  0
 18 21  1  0  0  0  0
 22 23  2  0  0  0  0
 22 24  1  0  0  0  0
 24 25  1  0  0  0  0
 24 26  1  0  0  0  0
 26 27  1  0  0  0  0
 26 28  1  0  0  0  0
 26 29  1  0  0  0  0
M  END
$$$$

  -OEChem-04042216023D

 29 28  0     1  0  0  0  0  0999 V2000
   -2.7214   -4.0701    0.5491 H   0  0  0  0  0  0  0  0  0  0  0  0
   -2.6821   -3.0717    0.1040 C   0  0  0  0  0  0  0  0  0  0  0  0
   -3.4826   -2.4641    0.5326 H   0  0  0  0  0  0  0  0  0  0  0  0
   -2.8380   -3.1625   -0.9736 H   0  0  0  0  0  0  0  0  0  0  0  0
   -1.3359   -2.4300    0.3819 C   0  0  0  0  0  0  0  0  0  0  0  0
   -0.5070   -3.0221    1.0480 O   0  0  0  0  0  0  0  0  0  0  0  0
   -1.0631   -1.1683   -0.1095 N   0  0  0  0  0  0  0  0  0  0  0  0
   -1.7658   -0.7558   -0.7153 H   0  0  0  0  0  0  0  0  0  0  0  0
    0.2498   -0.5014   -0.0056 C   0  0  1  0  0  0  0  0  0  0  0  0
    0.9722   -1.2083   -0.4306 H   0  0  0  0  0  0  0  0  0  0  0  0
    0.2658    0.7274   -0.9552 C   0  0  0  0  0  0  0  0  0  0  0  0
    1.2162    0.6942   -1.4980 H   0  0  0  0  0  0  0  0  0  0  0  0
   -0.5154    0.6156   -1.7137 H   0  0  0  0  0  0  0  0  0  0  0  0
    0.1372    2.1310   -0.3250 C   0  0  0  0  0  0  0  0  0  0  0  0
   -0.7495    2.6202   -0.7400 H   0  0  0  0  0  0  0  0  0  0  0  0
   -0.0018    2.0968    0.7558 H   0  0  0  0  0  0  0  0  0  0  0  0
    1.6029    3.1765   -0.7024 S   0  0  0  0  0  0  0  0  0  0  0  0
    2.9408    2.3968    0.2864 C   0  0  0  0  0  0  0  0  0  0  0  0
    3.1369    1.3804   -0.0669 H   0  0  0  0  0  0  0  0  0  0  0  0
    3.8622    2.9792    0.1959 H   0  0  0  0  0  0  0  0  0  0  0  0
    2.6577    2.3525    1.3423 H   0  0  0  0  0  0  0  0  0  0  0  0
    0.7580   -0.2787    1.4403 C   0  0  0  0  0  0  0  0  0  0  0  0
    1.9577   -0.3301    1.6765 O   0  0  0  0  0  0  0  0  0  0  0  0
   -0.0938    0.2046    2.4184 N   0  0  0  0  0  0  0  0  0  0  0  0
   -1.0864    0.1211    2.2255 H   0  0  0  0  0  0  0  0  0  0  0  0
    0.3351    0.4321    3.7927 C   0  0  0  0  0  0  0  0  0  0  0  0
    1.1455    1.1681    3.8245 H   0  0  0  0  0  0  0  0  0  0  0  0
   -0.4979    0.8118    4.3918 H   0  0  0  0  0  0  0  0  0  0  0  0
    0.6896   -0.5017    4.2418 H   0  0  0  0  0  0  0  0  0  0  0  0
  1  2  1  0  0  0  0
  2  3  1  0  0  0  0
  2  4  1  0  0  0  0
  2  5  1  0  0  0  0
  5  6  2  0  0  0  0
  5  7  1  0  0  0  0
  7  8  1  0  0  0  0
  7  9  1  0  0  0  0
  9 10  1  0  0  0  0
  9 11  1  0  0  0  0
  9 22  1  0  0  0  0
 11 12  1  0  0  0  0
 11 13  1  0  0  0  0
 11 14  1  0  0  0  0
 14 15  1  0  0  0  0
 14 16  1  0  0  0  0
 14 17  1  0  0  0  0
 17 18  1  0  0  0  0
 18 19  1  0  0  0  0
 18 20  1  0  0  0  0
 18 21  1  0  0  0  0
 22 23  2  0  0  0  0
 22 24  1  0  0  0  0
 24 25  1  0  0  0  0
 24 26  1  0  0  0  0
 26 27  1  0  0  0  0
 26 28  1  0  0  0  0
 26 29  1  0  0  0  0
M  END
$$$$

  -OEChem-04042216023D

 29 28  0     1  0  0  0  0  0999 V2000
   -2.7042   -4.0956    0.5406 H   0  0  0  0  0  0  0  0  0  0  0  0
   -2.6798   -3.0963    0.0963 C   0  0  0  0  0  0  0  0  0  0  0  0
   -3.4908   -2.5017    0.5235 H   0  0  0  0  0  0  0  0  0  0  0  0
   -2.8320   -3.1891   -0.9818 H   0  0  0  0  0  0  0  0  0  0  0  0
   -1.3446   -2.4336    0.3781 C   0  0  0  0  0  0  0  0  0  0  0  0
   -0.5074   -3.0131    1.0453 O   0  0  0  0  0  0  0  0  0  0  0  0
   -1.0883   -1.1681   -0.1120 N   0  0  0  0  0  0  0  0  0  0  0  0
   -1.7972   -0.7633   -0.7161 H   0  0  0  0  0  0  0  0  0  0  0  0
    0.2221   -0.4950   -0.0247 C   0  0  1  0  0  0  0  0  0  0  0  0
    0.9373   -1.2018   -0.4616 H   0  0  0  0  0  0  0  0  0  0  0  0
    0.2349    0.7363   -0.9670 C   0  0  0  0  0  0  0  0  0  0  0  0
    1.1925    0.6999   -1.4963 H   0  0  0  0  0  0  0  0  0  0  0  0
   -0.5379    0.6342   -1.7349 H   0  0  0  0  0  0  0  0  0  0  0  0
    0.1145    2.1336   -0.3214 C   0  0  0  0  0  0  0  0  0  0  0  0
   -0.8977    2.5177   -0.4812 H   0  0  0  0  0  0  0  0  0  0  0  0
    0.2876    2.1220    0.7552 H   0  0  0  0  0  0  0  0  0  0  0  0
    1.3371    3.2871   -1.0630 S   0  0  0  0  0  0  0  0  0  0  0  0
    2.8849    2.7426   -0.2317 C   0  0  0  0  0  0  0  0  0  0  0  0
    3.1058    1.6987   -0.4732 H   0  0  0  0  0  0  0  0  0  0  0  0
    3.7254    3.3615   -0.5585 H   0  0  0  0  0  0  0  0  0  0  0  0
    2.7847    2.8328    0.8542 H   0  0  0  0  0  0  0  0  0  0  0  0
    0.7626   -0.2702    1.4080 C   0  0  0  0  0  0  0  0  0  0  0  0
    1.9723   -0.2281    1.5915 O   0  0  0  0  0  0  0  0  0  0  0  0
   -0.0754    0.2074    2.4008 N   0  0  0  0  0  0  0  0  0  0  0  0
   -1.0691    0.0732    2.2445 H   0  0  0  0  0  0  0  0  0  0  0  0
    0.3871    0.4869    3.7547 C   0  0  0  0  0  0  0  0  0  0  0  0
    1.1675    1.2552    3.7429 H   0  0  0  0  0  0  0  0  0  0  0  0
   -0.4417    0.8485    4.3708 H   0  0  0  0  0  0  0  0  0  0  0  0
    0.7928   -0.4205    4.2148 H   0  0  0  0  0  0  0  0  0  0  0  0
  1  2  1  0  0  0  0
  2  3  1  0  0  0  0
  2  4  1  0  0  0  0
  2  5  1  0  0  0  0
  5  6  2  0  0  0  0
  5  7  1  0  0  0  0
  7  8  1  0  0  0  0
  7  9  1  0  0  0  0
  9 10  1  0  0  0  0
  9 11  1  0  0  0  0
  9 22  1  0  0  0  0
 11 12  1  0  0  0  0
 11 13  1  0  0  0  0
 11 14  1  0  0  0  0
 14 15  1  0  0  0  0
 14 16  1  0  0  0  0
 14 17  1  0  0  0  0
 17 18  1  0  0  0  0
 18 19  1  0  0  0  0
 18 20  1  0  0  0  0
 18 21  1  0  0  0  0
 22 23  2  0  0  0  0
 22 24  1  0  0  0  0
 24 25  1  0  0  0  0
 24 26  1  0  0  0  0
 26 27  1  0  0  0  0
 26 28  1  0  0  0  0
 26 29  1  0  0  0  0
M  END
$$$$

  -OEChem-04042216023D

 29 28  0     1  0  0  0  0  0999 V2000
   -2.7006   -4.0979    0.5636 H   0  0  0  0  0  0  0  0  0  0  0  0
   -2.6757   -3.1018    0.1121 C   0  0  0  0  0  0  0  0  0  0  0  0
   -3.4861   -2.5035    0.5352 H   0  0  0  0  0  0  0  0  0  0  0  0
   -2.8281   -3.2020   -0.9653 H   0  0  0  0  0  0  0  0  0  0  0  0
   -1.3401   -2.4377    0.3886 C   0  0  0  0  0  0  0  0  0  0  0  0
   -0.5038   -3.0122    1.0613 O   0  0  0  0  0  0  0  0  0  0  0  0
   -1.0834   -1.1765   -0.1126 N   0  0  0  0  0  0  0  0  0  0  0  0
   -1.7875   -0.7823   -0.7293 H   0  0  0  0  0  0  0  0  0  0  0  0
    0.2275   -0.5032   -0.0313 C   0  0  1  0  0  0  0  0  0  0  0  0
    0.9476   -1.2006   -0.4754 H   0  0  0  0  0  0  0  0  0  0  0  0
    0.2120    0.7408   -0.9566 C   0  0  0  0  0  0  0  0  0  0  0  0
    1.1655    0.7245   -1.4935 H   0  0  0  0  0  0  0  0  0  0  0  0
   -0.5695    0.6467   -1.7171 H   0  0  0  0  0  0  0  0  0  0  0  0
    0.0927    2.1215   -0.2807 C   0  0  0  0  0  0  0  0  0  0  0  0
   -0.9631    2.3796   -0.1550 H   0  0  0  0  0  0  0  0  0  0  0  0
    0.5598    2.1424    0.7064 H   0  0  0  0  0  0  0  0  0  0  0  0
    0.9423    3.3940   -1.2980 S   0  0  0  0  0  0  0  0  0  0  0  0
    2.7024    3.1243   -0.8403 C   0  0  0  0  0  0  0  0  0  0  0  0
    3.0226    2.1157   -1.1169 H   0  0  0  0  0  0  0  0  0  0  0  0
    3.3398    3.8467   -1.3587 H   0  0  0  0  0  0  0  0  0  0  0  0
    2.8374    3.2494    0.2383 H   0  0  0  0  0  0  0  0  0  0  0  0
    0.7593   -0.2707    1.4030 C   0  0  0  0  0  0  0  0  0  0  0  0
    1.9675   -0.2337    1.5960 O   0  0  0  0  0  0  0  0  0  0  0  0
   -0.0867    0.2138    2.3855 N   0  0  0  0  0  0  0  0  0  0  0  0
   -1.0792    0.0839    2.2190 H   0  0  0  0  0  0  0  0  0  0  0  0
    0.3624    0.4942    3.7437 C   0  0  0  0  0  0  0  0  0  0  0  0
    1.1475    1.2577    3.7390 H   0  0  0  0  0  0  0  0  0  0  0  0
   -0.4712    0.8620    4.3495 H   0  0  0  0  0  0  0  0  0  0  0  0
    0.7573   -0.4143    4.2106 H   0  0  0  0  0  0  0  0  0  0  0  0
  1  2  1  0  0  0  0
  2  3  1  0  0  0  0
  2  4  1  0  0  0  0
  2  5  1  0  0  0  0
  5  6  2  0  0  0  0
  5  7  1  0  0  0  0
  7  8  1  0  0  0  0
  7  9  1  0  0  0  0
  9 10  1  0  0  0  0
  9 11  1  0  0  0  0
  9 22  1  0  0  0  0
 11 12  1  0  0  0  0
 11 13  1  0  0  0  0
 11 14  1  0  0  0  0
 14 15  1  0  0  0  0
 14 16  1  0  0  0  0
 14 17  1  0  0  0  0
 17 18  1  0  0  0  0
 18 19  1  0  0  0  0
 18 20  1  0  0  0  0
 18 21  1  0  0  0  0
 22 23  2  0  0  0  0
 22 24  1  0  0  0  0
 24 25  1  0  0  0  0
 24 26  1  0  0  0  0
 26 27  1  0  0  0  0
 26 28  1  0  0  0  0
 26 29  1  0  0  0  0
M  END
$$$$

  -OEChem-04042216023D

 29 28  0     1  0  0  0  0  0999 V2000
   -2.6914   -4.1028    0.5719 H   0  0  0  0  0  0  0  0  0  0  0  0
   -2.6659   -3.1098    0.1142 C   0  0  0  0  0  0  0  0  0  0  0  0
   -3.4784   -2.5098    0.5307 H   0  0  0  0  0  0  0  0  0  0  0  0
   -2.8149   -3.2169   -0.9629 H   0  0  0  0  0  0  0  0  0  0  0  0
   -1.3317   -2.4425    0.3903 C   0  0  0  0  0  0  0  0  0  0  0  0
   -0.4932   -3.0142    1.0625 O   0  0  0  0  0  0  0  0  0  0  0  0
   -1.0772   -1.1825   -0.1148 N   0  0  0  0  0  0  0  0  0  0  0  0
   -1.7836   -0.7892   -0.7295 H   0  0  0  0  0  0  0  0  0  0  0  0
    0.2309   -0.5040   -0.0329 C   0  0  1  0  0  0  0  0  0  0  0  0
    0.9572   -1.1921   -0.4815 H   0  0  0  0  0  0  0  0  0  0  0  0
    0.1988    0.7493   -0.9434 C   0  0  0  0  0  0  0  0  0  0  0  0
    1.1449    0.7563   -1.4929 H   0  0  0  0  0  0  0  0  0  0  0  0
   -0.5963    0.6626   -1.6905 H   0  0  0  0  0  0  0  0  0  0  0  0
    0.0747    2.1057   -0.2291 C   0  0  0  0  0  0  0  0  0  0  0  0
   -0.9451    2.2339    0.1469 H   0  0  0  0  0  0  0  0  0  0  0  0
    0.7606    2.1767    0.6205 H   0  0  0  0  0  0  0  0  0  0  0  0
    0.4932    3.4634   -1.3948 S   0  0  0  0  0  0  0  0  0  0  0  0
    2.3313    3.4377   -1.3904 C   0  0  0  0  0  0  0  0  0  0  0  0
    2.7050    2.4830   -1.7709 H   0  0  0  0  0  0  0  0  0  0  0  0
    2.7179    4.2401   -2.0254 H   0  0  0  0  0  0  0  0  0  0  0  0
    2.7101    3.5826   -0.3742 H   0  0  0  0  0  0  0  0  0  0  0  0
    0.7565   -0.2648    1.4029 C   0  0  0  0  0  0  0  0  0  0  0  0
    1.9637   -0.2275    1.6013 O   0  0  0  0  0  0  0  0  0  0  0  0
   -0.0946    0.2202    2.3806 N   0  0  0  0  0  0  0  0  0  0  0  0
   -1.0857    0.0805    2.2133 H   0  0  0  0  0  0  0  0  0  0  0  0
    0.3499    0.5140    3.7374 C   0  0  0  0  0  0  0  0  0  0  0  0
    1.1334    1.2791    3.7278 H   0  0  0  0  0  0  0  0  0  0  0  0
   -0.4861    0.8863    4.3371 H   0  0  0  0  0  0  0  0  0  0  0  0
    0.7453   -0.3892    4.2141 H   0  0  0  0  0  0  0  0  0  0  0  0
  1  2  1  0  0  0  0
  2  3  1  0  0  0  0
  2  4  1  0  0  0  0
  2  5  1  0  0  0  0
  5  6  2  0  0  0  0
  5  7  1  0  0  0  0
  7  8  1  0  0  0  0
  7  9  1  0  0  0  0
  9 10  1  0  0  0  0
  9 11  1  0  0  0  0
  9 22  1  0  0  0  0
 11 12  1  0  0  0  0
 11 13  1  0  0  0  0
 11 14  1  0  0  0  0
 14 15  1  0  0  0  0
 14 16  1  0  0  0  0
 14 17  1  0  0  0  0
 17 18  1  0  0  0  0
 18 19  1  0  0  0  0
 18 20  1  0  0  0  0
 18 21  1  0  0  0  0
 22 23  2  0  0  0  0
 22 24  1  0  0  0  0
 24 25  1  0  0  0  0
 24 26  1  0  0  0  0
 26 27  1  0  0  0  0
 26 28  1  0  0  0  0
 26 29  1  0  0  0  0
M  END
$$$$

  -OEChem-04042216023D

 29 28  0     1  0  0  0  0  0999 V2000
   -2.6644   -4.0937    0.5806 H   0  0  0  0  0  0  0  0  0  0  0  0
   -2.6434   -3.1002    0.1237 C   0  0  0  0  0  0  0  0  0  0  0  0
   -3.4494   -2.4998    0.5520 H   0  0  0  0  0  0  0  0  0  0  0  0
   -2.8068   -3.2056   -0.9515 H   0  0  0  0  0  0  0  0  0  0  0  0
   -1.3047   -2.4353    0.3830 C   0  0  0  0  0  0  0  0  0  0  0  0
   -0.4561   -3.0124    1.0376 O   0  0  0  0  0  0  0  0  0  0  0  0
   -1.0570   -1.1733   -0.1200 N   0  0  0  0  0  0  0  0  0  0  0  0
   -1.7743   -0.7739   -0.7179 H   0  0  0  0  0  0  0  0  0  0  0  0
    0.2462   -0.4845   -0.0367 C   0  0  1  0  0  0  0  0  0  0  0  0
    0.9859   -1.1574   -0.4861 H   0  0  0  0  0  0  0  0  0  0  0  0
    0.1982    0.7843   -0.9291 C   0  0  0  0  0  0  0  0  0  0  0  0
    0.9707    0.6760   -1.6960 H   0  0  0  0  0  0  0  0  0  0  0  0
   -0.7619    0.8404   -1.4518 H   0  0  0  0  0  0  0  0  0  0  0  0
    0.4306    2.1192   -0.2059 C   0  0  0  0  0  0  0  0  0  0  0  0
   -0.3361    2.2665    0.5608 H   0  0  0  0  0  0  0  0  0  0  0  0
    1.4102    2.1304    0.2846 H   0  0  0  0  0  0  0  0  0  0  0  0
    0.3384    3.5045   -1.4097 S   0  0  0  0  0  0  0  0  0  0  0  0
    1.9612    3.4017   -2.2656 C   0  0  0  0  0  0  0  0  0  0  0  0
    2.0500    2.4574   -2.8099 H   0  0  0  0  0  0  0  0  0  0  0  0
    2.0601    4.2251   -2.9793 H   0  0  0  0  0  0  0  0  0  0  0  0
    2.7773    3.4682   -1.5399 H   0  0  0  0  0  0  0  0  0  0  0  0
    0.7552   -0.2496    1.4069 C   0  0  0  0  0  0  0  0  0  0  0  0
    1.9596   -0.2276    1.6246 O   0  0  0  0  0  0  0  0  0  0  0  0
   -0.1080    0.2236    2.3795 N   0  0  0  0  0  0  0  0  0  0  0  0
   -1.0980    0.1019    2.1928 H   0  0  0  0  0  0  0  0  0  0  0  0
    0.3181    0.4964    3.7464 C   0  0  0  0  0  0  0  0  0  0  0  0
    1.1034    1.2595    3.7588 H   0  0  0  0  0  0  0  0  0  0  0  0
   -0.5255    0.8622    4.3394 H   0  0  0  0  0  0  0  0  0  0  0  0
    0.7046   -0.4148    4.2153 H   0  0  0  0  0  0  0  0  0  0  0  0
  1  2  1  0  0  0  0
  2  3  1  0  0  0  0
  2  4  1  0  0  0  0
  2  5  1  0  0  0  0
  5  6  2  0  0  0  0
  5  7  1  0  0  0  0
  7  8  1  0  0  0  0
  7  9  1  0  0  0  0
  9 10  1  0  0  0  0
  9 11  1  0  0  0  0
  9 22  1  0  0  0  0
 11 12  1  0  0  0  0
 11 13  1  0  0  0  0
 11 14  1  0  0  0  0
 14 15  1  0  0  0  0
 14 16  1  0  0  0  0
 14 17  1  0  0  0  0
 17 18  1  0  0  0  0
 18 19  1  0  0  0  0
 18 20  1  0  0  0  0
 18 21  1  0  0  0  0
 22 23  2  0  0  0  0
 22 24  1  0  0  0  0
 24 25  1  0  0  0  0
 24 26  1  0  0  0  0
 26 27  1  0  0  0  0
 26 28  1  0  0  0  0
 26 29  1  0  0  0  0
M  END
$$$$

  -OEChem-04042216023D

 29 28  0     1  0  0  0  0  0999 V2000
   -2.6332   -4.0947    0.5398 H   0  0  0  0  0  0  0  0  0  0  0  0
   -2.6260   -3.0911    0.1051 C   0  0  0  0  0  0  0  0  0  0  0  0
   -3.4286   -2.5056    0.5599 H   0  0  0  0  0  0  0  0  0  0  0  0
   -2.8064   -3.1731   -0.9693 H   0  0  0  0  0  0  0  0  0  0  0  0
   -1.2873   -2.4240    0.3578 C   0  0  0  0  0  0  0  0  0  0  0  0
   -0.4258   -3.0105    0.9868 O   0  0  0  0  0  0  0  0  0  0  0  0
   -1.0545   -1.1481   -0.1165 N   0  0  0  0  0  0  0  0  0  0  0  0
   -1.7864   -0.7302   -0.6834 H   0  0  0  0  0  0  0  0  0  0  0  0
    0.2407   -0.4472   -0.0168 C   0  0  1  0  0  0  0  0  0  0  0  0
    0.9839   -1.1142   -0.4693 H   0  0  0  0  0  0  0  0  0  0  0  0
    0.2097    0.8249   -0.9049 C   0  0  0  0  0  0  0  0  0  0  0  0
    0.9861    0.7260   -1.6701 H   0  0  0  0  0  0  0  0  0  0  0  0
   -0.7494    0.8765   -1.4297 H   0  0  0  0  0  0  0  0  0  0  0  0
    0.4269    2.1589   -0.1749 C   0  0  0  0  0  0  0  0  0  0  0  0
   -0.1970    2.2047    0.7217 H   0  0  0  0  0  0  0  0  0  0  0  0
    1.4731    2.2646    0.1328 H   0  0  0  0  0  0  0  0  0  0  0  0
   -0.0735    3.5547   -1.2608 S   0  0  0  0  0  0  0  0  0  0  0  0
    1.2831    3.5956   -2.4989 C   0  0  0  0  0  0  0  0  0  0  0  0
    1.2967    2.6719   -3.0841 H   0  0  0  0  0  0  0  0  0  0  0  0
    1.1412    4.4383   -3.1821 H   0  0  0  0  0  0  0  0  0  0  0  0
    2.2493    3.7103   -1.9984 H   0  0  0  0  0  0  0  0  0  0  0  0
    0.7517   -0.2371    1.4298 C   0  0  0  0  0  0  0  0  0  0  0  0
    1.9566   -0.2013    1.6418 O   0  0  0  0  0  0  0  0  0  0  0  0
   -0.1113    0.2050    2.4171 N   0  0  0  0  0  0  0  0  0  0  0  0
   -1.1011    0.0823    2.2306 H   0  0  0  0  0  0  0  0  0  0  0  0
    0.3180    0.4433    3.7895 C   0  0  0  0  0  0  0  0  0  0  0  0
    1.0918    1.2175    3.8210 H   0  0  0  0  0  0  0  0  0  0  0  0
   -0.5274    0.7775    4.3983 H   0  0  0  0  0  0  0  0  0  0  0  0
    0.7212   -0.4755    4.2287 H   0  0  0  0  0  0  0  0  0  0  0  0
  1  2  1  0  0  0  0
  2  3  1  0  0  0  0
  2  4  1  0  0  0  0
  2  5  1  0  0  0  0
  5  6  2  0  0  0  0
  5  7  1  0  0  0  0
  7  8  1  0  0  0  0
  7  9  1  0  0  0  0
  9 10  1  0  0  0  0
  9 11  1  0  0  0  0
  9 22  1  0  0  0  0
 11 12  1  0  0  0  0
 11 13  1  0  0  0  0
 11 14  1  0  0  0  0
 14 15  1  0  0  0  0
 14 16  1  0  0  0  0
 14 17  1  0  0  0  0
 17 18  1  0  0  0  0
 18 19  1  0  0  0  0
 18 20  1  0  0  0  0
 18 21  1  0  0  0  0
 22 23  2  0  0  0  0
 22 24  1  0  0  0  0
 24 25  1  0  0  0  0
 24 26  1  0  0  0  0
 26 27  1  0  0  0  0
 26 28  1  0  0  0  0
 26 29  1  0  0  0  0
M  END
$$$$

  -OEChem-04042216023D

 29 28  0     1  0  0  0  0  0999 V2000
   -2.6397   -4.0815    0.5108 H   0  0  0  0  0  0  0  0  0  0  0  0
   -2.6308   -3.0719    0.0905 C   0  0  0  0  0  0  0  0  0  0  0  0
   -3.4239   -2.4880    0.5632 H   0  0  0  0  0  0  0  0  0  0  0  0
   -2.8242   -3.1369   -0.9828 H   0  0  0  0  0  0  0  0  0  0  0  0
   -1.2848   -2.4167    0.3360 C   0  0  0  0  0  0  0  0  0  0  0  0
   -0.4125   -3.0232    0.9304 O   0  0  0  0  0  0  0  0  0  0  0  0
   -1.0563   -1.1291   -0.1076 N   0  0  0  0  0  0  0  0  0  0  0  0
   -1.8034   -0.6857   -0.6338 H   0  0  0  0  0  0  0  0  0  0  0  0
    0.2373   -0.4267    0.0033 C   0  0  1  0  0  0  0  0  0  0  0  0
    0.9772   -1.0905   -0.4591 H   0  0  0  0  0  0  0  0  0  0  0  0
    0.2165    0.8526   -0.8765 C   0  0  0  0  0  0  0  0  0  0  0  0
    0.9932    0.7581   -1.6421 H   0  0  0  0  0  0  0  0  0  0  0  0
   -0.7410    0.8973   -1.4049 H   0  0  0  0  0  0  0  0  0  0  0  0
    0.4283    2.1954   -0.1541 C   0  0  0  0  0  0  0  0  0  0  0  0
    0.0090    2.1693    0.8538 H   0  0  0  0  0  0  0  0  0  0  0  0
    1.4970    2.4185   -0.0662 H   0  0  0  0  0  0  0  0  0  0  0  0
   -0.4591    3.5350   -1.0473 S   0  0  0  0  0  0  0  0  0  0  0  0
    0.5583    3.7239   -2.5648 C   0  0  0  0  0  0  0  0  0  0  0  0
    0.5557    2.7972   -3.1456 H   0  0  0  0  0  0  0  0  0  0  0  0
    0.1553    4.5277   -3.1880 H   0  0  0  0  0  0  0  0  0  0  0  0
    1.5907    3.9714   -2.3000 H   0  0  0  0  0  0  0  0  0  0  0  0
    0.7571   -0.2482    1.4506 C   0  0  0  0  0  0  0  0  0  0  0  0
    1.9635   -0.2062    1.6537 O   0  0  0  0  0  0  0  0  0  0  0  0
   -0.1005    0.1679    2.4539 N   0  0  0  0  0  0  0  0  0  0  0  0
   -1.0919    0.0530    2.2707 H   0  0  0  0  0  0  0  0  0  0  0  0
    0.3381    0.3895    3.8259 C   0  0  0  0  0  0  0  0  0  0  0  0
    1.1001    1.1750    3.8632 H   0  0  0  0  0  0  0  0  0  0  0  0
   -0.5068    0.7000    4.4478 H   0  0  0  0  0  0  0  0  0  0  0  0
    0.7593   -0.5303    4.2455 H   0  0  0  0  0  0  0  0  0  0  0  0
  1  2  1  0  0  0  0
  2  3  1  0  0  0  0
  2  4  1  0  0  0  0
  2  5  1  0  0  0  0
  5  6  2  0  0  0  0
  5  7  1  0  0  0  0
  7  8  1  0  0  0  0
  7  9  1  0  0  0  0
  9 10  1  0  0  0  0
  9 11  1  0  0  0  0
  9 22  1  0  0  0  0
 11 12  1  0  0  0  0
 11 13  1  0  0  0  0
 11 14  1  0  0  0  0
 14 15  1  0  0  0  0
 14 16  1  0  0  0  0
 14 17  1  0  0  0  0
 17 18  1  0  0  0  0
 18 19  1  0  0  0  0
 18 20  1  0  0  0  0
 18 21  1  0  0  0  0
 22 23  2  0  0  0  0
 22 24  1  0  0  0  0
 24 25  1  0  0  0  0
 24 26  1  0  0  0  0
 26 27  1  0  0  0  0
 26 28  1  0  0  0  0
 26 29  1  0  0  0  0
M  END
$$$$

  -OEChem-04042216023D

 29 28  0     1  0  0  0  0  0999 V2000
   -2.6626   -4.0568    0.5269 H   0  0  0  0  0  0  0  0  0  0  0  0
   -2.6447   -3.0466    0.1082 C   0  0  0  0  0  0  0  0  0  0  0  0
   -3.4151   -2.4492    0.6014 H   0  0  0  0  0  0  0  0  0  0  0  0
   -2.8655   -3.1053   -0.9602 H   0  0  0  0  0  0  0  0  0  0  0  0
   -1.2806   -2.4181    0.3226 C   0  0  0  0  0  0  0  0  0  0  0  0
   -0.4009   -3.0494    0.8793 O   0  0  0  0  0  0  0  0  0  0  0  0
   -1.0451   -1.1261   -0.1043 N   0  0  0  0  0  0  0  0  0  0  0  0
   -1.8051   -0.6541   -0.5855 H   0  0  0  0  0  0  0  0  0  0  0  0
    0.2524   -0.4316    0.0109 C   0  0  1  0  0  0  0  0  0  0  0  0
    0.9891   -1.0915   -0.4623 H   0  0  0  0  0  0  0  0  0  0  0  0
    0.2244    0.8574   -0.8580 C   0  0  0  0  0  0  0  0  0  0  0  0
    1.0014    0.7654   -1.6238 H   0  0  0  0  0  0  0  0  0  0  0  0
   -0.7291    0.8942   -1.3936 H   0  0  0  0  0  0  0  0  0  0  0  0
    0.4381    2.2116   -0.1479 C   0  0  0  0  0  0  0  0  0  0  0  0
    0.3003    2.1376    0.9313 H   0  0  0  0  0  0  0  0  0  0  0  0
    1.4586    2.5696   -0.3198 H   0  0  0  0  0  0  0  0  0  0  0  0
   -0.7906    3.4396   -0.7513 S   0  0  0  0  0  0  0  0  0  0  0  0
   -0.1746    3.7871   -2.4466 C   0  0  0  0  0  0  0  0  0  0  0  0
   -0.1809    2.8756   -3.0512 H   0  0  0  0  0  0  0  0  0  0  0  0
   -0.8114    4.5328   -2.9318 H   0  0  0  0  0  0  0  0  0  0  0  0
    0.8476    4.1749   -2.4045 H   0  0  0  0  0  0  0  0  0  0  0  0
    0.7715   -0.2785    1.4609 C   0  0  0  0  0  0  0  0  0  0  0  0
    1.9774   -0.2498    1.6682 O   0  0  0  0  0  0  0  0  0  0  0  0
   -0.0863    0.1270    2.4686 N   0  0  0  0  0  0  0  0  0  0  0  0
   -1.0794    0.0527    2.2740 H   0  0  0  0  0  0  0  0  0  0  0  0
    0.3485    0.3475    3.8420 C   0  0  0  0  0  0  0  0  0  0  0  0
    1.1073    1.1362    3.8825 H   0  0  0  0  0  0  0  0  0  0  0  0
   -0.4990    0.6533    4.4630 H   0  0  0  0  0  0  0  0  0  0  0  0
    0.7723   -0.5715    4.2606 H   0  0  0  0  0  0  0  0  0  0  0  0
  1  2  1  0  0  0  0
  2  3  1  0  0  0  0
  2  4  1  0  0  0  0
  2  5  1  0  0  0  0
  5  6  2  0  0  0  0
  5  7  1  0  0  0  0
  7  8  1  0  0  0  0
  7  9  1  0  0  0  0
  9 10  1  0  0  0  0
  9 11  1  0  0  0  0
  9 22  1  0  0  0  0
 11 12  1  0  0  0  0
 11 13  1  0  0  0  0
 11 14  1  0  0  0  0
 14 15  1  0  0  0  0
 14 16  1  0  0  0  0
 14 17  1  0  0  0  0
 17 18  1  0  0  0  0
 18 19  1  0  0  0  0
 18 20  1  0  0  0  0
 18 21  1  0  0  0  0
 22 23  2  0  0  0  0
 22 24  1  0  0  0  0
 24 25  1  0  0  0  0
 24 26  1  0  0  0  0
 26 27  1  0  0  0  0
 26 28  1  0  0  0  0
 26 29  1  0  0  0  0
M  END
$$$$

  -OEChem-04042216023D

 29 28  0     1  0  0  0  0  0999 V2000
   -2.6812   -4.0480    0.5783 H   0  0  0  0  0  0  0  0  0  0  0  0
   -2.6548   -3.0425    0.1486 C   0  0  0  0  0  0  0  0  0  0  0  0
   -3.4037   -2.4261    0.6514 H   0  0  0  0  0  0  0  0  0  0  0  0
   -2.8987   -3.1087   -0.9145 H   0  0  0  0  0  0  0  0  0  0  0  0
   -1.2756   -2.4360    0.3263 C   0  0  0  0  0  0  0  0  0  0  0  0
   -0.3886   -3.0865    0.8480 O   0  0  0  0  0  0  0  0  0  0  0  0
   -1.0301   -1.1479   -0.1070 N   0  0  0  0  0  0  0  0  0  0  0  0
   -1.8034   -0.6502   -0.5381 H   0  0  0  0  0  0  0  0  0  0  0  0
    0.2733   -0.4640    0.0045 C   0  0  1  0  0  0  0  0  0  0  0  0
    1.0082   -1.1232   -0.4724 H   0  0  0  0  0  0  0  0  0  0  0  0
    0.2302    0.8300   -0.8574 C   0  0  0  0  0  0  0  0  0  0  0  0
    1.0178    0.7349   -1.6120 H   0  0  0  0  0  0  0  0  0  0  0  0
   -0.7134    0.8641   -1.4101 H   0  0  0  0  0  0  0  0  0  0  0  0
    0.4505    2.1893   -0.1544 C   0  0  0  0  0  0  0  0  0  0  0  0
    0.6468    2.0955    0.9143 H   0  0  0  0  0  0  0  0  0  0  0  0
    1.3262    2.6835   -0.5877 H   0  0  0  0  0  0  0  0  0  0  0  0
   -1.0257    3.2628   -0.3804 S   0  0  0  0  0  0  0  0  0  0  0  0
   -0.8535    3.7928   -2.1311 C   0  0  0  0  0  0  0  0  0  0  0  0
   -0.8644    2.9256   -2.7974 H   0  0  0  0  0  0  0  0  0  0  0  0
   -1.6806    4.4545   -2.4051 H   0  0  0  0  0  0  0  0  0  0  0  0
    0.0873    4.3334   -2.2722 H   0  0  0  0  0  0  0  0  0  0  0  0
    0.7844   -0.3135    1.4569 C   0  0  0  0  0  0  0  0  0  0  0  0
    1.9885   -0.3093    1.6768 O   0  0  0  0  0  0  0  0  0  0  0  0
   -0.0781    0.1027    2.4559 N   0  0  0  0  0  0  0  0  0  0  0  0
   -1.0695    0.0838    2.2410 H   0  0  0  0  0  0  0  0  0  0  0  0
    0.3466    0.3502    3.8277 C   0  0  0  0  0  0  0  0  0  0  0  0
    1.0983    1.1461    3.8590 H   0  0  0  0  0  0  0  0  0  0  0  0
   -0.5073    0.6587    4.4384 H   0  0  0  0  0  0  0  0  0  0  0  0
    0.7762   -0.5578    4.2642 H   0  0  0  0  0  0  0  0  0  0  0  0
  1  2  1  0  0  0  0
  2  3  1  0  0  0  0
  2  4  1  0  0  0  0
  2  5  1  0  0  0  0
  5  6  2  0  0  0  0
  5  7  1  0  0  0  0
  7  8  1  0  0  0  0
  7  9  1  0  0  0  0
  9 10  1  0  0  0  0
  9 11  1  0  0  0  0
  9 22  1  0  0  0  0
 11 12  1  0  0  0  0
 11 13  1  0  0  0  0
 11 14  1  0  0  0  0
 14 15  1  0  0  0  0
 14 16  1  0  0  0  0
 14 17  1  0  0  0  0
 17 18  1  0  0  0  0
 18 19  1  0  0  0  0
 18 20  1  0  0  0  0
 18 21  1  0  0  0  0
 22 23  2  0  0  0  0
 22 24  1  0  0  0  0
 24 25  1  0  0  0  0
 24 26  1  0  0  0  0
 26 27  1  0  0  0  0
 26 28  1  0  0  0  0
 26 29  1  0  0  0  0
M  END
$$$$

  -OEChem-04042216023D

 29 28  0     1  0  0  0  0  0999 V2000
   -2.6866   -4.0508    0.6251 H   0  0  0  0  0  0  0  0  0  0  0  0
   -2.6529   -3.0486    0.1884 C   0  0  0  0  0  0  0  0  0  0  0  0
   -3.3744   -2.4145    0.7088 H   0  0  0  0  0  0  0  0  0  0  0  0
   -2.9296   -3.1156   -0.8665 H   0  0  0  0  0  0  0  0  0  0  0  0
   -1.2579   -2.4681    0.3232 C   0  0  0  0  0  0  0  0  0  0  0  0
   -0.3693   -3.1312    0.8262 O   0  0  0  0  0  0  0  0  0  0  0  0
   -1.0017   -1.1888   -0.1288 N   0  0  0  0  0  0  0  0  0  0  0  0
   -1.7829   -0.6730   -0.5226 H   0  0  0  0  0  0  0  0  0  0  0  0
    0.3035   -0.5102   -0.0147 C   0  0  1  0  0  0  0  0  0  0  0  0
    1.0447   -1.1666   -0.4856 H   0  0  0  0  0  0  0  0  0  0  0  0
    0.2408    0.7855   -0.8713 C   0  0  0  0  0  0  0  0  0  0  0  0
    1.0423    0.6977   -1.6122 H   0  0  0  0  0  0  0  0  0  0  0  0
   -0.6934    0.8201   -1.4398 H   0  0  0  0  0  0  0  0  0  0  0  0
    0.4574    2.1362   -0.1559 C   0  0  0  0  0  0  0  0  0  0  0  0
    0.9545    2.0419    0.8118 H   0  0  0  0  0  0  0  0  0  0  0  0
    1.1110    2.7622   -0.7719 H   0  0  0  0  0  0  0  0  0  0  0  0
   -1.1534    3.0026    0.0367 S   0  0  0  0  0  0  0  0  0  0  0  0
   -1.4331    3.6984   -1.6408 C   0  0  0  0  0  0  0  0  0  0  0  0
   -1.4870    2.8993   -2.3853 H   0  0  0  0  0  0  0  0  0  0  0  0
   -2.3727    4.2586   -1.6616 H   0  0  0  0  0  0  0  0  0  0  0  0
   -0.6171    4.3757   -1.9101 H   0  0  0  0  0  0  0  0  0  0  0  0
    0.7931   -0.3420    1.4433 C   0  0  0  0  0  0  0  0  0  0  0  0
    1.9926   -0.3655    1.6865 O   0  0  0  0  0  0  0  0  0  0  0  0
   -0.0801    0.0939    2.4242 N   0  0  0  0  0  0  0  0  0  0  0  0
   -1.0597    0.1701    2.1707 H   0  0  0  0  0  0  0  0  0  0  0  0
    0.3300    0.3971    3.7889 C   0  0  0  0  0  0  0  0  0  0  0  0
    1.0596    1.2135    3.7974 H   0  0  0  0  0  0  0  0  0  0  0  0
   -0.5355    0.7005    4.3855 H   0  0  0  0  0  0  0  0  0  0  0  0
    0.7811   -0.4844    4.2569 H   0  0  0  0  0  0  0  0  0  0  0  0
  1  2  1  0  0  0  0
  2  3  1  0  0  0  0
  2  4  1  0  0  0  0
  2  5  1  0  0  0  0
  5  6  2  0  0  0  0
  5  7  1  0  0  0  0
  7  8  1  0  0  0  0
  7  9  1  0  0  0  0
  9 10  1  0  0  0  0
  9 11  1  0  0  0  0
  9 22  1  0  0  0  0
 11 12  1  0  0  0  0
 11 13  1  0  0  0  0
 11 14  1  0  0  0  0
 14 15  1  0  0  0  0
 14 16  1  0  0  0  0
 14 17  1  0  0  0  0
 17 18  1  0  0  0  0
 18 19  1  0  0  0  0
 18 20  1  0  0  0  0
 18 21  1  0  0  0  0
 22 23  2  0  0  0  0
 22 24  1  0  0  0  0
 24 25  1  0  0  0  0
 24 26  1  0  0  0  0
 26 27  1  0  0  0  0
 26 28  1  0  0  0  0
 26 29  1  0  0  0  0
M  END
$$$$

  -OEChem-04042216023D

 29 28  0     1  0  0  0  0  0999 V2000
   -2.6526   -4.1006    0.6238 H   0  0  0  0  0  0  0  0  0  0  0  0
   -2.6382   -3.0843    0.2197 C   0  0  0  0  0  0  0  0  0  0  0  0
   -3.3319   -2.4676    0.7959 H   0  0  0  0  0  0  0  0  0  0  0  0
   -2.9660   -3.1158   -0.8221 H   0  0  0  0  0  0  0  0  0  0  0  0
   -1.2366   -2.5102    0.3045 C   0  0  0  0  0  0  0  0  0  0  0  0
   -0.3317   -3.1826    0.7643 O   0  0  0  0  0  0  0  0  0  0  0  0
   -0.9908   -1.2303   -0.1519 N   0  0  0  0  0  0  0  0  0  0  0  0
   -1.7904   -0.6974   -0.4794 H   0  0  0  0  0  0  0  0  0  0  0  0
    0.3083   -0.5428   -0.0277 C   0  0  1  0  0  0  0  0  0  0  0  0
    1.0583   -1.1942   -0.4915 H   0  0  0  0  0  0  0  0  0  0  0  0
    0.2444    0.7508   -0.8853 C   0  0  0  0  0  0  0  0  0  0  0  0
    1.0539    0.6741   -1.6185 H   0  0  0  0  0  0  0  0  0  0  0  0
   -0.6858    0.7885   -1.4599 H   0  0  0  0  0  0  0  0  0  0  0  0
    0.4478    2.0865   -0.1476 C   0  0  0  0  0  0  0  0  0  0  0  0
    1.1577    2.0055    0.6803 H   0  0  0  0  0  0  0  0  0  0  0  0
    0.8715    2.8172   -0.8438 H   0  0  0  0  0  0  0  0  0  0  0  0
   -1.1780    2.7197    0.4359 S   0  0  0  0  0  0  0  0  0  0  0  0
   -1.8498    3.5245   -1.0728 C   0  0  0  0  0  0  0  0  0  0  0  0
   -1.9616    2.7956   -1.8803 H   0  0  0  0  0  0  0  0  0  0  0  0
   -2.8296    3.9622   -0.8597 H   0  0  0  0  0  0  0  0  0  0  0  0
   -1.1780    4.3204   -1.4080 H   0  0  0  0  0  0  0  0  0  0  0  0
    0.7851   -0.3643    1.4342 C   0  0  0  0  0  0  0  0  0  0  0  0
    1.9816   -0.4010    1.6905 O   0  0  0  0  0  0  0  0  0  0  0  0
   -0.0955    0.0705    2.4087 N   0  0  0  0  0  0  0  0  0  0  0  0
   -1.0474    0.2621    2.1134 H   0  0  0  0  0  0  0  0  0  0  0  0
    0.3192    0.4498    3.7529 C   0  0  0  0  0  0  0  0  0  0  0  0
    0.9713    1.3287    3.7185 H   0  0  0  0  0  0  0  0  0  0  0  0
   -0.5557    0.6892    4.3647 H   0  0  0  0  0  0  0  0  0  0  0  0
    0.8598   -0.3727    4.2330 H   0  0  0  0  0  0  0  0  0  0  0  0
  1  2  1  0  0  0  0
  2  3  1  0  0  0  0
  2  4  1  0  0  0  0
  2  5  1  0  0  0  0
  5  6  2  0  0  0  0
  5  7  1  0  0  0  0
  7  8  1  0  0  0  0
  7  9  1  0  0  0  0
  9 10  1  0  0  0  0
  9 11  1  0  0  0  0
  9 22  1  0  0  0  0
 11 12  1  0  0  0  0
 11 13  1  0  0  0  0
 11 14  1  0  0  0  0
 14 15  1  0  0  0  0
 14 16  1  0  0  0  0
 14 17  1  0  0  0  0
 17 18  1  0  0  0  0
 18 19  1  0  0  0  0
 18 20  1  0  0  0  0
 18 21  1  0  0  0  0
 22 23  2  0  0  0  0
 22 24  1  0  0  0  0
 24 25  1  0  0  0  0
 24 26  1  0  0  0  0
 26 27  1  0  0  0  0
 26 28  1  0  0  0  0
 26 29  1  0  0  0  0
M  END
$$$$

  -OEChem-04042216023D

 29 28  0     1  0  0  0  0  0999 V2000
   -2.6367   -4.1337    0.5694 H   0  0  0  0  0  0  0  0  0  0  0  0
   -2.6387   -3.1027    0.2043 C   0  0  0  0  0  0  0  0  0  0  0  0
   -3.3188   -2.5124    0.8230 H   0  0  0  0  0  0  0  0  0  0  0  0
   -2.9955   -3.0963   -0.8284 H   0  0  0  0  0  0  0  0  0  0  0  0
   -1.2384   -2.5232    0.2724 C   0  0  0  0  0  0  0  0  0  0  0  0
   -0.3184   -3.2033    0.6895 O   0  0  0  0  0  0  0  0  0  0  0  0
   -1.0137   -1.2262   -0.1441 N   0  0  0  0  0  0  0  0  0  0  0  0
   -1.8280   -0.6854   -0.4172 H   0  0  0  0  0  0  0  0  0  0  0  0
    0.2752   -0.5258    0.0022 C   0  0  1  0  0  0  0  0  0  0  0  0
    1.0216   -1.1815   -0.4618 H   0  0  0  0  0  0  0  0  0  0  0  0
    0.2505    0.7578   -0.8708 C   0  0  0  0  0  0  0  0  0  0  0  0
    1.0781    0.6746   -1.5829 H   0  0  0  0  0  0  0  0  0  0  0  0
   -0.6669    0.7967   -1.4653 H   0  0  0  0  0  0  0  0  0  0  0  0
    0.4326    2.0933   -0.1343 C   0  0  0  0  0  0  0  0  0  0  0  0
    1.2781    2.0447    0.5600 H   0  0  0  0  0  0  0  0  0  0  0  0
    0.6602    2.8820   -0.8584 H   0  0  0  0  0  0  0  0  0  0  0  0
   -1.1124    2.5349    0.7655 S   0  0  0  0  0  0  0  0  0  0  0  0
   -2.1531    3.2444   -0.5722 C   0  0  0  0  0  0  0  0  0  0  0  0
   -2.3546    2.4946   -1.3423 H   0  0  0  0  0  0  0  0  0  0  0  0
   -3.1072    3.5887   -0.1621 H   0  0  0  0  0  0  0  0  0  0  0  0
   -1.6452    4.0960   -1.0350 H   0  0  0  0  0  0  0  0  0  0  0  0
    0.7817   -0.3692    1.4582 C   0  0  0  0  0  0  0  0  0  0  0  0
    1.9854   -0.4022    1.6805 O   0  0  0  0  0  0  0  0  0  0  0  0
   -0.0709    0.0306    2.4712 N   0  0  0  0  0  0  0  0  0  0  0  0
   -1.0158    0.2772    2.1939 H   0  0  0  0  0  0  0  0  0  0  0  0
    0.3940    0.4190    3.7965 C   0  0  0  0  0  0  0  0  0  0  0  0
    0.9966    1.3313    3.7379 H   0  0  0  0  0  0  0  0  0  0  0  0
   -0.4586    0.6062    4.4560 H   0  0  0  0  0  0  0  0  0  0  0  0
    1.0017   -0.3776    4.2390 H   0  0  0  0  0  0  0  0  0  0  0  0
  1  2  1  0  0  0  0
  2  3  1  0  0  0  0
  2  4  1  0  0  0  0
  2  5  1  0  0  0  0
  5  6  2  0  0  0  0
  5  7  1  0  0  0  0
  7  8  1  0  0  0  0
  7  9  1  0  0  0  0
  9 10  1  0  0  0  0
  9 11  1  0  0  0  0
  9 22  1  0  0  0  0
 11 12  1  0  0  0  0
 11 13  1  0  0  0  0
 11 14  1  0  0  0  0
 14 15  1  0  0  0  0
 14 16  1  0  0  0  0
 14 17  1  0  0  0  0
 17 18  1  0  0  0  0
 18 19  1  0  0  0  0
 18 20  1  0  0  0  0
 18 21  1  0  0  0  0
 22 23  2  0  0  0  0
 22 24  1  0  0  0  0
 24 25  1  0  0  0  0
 24 26  1  0  0  0  0
 26 27  1  0  0  0  0
 26 28  1  0  0  0  0
 26 29  1  0  0  0  0
M  END
$$$$

  -OEChem-04042216023D

 29 28  0     1  0  0  0  0  0999 V2000
   -2.6141   -4.1782    0.4805 H   0  0  0  0  0  0  0  0  0  0  0  0
   -2.6412   -3.1255    0.1849 C   0  0  0  0  0  0  0  0  0  0  0  0
   -3.3163   -2.5895    0.8561 H   0  0  0  0  0  0  0  0  0  0  0  0
   -3.0212   -3.0573   -0.8372 H   0  0  0  0  0  0  0  0  0  0  0  0
   -1.2492   -2.5273    0.2616 C   0  0  0  0  0  0  0  0  0  0  0  0
   -0.3152   -3.2102    0.6410 O   0  0  0  0  0  0  0  0  0  0  0  0
   -1.0491   -1.2102   -0.1021 N   0  0  0  0  0  0  0  0  0  0  0  0
   -1.8751   -0.6710   -0.3405 H   0  0  0  0  0  0  0  0  0  0  0  0
    0.2317   -0.4968    0.0538 C   0  0  1  0  0  0  0  0  0  0  0  0
    0.9645   -1.1650   -0.4151 H   0  0  0  0  0  0  0  0  0  0  0  0
    0.2608    0.7682   -0.8462 C   0  0  0  0  0  0  0  0  0  0  0  0
    1.1021    0.6565   -1.5383 H   0  0  0  0  0  0  0  0  0  0  0  0
   -0.6445    0.7995   -1.4596 H   0  0  0  0  0  0  0  0  0  0  0  0
    0.4304    2.1314   -0.1583 C   0  0  0  0  0  0  0  0  0  0  0  0
    1.3836    2.1442    0.3821 H   0  0  0  0  0  0  0  0  0  0  0  0
    0.4724    2.9226   -0.9136 H   0  0  0  0  0  0  0  0  0  0  0  0
   -0.9333    2.4887    1.0274 S   0  0  0  0  0  0  0  0  0  0  0  0
   -2.3163    2.9469   -0.0903 C   0  0  0  0  0  0  0  0  0  0  0  0
   -2.5797    2.1078   -0.7399 H   0  0  0  0  0  0  0  0  0  0  0  0
   -3.1965    3.2234    0.4978 H   0  0  0  0  0  0  0  0  0  0  0  0
   -2.0319    3.7997   -0.7139 H   0  0  0  0  0  0  0  0  0  0  0  0
    0.7880   -0.3771    1.4957 C   0  0  0  0  0  0  0  0  0  0  0  0
    2.0004   -0.3989    1.6680 O   0  0  0  0  0  0  0  0  0  0  0  0
   -0.0246   -0.0270    2.5586 N   0  0  0  0  0  0  0  0  0  0  0  0
   -0.9762    0.2360    2.3240 H   0  0  0  0  0  0  0  0  0  0  0  0
    0.4955    0.3418    3.8691 C   0  0  0  0  0  0  0  0  0  0  0  0
    1.0675    1.2734    3.8043 H   0  0  0  0  0  0  0  0  0  0  0  0
   -0.3281    0.4861    4.5749 H   0  0  0  0  0  0  0  0  0  0  0  0
    1.1477   -0.4469    4.2594 H   0  0  0  0  0  0  0  0  0  0  0  0
  1  2  1  0  0  0  0
  2  3  1  0  0  0  0
  2  4  1  0  0  0  0
  2  5  1  0  0  0  0
  5  6  2  0  0  0  0
  5  7  1  0  0  0  0
  7  8  1  0  0  0  0
  7  9  1  0  0  0  0
  9 10  1  0  0  0  0
  9 11  1  0  0  0  0
  9 22  1  0  0  0  0
 11 12  1  0  0  0  0
 11 13  1  0  0  0  0
 11 14  1  0  0  0  0
 14 15  1  0  0  0  0
 14 16  1  0  0  0  0
 14 17  1  0  0  0  0
 17 18  1  0  0  0  0
 18 19  1  0  0  0  0
 18 20  1  0  0  0  0
 18 21  1  0  0  0  0
 22 23  2  0  0  0  0
 22 24  1  0  0  0  0
 24 25  1  0  0  0  0
 24 26  1  0  0  0  0
 26 27  1  0  0  0  0
 26 28  1  0  0  0  0
 26 29  1  0  0  0  0
M  END
$$$$

  -OEChem-04042216023D

 29 28  0     1  0  0  0  0  0999 V2000
   -2.6218   -4.1902    0.4401 H   0  0  0  0  0  0  0  0  0  0  0  0
   -2.6434   -3.1430    0.1252 C   0  0  0  0  0  0  0  0  0  0  0  0
   -3.3670   -2.6059    0.7427 H   0  0  0  0  0  0  0  0  0  0  0  0
   -2.9583   -3.0969   -0.9200 H   0  0  0  0  0  0  0  0  0  0  0  0
   -1.2668   -2.5243    0.2795 C   0  0  0  0  0  0  0  0  0  0  0  0
   -0.3387   -3.2014    0.6826 O   0  0  0  0  0  0  0  0  0  0  0  0
   -1.0747   -1.1957   -0.0447 N   0  0  0  0  0  0  0  0  0  0  0  0
   -1.8909   -0.6740   -0.3457 H   0  0  0  0  0  0  0  0  0  0  0  0
    0.2044   -0.4771    0.1086 C   0  0  1  0  0  0  0  0  0  0  0  0
    0.9217   -1.1593   -0.3640 H   0  0  0  0  0  0  0  0  0  0  0  0
    0.2701    0.7655   -0.8231 C   0  0  0  0  0  0  0  0  0  0  0  0
    1.1102    0.6178   -1.5102 H   0  0  0  0  0  0  0  0  0  0  0  0
   -0.6338    0.7799   -1.4388 H   0  0  0  0  0  0  0  0  0  0  0  0
    0.4380    2.1725   -0.2203 C   0  0  0  0  0  0  0  0  0  0  0  0
    1.4762    2.2734    0.1151 H   0  0  0  0  0  0  0  0  0  0  0  0
    0.2726    2.9249   -0.9979 H   0  0  0  0  0  0  0  0  0  0  0  0
   -0.6429    2.5357    1.2233 S   0  0  0  0  0  0  0  0  0  0  0  0
   -2.3022    2.6414    0.4457 C   0  0  0  0  0  0  0  0  0  0  0  0
   -2.5677    1.6892   -0.0215 H   0  0  0  0  0  0  0  0  0  0  0  0
   -3.0549    2.8827    1.2024 H   0  0  0  0  0  0  0  0  0  0  0  0
   -2.3119    3.4240   -0.3188 H   0  0  0  0  0  0  0  0  0  0  0  0
    0.8023   -0.3881    1.5361 C   0  0  0  0  0  0  0  0  0  0  0  0
    2.0200   -0.4082    1.6688 O   0  0  0  0  0  0  0  0  0  0  0  0
    0.0245   -0.0743    2.6358 N   0  0  0  0  0  0  0  0  0  0  0  0
   -0.9400    0.1752    2.4459 H   0  0  0  0  0  0  0  0  0  0  0  0
    0.5878    0.2582    3.9382 C   0  0  0  0  0  0  0  0  0  0  0  0
    1.1588    1.1908    3.8801 H   0  0  0  0  0  0  0  0  0  0  0  0
   -0.2115    0.3833    4.6747 H   0  0  0  0  0  0  0  0  0  0  0  0
    1.2516   -0.5411    4.2846 H   0  0  0  0  0  0  0  0  0  0  0  0
  1  2  1  0  0  0  0
  2  3  1  0  0  0  0
  2  4  1  0  0  0  0
  2  5  1  0  0  0  0
  5  6  2  0  0  0  0
  5  7  1  0  0  0  0
  7  8  1  0  0  0  0
  7  9  1  0  0  0  0
  9 10  1  0  0  0  0
  9 11  1  0  0  0  0
  9 22  1  0  0  0  0
 11 12  1  0  0  0  0
 11 13  1  0  0  0  0
 11 14  1  0  0  0  0
 14 15  1  0  0  0  0
 14 16  1  0  0  0  0
 14 17  1  0  0  0  0
 17 18  1  0  0  0  0
 18 19  1  0  0  0  0
 18 20  1  0  0  0  0
 18 21  1  0  0  0  0
 22 23  2  0  0  0  0
 22 24  1  0  0  0  0
 24 25  1  0  0  0  0
 24 26  1  0  0  0  0
 26 27  1  0  0  0  0
 26 28  1  0  0  0  0
 26 29  1  0  0  0  0
M  END
$$$$

  -OEChem-04042216023D

 29 28  0     1  0  0  0  0  0999 V2000
   -2.5980   -4.2163    0.4022 H   0  0  0  0  0  0  0  0  0  0  0  0
   -2.6157   -3.1735    0.0724 C   0  0  0  0  0  0  0  0  0  0  0  0
   -3.3714   -2.6359    0.6498 H   0  0  0  0  0  0  0  0  0  0  0  0
   -2.8843   -3.1447   -0.9863 H   0  0  0  0  0  0  0  0  0  0  0  0
   -1.2534   -2.5388    0.2788 C   0  0  0  0  0  0  0  0  0  0  0  0
   -0.3317   -3.2085    0.7073 O   0  0  0  0  0  0  0  0  0  0  0  0
   -1.0675   -1.2047   -0.0272 N   0  0  0  0  0  0  0  0  0  0  0  0
   -1.8681   -0.7024   -0.3955 H   0  0  0  0  0  0  0  0  0  0  0  0
    0.2114   -0.4832    0.1225 C   0  0  1  0  0  0  0  0  0  0  0  0
    0.9260   -1.1657   -0.3539 H   0  0  0  0  0  0  0  0  0  0  0  0
    0.2755    0.7526   -0.8237 C   0  0  0  0  0  0  0  0  0  0  0  0
    1.1027    0.5839   -1.5216 H   0  0  0  0  0  0  0  0  0  0  0  0
   -0.6367    0.7473   -1.4277 H   0  0  0  0  0  0  0  0  0  0  0  0
    0.4400    2.1965   -0.2992 C   0  0  0  0  0  0  0  0  0  0  0  0
    1.5153    2.3943   -0.2312 H   0  0  0  0  0  0  0  0  0  0  0  0
    0.0327    2.8930   -1.0390 H   0  0  0  0  0  0  0  0  0  0  0  0
   -0.2612    2.5969    1.3501 S   0  0  0  0  0  0  0  0  0  0  0  0
   -2.0650    2.4566    1.0412 C   0  0  0  0  0  0  0  0  0  0  0  0
   -2.3222    1.4393    0.7348 H   0  0  0  0  0  0  0  0  0  0  0  0
   -2.6200    2.6996    1.9523 H   0  0  0  0  0  0  0  0  0  0  0  0
   -2.3684    3.1506    0.2517 H   0  0  0  0  0  0  0  0  0  0  0  0
    0.8137   -0.4210    1.5499 C   0  0  0  0  0  0  0  0  0  0  0  0
    2.0308   -0.4622    1.6830 O   0  0  0  0  0  0  0  0  0  0  0  0
    0.0360   -0.1311    2.6572 N   0  0  0  0  0  0  0  0  0  0  0  0
   -0.9392    0.0840    2.4855 H   0  0  0  0  0  0  0  0  0  0  0  0
    0.5939    0.1290    3.9780 C   0  0  0  0  0  0  0  0  0  0  0  0
    1.2320    1.0187    3.9553 H   0  0  0  0  0  0  0  0  0  0  0  0
   -0.2091    0.2962    4.7018 H   0  0  0  0  0  0  0  0  0  0  0  0
    1.1903   -0.7251    4.3159 H   0  0  0  0  0  0  0  0  0  0  0  0
  1  2  1  0  0  0  0
  2  3  1  0  0  0  0
  2  4  1  0  0  0  0
  2  5  1  0  0  0  0
  5  6  2  0  0  0  0
  5  7  1  0  0  0  0
  7  8  1  0  0  0  0
  7  9  1  0  0  0  0
  9 10  1  0  0  0  0
  9 11  1  0  0  0  0
  9 22  1  0  0  0  0
 11 12  1  0  0  0  0
 11 13  1  0  0  0  0
 11 14  1  0  0  0  0
 14 15  1  0  0  0  0
 14 16  1  0  0  0  0
 14 17  1  0  0  0  0
 17 18  1  0  0  0  0
 18 19  1  0  0  0  0
 18 20  1  0  0  0  0
 18 21  1  0  0  0  0
 22 23  2  0  0  0  0
 22 24  1  0  0  0  0
 24 25  1  0  0  0  0
 24 26  1  0  0  0  0
 26 27  1  0  0  0  0
 26 28  1  0  0  0  0
 26 29  1  0  0  0  0
M  END
$$$$

  -OEChem-04042216023D

 29 28  0     1  0  0  0  0  0999 V2000
   -2.3207   -4.4101    0.4700 H   0  0  0  0  0  0  0  0  0  0  0  0
   -2.4108   -3.3688    0.1470 C   0  0  0  0  0  0  0  0  0  0  0  0
   -3.1848   -2.8819    0.7449 H   0  0  0  0  0  0  0  0  0  0  0  0
   -2.7052   -3.3519   -0.9051 H   0  0  0  0  0  0  0  0  0  0  0  0
   -1.0861   -2.6512    0.3261 C   0  0  0  0  0  0  0  0  0  0  0  0
   -0.1224   -3.2581    0.7555 O   0  0  0  0  0  0  0  0  0  0  0  0
   -0.9828   -1.3130   -0.0013 N   0  0  0  0  0  0  0  0  0  0  0  0
   -1.8156   -0.8657   -0.3697 H   0  0  0  0  0  0  0  0  0  0  0  0
    0.2545   -0.5152    0.1147 C   0  0  1  0  0  0  0  0  0  0  0  0
    1.0042   -1.1575   -0.3634 H   0  0  0  0  0  0  0  0  0  0  0  0
    0.2154    0.7071   -0.8548 C   0  0  0  0  0  0  0  0  0  0  0  0
    1.0381    0.5670   -1.5644 H   0  0  0  0  0  0  0  0  0  0  0  0
   -0.7028    0.6205   -1.4436 H   0  0  0  0  0  0  0  0  0  0  0  0
    0.2949    2.1887   -0.4066 C   0  0  0  0  0  0  0  0  0  0  0  0
    1.3063    2.5357   -0.6447 H   0  0  0  0  0  0  0  0  0  0  0  0
   -0.3920    2.7790   -1.0211 H   0  0  0  0  0  0  0  0  0  0  0  0
    0.0217    2.6254    1.3541 S   0  0  0  0  0  0  0  0  0  0  0  0
   -1.8016    2.4692    1.4974 C   0  0  0  0  0  0  0  0  0  0  0  0
   -2.1208    1.4598    1.2243 H   0  0  0  0  0  0  0  0  0  0  0  0
   -2.1135    2.6709    2.5267 H   0  0  0  0  0  0  0  0  0  0  0  0
   -2.2955    3.1867    0.8355 H   0  0  0  0  0  0  0  0  0  0  0  0
    0.8601   -0.4092    1.5370 C   0  0  0  0  0  0  0  0  0  0  0  0
    2.0776   -0.3931    1.6701 O   0  0  0  0  0  0  0  0  0  0  0  0
    0.0662   -0.1557    2.6420 N   0  0  0  0  0  0  0  0  0  0  0  0
   -0.9326   -0.0905    2.4885 H   0  0  0  0  0  0  0  0  0  0  0  0
    0.6021    0.0897    3.9744 C   0  0  0  0  0  0  0  0  0  0  0  0
    1.2406    0.9794    3.9717 H   0  0  0  0  0  0  0  0  0  0  0  0
   -0.2125    0.2501    4.6866 H   0  0  0  0  0  0  0  0  0  0  0  0
    1.1936   -0.7678    4.3121 H   0  0  0  0  0  0  0  0  0  0  0  0
  1  2  1  0  0  0  0
  2  3  1  0  0  0  0
  2  4  1  0  0  0  0
  2  5  1  0  0  0  0
  5  6  2  0  0  0  0
  5  7  1  0  0  0  0
  7  8  1  0  0  0  0
  7  9  1  0  0  0  0
  9 10  1  0  0  0  0
  9 11  1  0  0  0  0
  9 22  1  0  0  0  0
 11 12  1  0  0  0  0
 11 13  1  0  0  0  0
 11 14  1  0  0  0  0
 14 15  1  0  0  0  0
 14 16  1  0  0  0  0
 14 17  1  0  0  0  0
 17 18  1  0  0  0  0
 18 19  1  0  0  0  0
 18 20  1  0  0  0  0
 18 21  1  0  0  0  0
 22 23  2  0  0  0  0
 22 24  1  0  0  0  0
 24 25  1  0  0  0  0
 24 26  1  0  0  0  0
 26 27  1  0  0  0  0
 26 28  1  0  0  0  0
 26 29  1  0  0  0  0
M  END
$$$$

  -OEChem-04042216023D

 29 28  0     1  0  0  0  0  0999 V2000
   -2.1332   -4.5869    0.6442 H   0  0  0  0  0  0  0  0  0  0  0  0
   -2.2014   -3.5763    0.2312 C   0  0  0  0  0  0  0  0  0  0  0  0
   -3.0446   -3.0620    0.6980 H   0  0  0  0  0  0  0  0  0  0  0  0
   -2.3751   -3.6486   -0.8451 H   0  0  0  0  0  0  0  0  0  0  0  0
   -0.9160   -2.8167    0.5001 C   0  0  0  0  0  0  0  0  0  0  0  0
   -0.0139   -3.3539    1.1151 O   0  0  0  0  0  0  0  0  0  0  0  0
   -0.7796   -1.5195    0.0446 N   0  0  0  0  0  0  0  0  0  0  0  0
   -1.5588   -1.1334   -0.4783 H   0  0  0  0  0  0  0  0  0  0  0  0
    0.4260   -0.6862    0.2312 C   0  0  1  0  0  0  0  0  0  0  0  0
    1.2496   -1.3344   -0.0925 H   0  0  0  0  0  0  0  0  0  0  0  0
    0.4378    0.4577   -0.8338 C   0  0  0  0  0  0  0  0  0  0  0  0
    1.3463    0.2907   -1.4227 H   0  0  0  0  0  0  0  0  0  0  0  0
   -0.3940    0.2805   -1.5224 H   0  0  0  0  0  0  0  0  0  0  0  0
    0.4323    1.9816   -0.5311 C   0  0  0  0  0  0  0  0  0  0  0  0
    1.3353    2.3993   -0.9889 H   0  0  0  0  0  0  0  0  0  0  0  0
   -0.4160    2.4307   -1.0569 H   0  0  0  0  0  0  0  0  0  0  0  0
    0.4075    2.6007    1.1958 S   0  0  0  0  0  0  0  0  0  0  0  0
   -1.3889    2.8305    1.4947 C   0  0  0  0  0  0  0  0  0  0  0  0
   -1.9262    1.8938    1.3232 H   0  0  0  0  0  0  0  0  0  0  0  0
   -1.7893    3.5957    0.8232 H   0  0  0  0  0  0  0  0  0  0  0  0
   -1.5574    3.1493    2.5279 H   0  0  0  0  0  0  0  0  0  0  0  0
    0.8098   -0.4344    1.7098 C   0  0  0  0  0  0  0  0  0  0  0  0
    1.9905   -0.4135    2.0344 O   0  0  0  0  0  0  0  0  0  0  0  0
   -0.1522   -0.0936    2.6452 N   0  0  0  0  0  0  0  0  0  0  0  0
   -1.1198   -0.1494    2.3518 H   0  0  0  0  0  0  0  0  0  0  0  0
    0.1575    0.1913    4.0397 C   0  0  0  0  0  0  0  0  0  0  0  0
    0.8287    1.0537    4.1130 H   0  0  0  0  0  0  0  0  0  0  0  0
   -0.7584    0.4180    4.5931 H   0  0  0  0  0  0  0  0  0  0  0  0
    0.6407   -0.6729    4.5077 H   0  0  0  0  0  0  0  0  0  0  0  0
  1  2  1  0  0  0  0
  2  3  1  0  0  0  0
  2  4  1  0  0  0  0
  2  5  1  0  0  0  0
  5  6  2  0  0  0  0
  5  7  1  0  0  0  0
  7  8  1  0  0  0  0
  7  9  1  0  0  0  0
  9 10  1  0  0  0  0
  9 11  1  0  0  0  0
  9 22  1  0  0  0  0
 11 12  1  0  0  0  0
 11 13  1  0  0  0  0
 11 14  1  0  0  0  0
 14 15  1  0  0  0  0
 14 16  1  0  0  0  0
 14 17  1  0  0  0  0
 17 18  1  0  0  0  0
 18 19  1  0  0  0  0
 18 20  1  0  0  0  0
 18 21  1  0  0  0  0
 22 23  2  0  0  0  0
 22 24  1  0  0  0  0
 24 25  1  0  0  0  0
 24 26  1  0  0  0  0
 26 27  1  0  0  0  0
 26 28  1  0  0  0  0
 26 29  1  0  0  0  0
M  END
$$$$

  -OEChem-04042216023D

 29 28  0     1  0  0  0  0  0999 V2000
   -2.6416   -4.6542    0.2689 H   0  0  0  0  0  0  0  0  0  0  0  0
   -2.6592   -3.5948   -0.0032 C   0  0  0  0  0  0  0  0  0  0  0  0
   -3.4036   -3.0866    0.6141 H   0  0  0  0  0  0  0  0  0  0  0  0
   -2.9428   -3.5070   -1.0547 H   0  0  0  0  0  0  0  0  0  0  0  0
   -1.2912   -2.9778    0.2182 C   0  0  0  0  0  0  0  0  0  0  0  0
   -0.3805   -3.6644    0.6423 O   0  0  0  0  0  0  0  0  0  0  0  0
   -1.0871   -1.6443   -0.0801 N   0  0  0  0  0  0  0  0  0  0  0  0
   -1.8906   -1.1230   -0.4148 H   0  0  0  0  0  0  0  0  0  0  0  0
    0.1759   -0.9167    0.1630 C   0  0  1  0  0  0  0  0  0  0  0  0
    0.9630   -1.5257   -0.2982 H   0  0  0  0  0  0  0  0  0  0  0  0
    0.1353    0.3948   -0.6873 C   0  0  0  0  0  0  0  0  0  0  0  0
    1.0060    0.3129   -1.3469 H   0  0  0  0  0  0  0  0  0  0  0  0
   -0.7363    0.3607   -1.3483 H   0  0  0  0  0  0  0  0  0  0  0  0
    0.2149    1.8409   -0.1263 C   0  0  0  0  0  0  0  0  0  0  0  0
    0.8575    2.4220   -0.7960 H   0  0  0  0  0  0  0  0  0  0  0  0
   -0.7892    2.2701   -0.1995 H   0  0  0  0  0  0  0  0  0  0  0  0
    0.7797    2.1492    1.5926 S   0  0  0  0  0  0  0  0  0  0  0  0
    0.8181    3.9833    1.6525 C   0  0  0  0  0  0  0  0  0  0  0  0
   -0.1777    4.3918    1.4579 H   0  0  0  0  0  0  0  0  0  0  0  0
    1.5130    4.3724    0.9022 H   0  0  0  0  0  0  0  0  0  0  0  0
    1.1478    4.3185    2.6405 H   0  0  0  0  0  0  0  0  0  0  0  0
    0.5870   -0.8959    1.6552 C   0  0  0  0  0  0  0  0  0  0  0  0
    1.7568   -1.0737    1.9714 O   0  0  0  0  0  0  0  0  0  0  0  0
   -0.3480   -0.6217    2.6394 N   0  0  0  0  0  0  0  0  0  0  0  0
   -1.2937   -0.4200    2.3379 H   0  0  0  0  0  0  0  0  0  0  0  0
   -0.0172   -0.5470    4.0559 C   0  0  0  0  0  0  0  0  0  0  0  0
    0.7208    0.2420    4.2354 H   0  0  0  0  0  0  0  0  0  0  0  0
   -0.9130   -0.3238    4.6426 H   0  0  0  0  0  0  0  0  0  0  0  0
    0.3951   -1.5006    4.4021 H   0  0  0  0  0  0  0  0  0  0  0  0
  1  2  1  0  0  0  0
  2  3  1  0  0  0  0
  2  4  1  0  0  0  0
  2  5  1  0  0  0  0
  5  6  2  0  0  0  0
  5  7  1  0  0  0  0
  7  8  1  0  0  0  0
  7  9  1  0  0  0  0
  9 10  1  0  0  0  0
  9 11  1  0  0  0  0
  9 22  1  0  0  0  0
 11 12  1  0  0  0  0
 11 13  1  0  0  0  0
 11 14  1  0  0  0  0
 14 15  1  0  0  0  0
 14 16  1  0  0  0  0
 14 17  1  0  0  0  0
 17 18  1  0  0  0  0
 18 19  1  0  0  0  0
 18 20  1  0  0  0  0
 18 21  1  0  0  0  0
 22 23  2  0  0  0  0
 22 24  1  0  0  0  0
 24 25  1  0  0  0  0
 24 26  1  0  0  0  0
 26 27  1  0  0  0  0
 26 28  1  0  0  0  0
 26 29  1  0  0  0  0
M  END
$$$$

  -OEChem-04042216023D

 29 28  0     1  0  0  0  0  0999 V2000
   -2.6017   -4.4789   -0.3233 H   0  0  0  0  0  0  0  0  0  0  0  0
   -2.6291   -3.3916   -0.4398 C   0  0  0  0  0  0  0  0  0  0  0  0
   -3.3448   -2.9802    0.2756 H   0  0  0  0  0  0  0  0  0  0  0  0
   -2.9582   -3.1557   -1.4545 H   0  0  0  0  0  0  0  0  0  0  0  0
   -1.2514   -2.8066   -0.1917 C   0  0  0  0  0  0  0  0  0  0  0  0
   -0.3218   -3.5451    0.0744 O   0  0  0  0  0  0  0  0  0  0  0  0
   -1.0621   -1.4413   -0.2878 N   0  0  0  0  0  0  0  0  0  0  0  0
   -1.8736   -0.8835   -0.5319 H   0  0  0  0  0  0  0  0  0  0  0  0
    0.2215   -0.7518   -0.0361 C   0  0  1  0  0  0  0  0  0  0  0  0
    0.9720   -1.2377   -0.6712 H   0  0  0  0  0  0  0  0  0  0  0  0
    0.0600    0.7019   -0.5889 C   0  0  0  0  0  0  0  0  0  0  0  0
    0.8498    0.7929   -1.3421 H   0  0  0  0  0  0  0  0  0  0  0  0
   -0.8841    0.7807   -1.1370 H   0  0  0  0  0  0  0  0  0  0  0  0
    0.1927    1.9878    0.2673 C   0  0  0  0  0  0  0  0  0  0  0  0
    0.4891    2.8071   -0.3957 H   0  0  0  0  0  0  0  0  0  0  0  0
   -0.8054    2.2272    0.6469 H   0  0  0  0  0  0  0  0  0  0  0  0
    1.3150    1.9970    1.7212 S   0  0  0  0  0  0  0  0  0  0  0  0
    1.0968    3.7048    2.3565 C   0  0  0  0  0  0  0  0  0  0  0  0
    0.0550    3.8732    2.6436 H   0  0  0  0  0  0  0  0  0  0  0  0
    1.7315    3.8608    3.2341 H   0  0  0  0  0  0  0  0  0  0  0  0
    1.3749    4.4336    1.5896 H   0  0  0  0  0  0  0  0  0  0  0  0
    0.7438   -0.9739    1.4035 C   0  0  0  0  0  0  0  0  0  0  0  0
    1.9254   -1.2309    1.5973 O   0  0  0  0  0  0  0  0  0  0  0  0
   -0.1150   -0.8672    2.4846 N   0  0  0  0  0  0  0  0  0  0  0  0
   -1.0919   -0.6893    2.2853 H   0  0  0  0  0  0  0  0  0  0  0  0
    0.3104   -1.0726    3.8625 C   0  0  0  0  0  0  0  0  0  0  0  0
    0.6874   -2.0919    3.9976 H   0  0  0  0  0  0  0  0  0  0  0  0
   -0.5302   -0.9195    4.5454 H   0  0  0  0  0  0  0  0  0  0  0  0
    1.1038   -0.3655    4.1268 H   0  0  0  0  0  0  0  0  0  0  0  0
  1  2  1  0  0  0  0
  2  3  1  0  0  0  0
  2  4  1  0  0  0  0
  2  5  1  0  0  0  0
  5  6  2  0  0  0  0
  5  7  1  0  0  0  0
  7  8  1  0  0  0  0
  7  9  1  0  0  0  0
  9 10  1  0  0  0  0
  9 11  1  0  0  0  0
  9 22  1  0  0  0  0
 11 12  1  0  0  0  0
 11 13  1  0  0  0  0
 11 14  1  0  0  0  0
 14 15  1  0  0  0  0
 14 16  1  0  0  0  0
 14 17  1  0  0  0  0
 17 18  1  0  0  0  0
 18 19  1  0  0  0  0
 18 20  1  0  0  0  0
 18 21  1  0  0  0  0
 22 23  2  0  0  0  0
 22 24  1  0  0  0  0
 24 25  1  0  0  0  0
 24 26  1  0  0  0  0
 26 27  1  0  0  0  0
 26 28  1  0  0  0  0
 26 29  1  0  0  0  0
M  END
$$$$

  -OEChem-04042216023D

 29 28  0     1  0  0  0  0  0999 V2000
   -3.0195   -4.2605    1.1568 H   0  0  0  0  0  0  0  0  0  0  0  0
   -2.8723   -3.3549    0.5612 C   0  0  0  0  0  0  0  0  0  0  0  0
   -3.5966   -2.6026    0.8820 H   0  0  0  0  0  0  0  0  0  0  0  0
   -3.0450   -3.5947   -0.4906 H   0  0  0  0  0  0  0  0  0  0  0  0
   -1.4608   -2.8320    0.7495 C   0  0  0  0  0  0  0  0  0  0  0  0
   -0.6828   -3.4420    1.4580 O   0  0  0  0  0  0  0  0  0  0  0  0
   -1.0726   -1.6712    0.1081 N   0  0  0  0  0  0  0  0  0  0  0  0
   -1.7443   -1.2662   -0.5355 H   0  0  0  0  0  0  0  0  0  0  0  0
    0.2967   -1.1113    0.1382 C   0  0  1  0  0  0  0  0  0  0  0  0
    0.9873   -1.8819   -0.2238 H   0  0  0  0  0  0  0  0  0  0  0  0
    0.3105    0.0572   -0.8967 C   0  0  0  0  0  0  0  0  0  0  0  0
    1.0577   -0.2031   -1.6537 H   0  0  0  0  0  0  0  0  0  0  0  0
   -0.6514    0.1026   -1.4163 H   0  0  0  0  0  0  0  0  0  0  0  0
    0.6399    1.4874   -0.4284 C   0  0  0  0  0  0  0  0  0  0  0  0
    0.5729    2.1655   -1.2849 H   0  0  0  0  0  0  0  0  0  0  0  0
   -0.1104    1.8046    0.3021 H   0  0  0  0  0  0  0  0  0  0  0  0
    2.3078    1.6616    0.3217 S   0  0  0  0  0  0  0  0  0  0  0  0
    2.2563    3.3829    0.9545 C   0  0  0  0  0  0  0  0  0  0  0  0
    2.0781    4.0849    0.1347 H   0  0  0  0  0  0  0  0  0  0  0  0
    1.4572    3.4905    1.6938 H   0  0  0  0  0  0  0  0  0  0  0  0
    3.2088    3.6340    1.4304 H   0  0  0  0  0  0  0  0  0  0  0  0
    0.7669   -0.7728    1.5762 C   0  0  0  0  0  0  0  0  0  0  0  0
    1.8860   -1.0923    1.9558 O   0  0  0  0  0  0  0  0  0  0  0  0
   -0.0819   -0.1112    2.4480 N   0  0  0  0  0  0  0  0  0  0  0  0
   -1.0497   -0.0341    2.1578 H   0  0  0  0  0  0  0  0  0  0  0  0
    0.2540    0.1158    3.8475 C   0  0  0  0  0  0  0  0  0  0  0  0
    1.2004    0.6608    3.9306 H   0  0  0  0  0  0  0  0  0  0  0  0
   -0.5267    0.7082    4.3335 H   0  0  0  0  0  0  0  0  0  0  0  0
    0.3493   -0.8383    4.3765 H   0  0  0  0  0  0  0  0  0  0  0  0
  1  2  1  0  0  0  0
  2  3  1  0  0  0  0
  2  4  1  0  0  0  0
  2  5  1  0  0  0  0
  5  6  2  0  0  0  0
  5  7  1  0  0  0  0
  7  8  1  0  0  0  0
  7  9  1  0  0  0  0
  9 10  1  0  0  0  0
  9 11  1  0  0  0  0
  9 22  1  0  0  0  0
 11 12  1  0  0  0  0
 11 13  1  0  0  0  0
 11 14  1  0  0  0  0
 14 15  1  0  0  0  0
 14 16  1  0  0  0  0
 14 17  1  0  0  0  0
 17 18  1  0  0  0  0
 18 19  1  0  0  0  0
 18 20  1  0  0  0  0
 18 21  1  0  0  0  0
 22 23  2  0  0  0  0
 22 24  1  0  0  0  0
 24 25  1  0  0  0  0
 24 26  1  0  0  0  0
 26 27  1  0  0  0  0
 26 28  1  0  0  0  0
 26 29  1  0  0  0  0
M  END
$$$$

  -OEChem-04042216023D

 29 28  0     1  0  0  0  0  0999 V2000
   -2.8743   -4.0714    0.6675 H   0  0  0  0  0  0  0  0  0  0  0  0
   -2.7474   -3.0993    0.1820 C   0  0  0  0  0  0  0  0  0  0  0  0
   -3.5651   -2.4439    0.4909 H   0  0  0  0  0  0  0  0  0  0  0  0
   -2.7889   -3.2402   -0.9006 H   0  0  0  0  0  0  0  0  0  0  0  0
   -1.4147   -2.4904    0.5759 C   0  0  0  0  0  0  0  0  0  0  0  0
   -0.6680   -3.0995    1.3186 O   0  0  0  0  0  0  0  0  0  0  0  0
   -1.0595   -1.2471    0.0896 N   0  0  0  0  0  0  0  0  0  0  0  0
   -1.6931   -0.8241   -0.5808 H   0  0  0  0  0  0  0  0  0  0  0  0
    0.2401   -0.5909    0.3439 C   0  0  1  0  0  0  0  0  0  0  0  0
    1.0185   -1.2913    0.0197 H   0  0  0  0  0  0  0  0  0  0  0  0
    0.3428    0.6492   -0.5901 C   0  0  0  0  0  0  0  0  0  0  0  0
    1.1734    0.4922   -1.2832 H   0  0  0  0  0  0  0  0  0  0  0  0
   -0.5574    0.7009   -1.2103 H   0  0  0  0  0  0  0  0  0  0  0  0
    0.5022    2.0308    0.0744 C   0  0  0  0  0  0  0  0  0  0  0  0
    0.3024    2.7882   -0.6901 H   0  0  0  0  0  0  0  0  0  0  0  0
   -0.2515    2.1649    0.8560 H   0  0  0  0  0  0  0  0  0  0  0  0
    2.1710    2.4022    0.7686 S   0  0  0  0  0  0  0  0  0  0  0  0
    3.4029    1.3937   -0.1491 C   0  0  0  0  0  0  0  0  0  0  0  0
    3.3417    1.5965   -1.2222 H   0  0  0  0  0  0  0  0  0  0  0  0
    4.4119    1.6383    0.1958 H   0  0  0  0  0  0  0  0  0  0  0  0
    3.2296    0.3276    0.0259 H   0  0  0  0  0  0  0  0  0  0  0  0
    0.5410   -0.3387    1.8424 C   0  0  0  0  0  0  0  0  0  0  0  0
    1.6684   -0.5287    2.2796 O   0  0  0  0  0  0  0  0  0  0  0  0
   -0.4338    0.1799    2.6768 N   0  0  0  0  0  0  0  0  0  0  0  0
   -1.3818    0.1813    2.3176 H   0  0  0  0  0  0  0  0  0  0  0  0
   -0.2193    0.3851    4.1034 C   0  0  0  0  0  0  0  0  0  0  0  0
    0.6456    1.0359    4.2706 H   0  0  0  0  0  0  0  0  0  0  0  0
   -1.0968    0.8577    4.5545 H   0  0  0  0  0  0  0  0  0  0  0  0
   -0.0416   -0.5721    4.6047 H   0  0  0  0  0  0  0  0  0  0  0  0
  1  2  1  0  0  0  0
  2  3  1  0  0  0  0
  2  4  1  0  0  0  0
  2  5  1  0  0  0  0
  5  6  2  0  0  0  0
  5  7  1  0  0  0  0
  7  8  1  0  0  0  0
  7  9  1  0  0  0  0
  9 10  1  0  0  0  0
  9 11  1  0  0  0  0
  9 22  1  0  0  0  0
 11 12  1  0  0  0  0
 11 13  1  0  0  0  0
 11 14  1  0  0  0  0
 14 15  1  0  0  0  0
 14 16  1  0  0  0  0
 14 17  1  0  0  0  0
 17 18  1  0  0  0  0
 18 19  1  0  0  0  0
 18 20  1  0  0  0  0
 18 21  1  0  0  0  0
 22 23  2  0  0  0  0
 22 24  1  0  0  0  0
 24 25  1  0  0  0  0
 24 26  1  0  0  0  0
 26 27  1  0  0  0  0
 26 28  1  0  0  0  0
 26 29  1  0  0  0  0
M  END
$$$$

  -OEChem-04042216023D

 29 28  0     1  0  0  0  0  0999 V2000
   -2.8092   -3.9757    0.6571 H   0  0  0  0  0  0  0  0  0  0  0  0
   -2.7145   -2.9960    0.1799 C   0  0  0  0  0  0  0  0  0  0  0  0
   -3.4804   -2.3316    0.5870 H   0  0  0  0  0  0  0  0  0  0  0  0
   -2.8744   -3.1132   -0.8945 H   0  0  0  0  0  0  0  0  0  0  0  0
   -1.3349   -2.4208    0.4409 C   0  0  0  0  0  0  0  0  0  0  0  0
   -0.5381   -3.0486    1.1119 O   0  0  0  0  0  0  0  0  0  0  0  0
   -0.9949   -1.1929   -0.0952 N   0  0  0  0  0  0  0  0  0  0  0  0
   -1.6774   -0.7694   -0.7156 H   0  0  0  0  0  0  0  0  0  0  0  0
    0.3382   -0.5595    0.0206 C   0  0  1  0  0  0  0  0  0  0  0  0
    1.0900   -1.2485   -0.3816 H   0  0  0  0  0  0  0  0  0  0  0  0
    0.2907    0.6967   -0.9070 C   0  0  0  0  0  0  0  0  0  0  0  0
    1.0369    0.5484   -1.6946 H   0  0  0  0  0  0  0  0  0  0  0  0
   -0.6782    0.7273   -1.4151 H   0  0  0  0  0  0  0  0  0  0  0  0
    0.5185    2.1085   -0.3262 C   0  0  0  0  0  0  0  0  0  0  0  0
   -0.0439    2.8202   -0.9393 H   0  0  0  0  0  0  0  0  0  0  0  0
    0.1140    2.1807    0.6863 H   0  0  0  0  0  0  0  0  0  0  0  0
    2.2759    2.6777   -0.3283 S   0  0  0  0  0  0  0  0  0  0  0  0
    3.3580    1.5248    0.5962 C   0  0  0  0  0  0  0  0  0  0  0  0
    3.2922    0.5167    0.1781 H   0  0  0  0  0  0  0  0  0  0  0  0
    4.3981    1.8563    0.5290 H   0  0  0  0  0  0  0  0  0  0  0  0
    3.0754    1.5038    1.6523 H   0  0  0  0  0  0  0  0  0  0  0  0
    0.7185   -0.3228    1.5049 C   0  0  0  0  0  0  0  0  0  0  0  0
    1.8123   -0.6663    1.9305 O   0  0  0  0  0  0  0  0  0  0  0  0
   -0.2057    0.2094    2.3880 N   0  0  0  0  0  0  0  0  0  0  0  0
   -1.1574    0.2817    2.0457 H   0  0  0  0  0  0  0  0  0  0  0  0
    0.0240    0.2618    3.8265 C   0  0  0  0  0  0  0  0  0  0  0  0
    0.9366    0.8251    4.0493 H   0  0  0  0  0  0  0  0  0  0  0  0
   -0.8148    0.7551    4.3266 H   0  0  0  0  0  0  0  0  0  0  0  0
    0.1266   -0.7500    4.2334 H   0  0  0  0  0  0  0  0  0  0  0  0
  1  2  1  0  0  0  0
  2  3  1  0  0  0  0
  2  4  1  0  0  0  0
  2  5  1  0  0  0  0
  5  6  2  0  0  0  0
  5  7  1  0  0  0  0
  7  8  1  0  0  0  0
  7  9  1  0  0  0  0
  9 10  1  0  0  0  0
  9 11  1  0  0  0  0
  9 22  1  0  0  0  0
 11 12  1  0  0  0  0
 11 13  1  0  0  0  0
 11 14  1  0  0  0  0
 14 15  1  0  0  0  0
 14 16  1  0  0  0  0
 14 17  1  0  0  0  0
 17 18  1  0  0  0  0
 18 19  1  0  0  0  0
 18 20  1  0  0  0  0
 18 21  1  0  0  0  0
 22 23  2  0  0  0  0
 22 24  1  0  0  0  0
 24 25  1  0  0  0  0
 24 26  1  0  0  0  0
 26 27  1  0  0  0  0
 26 28  1  0  0  0  0
 26 29  1  0  0  0  0
M  END
$$$$

  -OEChem-04042216023D

 29 28  0     1  0  0  0  0  0999 V2000
   -2.7360   -4.0256    0.6155 H   0  0  0  0  0  0  0  0  0  0  0  0
   -2.6816   -3.0324    0.1600 C   0  0  0  0  0  0  0  0  0  0  0  0
   -3.4635   -2.4040    0.5933 H   0  0  0  0  0  0  0  0  0  0  0  0
   -2.8528   -3.1302   -0.9148 H   0  0  0  0  0  0  0  0  0  0  0  0
   -1.3186   -2.4166    0.4151 C   0  0  0  0  0  0  0  0  0  0  0  0
   -0.4972   -3.0216    1.0783 O   0  0  0  0  0  0  0  0  0  0  0  0
   -1.0193   -1.1730   -0.1083 N   0  0  0  0  0  0  0  0  0  0  0  0
   -1.7151   -0.7624   -0.7230 H   0  0  0  0  0  0  0  0  0  0  0  0
    0.3050   -0.5221   -0.0130 C   0  0  1  0  0  0  0  0  0  0  0  0
    1.0446   -1.2153   -0.4304 H   0  0  0  0  0  0  0  0  0  0  0  0
    0.2797    0.7282   -0.9447 C   0  0  0  0  0  0  0  0  0  0  0  0
    1.0263    0.5702   -1.7300 H   0  0  0  0  0  0  0  0  0  0  0  0
   -0.6867    0.7687   -1.4567 H   0  0  0  0  0  0  0  0  0  0  0  0
    0.5198    2.1278   -0.3380 C   0  0  0  0  0  0  0  0  0  0  0  0
   -0.2072    2.8209   -0.7734 H   0  0  0  0  0  0  0  0  0  0  0  0
    0.3621    2.1494    0.7418 H   0  0  0  0  0  0  0  0  0  0  0  0
    2.2000    2.7727   -0.7345 S   0  0  0  0  0  0  0  0  0  0  0  0
    3.3856    1.6858    0.1485 C   0  0  0  0  0  0  0  0  0  0  0  0
    3.2829    0.6509   -0.1900 H   0  0  0  0  0  0  0  0  0  0  0  0
    4.4110    2.0131   -0.0457 H   0  0  0  0  0  0  0  0  0  0  0  0
    3.2076    1.7279    1.2271 H   0  0  0  0  0  0  0  0  0  0  0  0
    0.7474   -0.2941    1.4550 C   0  0  0  0  0  0  0  0  0  0  0  0
    1.9112   -0.4696    1.7876 O   0  0  0  0  0  0  0  0  0  0  0  0
   -0.1466    0.2132    2.3823 N   0  0  0  0  0  0  0  0  0  0  0  0
   -1.1241    0.1999    2.1122 H   0  0  0  0  0  0  0  0  0  0  0  0
    0.1869    0.3658    3.7929 C   0  0  0  0  0  0  0  0  0  0  0  0
    1.0205    1.0653    3.9153 H   0  0  0  0  0  0  0  0  0  0  0  0
   -0.6733    0.7550    4.3456 H   0  0  0  0  0  0  0  0  0  0  0  0
    0.4701   -0.5995    4.2260 H   0  0  0  0  0  0  0  0  0  0  0  0
  1  2  1  0  0  0  0
  2  3  1  0  0  0  0
  2  4  1  0  0  0  0
  2  5  1  0  0  0  0
  5  6  2  0  0  0  0
  5  7  1  0  0  0  0
  7  8  1  0  0  0  0
  7  9  1  0  0  0  0
  9 10  1  0  0  0  0
  9 11  1  0  0  0  0
  9 22  1  0  0  0  0
 11 12  1  0  0  0  0
 11 13  1  0  0  0  0
 11 14  1  0  0  0  0
 14 15  1  0  0  0  0
 14 16  1  0  0  0  0
 14 17  1  0  0  0  0
 17 18  1  0  0  0  0
 18 19  1  0  0  0  0
 18 20  1  0  0  0  0
 18 21  1  0  0  0  0
 22 23  2  0  0  0  0
 22 24  1  0  0  0  0
 24 25  1  0  0  0  0
 24 26  1  0  0  0  0
 26 27  1  0  0  0  0
 26 28  1  0  0  0  0
 26 29  1  0  0  0  0
M  END
$$$$

  -OEChem-04042216023D

 29 28  0     1  0  0  0  0  0999 V2000
   -2.7091   -4.0607    0.5791 H   0  0  0  0  0  0  0  0  0  0  0  0
   -2.6729   -3.0670    0.1232 C   0  0  0  0  0  0  0  0  0  0  0  0
   -3.4705   -2.4551    0.5511 H   0  0  0  0  0  0  0  0  0  0  0  0
   -2.8361   -3.1689   -0.9523 H   0  0  0  0  0  0  0  0  0  0  0  0
   -1.3248   -2.4225    0.3853 C   0  0  0  0  0  0  0  0  0  0  0  0
   -0.4886   -3.0122    1.0444 O   0  0  0  0  0  0  0  0  0  0  0  0
   -1.0549   -1.1650   -0.1190 N   0  0  0  0  0  0  0  0  0  0  0  0
   -1.7600   -0.7605   -0.7273 H   0  0  0  0  0  0  0  0  0  0  0  0
    0.2617   -0.5002   -0.0352 C   0  0  1  0  0  0  0  0  0  0  0  0
    0.9886   -1.1973   -0.4684 H   0  0  0  0  0  0  0  0  0  0  0  0
    0.2515    0.7465   -0.9670 C   0  0  0  0  0  0  0  0  0  0  0  0
    1.0159    0.5788   -1.7327 H   0  0  0  0  0  0  0  0  0  0  0  0
   -0.7013    0.7914   -1.5032 H   0  0  0  0  0  0  0  0  0  0  0  0
    0.4949    2.1401   -0.3425 C   0  0  0  0  0  0  0  0  0  0  0  0
   -0.3734    2.7739   -0.5486 H   0  0  0  0  0  0  0  0  0  0  0  0
    0.6156    2.1168    0.7413 H   0  0  0  0  0  0  0  0  0  0  0  0
    1.9816    2.9291   -1.0818 S   0  0  0  0  0  0  0  0  0  0  0  0
    3.3425    1.9562   -0.3207 C   0  0  0  0  0  0  0  0  0  0  0  0
    3.2624    0.9010   -0.5975 H   0  0  0  0  0  0  0  0  0  0  0  0
    4.3109    2.3336   -0.6614 H   0  0  0  0  0  0  0  0  0  0  0  0
    3.3008    2.0341    0.7699 H   0  0  0  0  0  0  0  0  0  0  0  0
    0.7654   -0.2785    1.4118 C   0  0  0  0  0  0  0  0  0  0  0  0
    1.9662   -0.3030    1.6476 O   0  0  0  0  0  0  0  0  0  0  0  0
   -0.0963    0.2087    2.3792 N   0  0  0  0  0  0  0  0  0  0  0  0
   -1.0867    0.1146    2.1800 H   0  0  0  0  0  0  0  0  0  0  0  0
    0.3209    0.4519    3.7544 C   0  0  0  0  0  0  0  0  0  0  0  0
    1.1263    1.1933    3.7857 H   0  0  0  0  0  0  0  0  0  0  0  0
   -0.5192    0.8320    4.3433 H   0  0  0  0  0  0  0  0  0  0  0  0
    0.6777   -0.4753    4.2153 H   0  0  0  0  0  0  0  0  0  0  0  0
  1  2  1  0  0  0  0
  2  3  1  0  0  0  0
  2  4  1  0  0  0  0
  2  5  1  0  0  0  0
  5  6  2  0  0  0  0
  5  7  1  0  0  0  0
  7  8  1  0  0  0  0
  7  9  1  0  0  0  0
  9 10  1  0  0  0  0
  9 11  1  0  0  0  0
  9 22  1  0  0  0  0
 11 12  1  0  0  0  0
 11 13  1  0  0  0  0
 11 14  1  0  0  0  0
 14 15  1  0  0  0  0
 14 16  1  0  0  0  0
 14 17  1  0  0  0  0
 17 18  1  0  0  0  0
 18 19  1  0  0  0  0
 18 20  1  0  0  0  0
 18 21  1  0  0  0  0
 22 23  2  0  0  0  0
 22 24  1  0  0  0  0
 24 25  1  0  0  0  0
 24 26  1  0  0  0  0
 26 27  1  0  0  0  0
 26 28  1  0  0  0  0
 26 29  1  0  0  0  0
M  END
$$$$

  -OEChem-04042216023D

 29 28  0     1  0  0  0  0  0999 V2000
   -2.7087   -4.0712    0.5816 H   0  0  0  0  0  0  0  0  0  0  0  0
   -2.6759   -3.0792    0.1218 C   0  0  0  0  0  0  0  0  0  0  0  0
   -3.4776   -2.4694    0.5451 H   0  0  0  0  0  0  0  0  0  0  0  0
   -2.8357   -3.1862   -0.9538 H   0  0  0  0  0  0  0  0  0  0  0  0
   -1.3313   -2.4274    0.3847 C   0  0  0  0  0  0  0  0  0  0  0  0
   -0.4933   -3.0113    1.0469 O   0  0  0  0  0  0  0  0  0  0  0  0
   -1.0670   -1.1692   -0.1208 N   0  0  0  0  0  0  0  0  0  0  0  0
   -1.7731   -0.7696   -0.7314 H   0  0  0  0  0  0  0  0  0  0  0  0
    0.2487   -0.5022   -0.0444 C   0  0  1  0  0  0  0  0  0  0  0  0
    0.9737   -1.1953   -0.4875 H   0  0  0  0  0  0  0  0  0  0  0  0
    0.2227    0.7512   -0.9652 C   0  0  0  0  0  0  0  0  0  0  0  0
    0.9994    0.5894   -1.7194 H   0  0  0  0  0  0  0  0  0  0  0  0
   -0.7228    0.7979   -1.5142 H   0  0  0  0  0  0  0  0  0  0  0  0
    0.4680    2.1371   -0.3246 C   0  0  0  0  0  0  0  0  0  0  0  0
   -0.4844    2.6693   -0.2396 H   0  0  0  0  0  0  0  0  0  0  0  0
    0.8960    2.0798    0.6776 H   0  0  0  0  0  0  0  0  0  0  0  0
    1.6360    3.1115   -1.3548 S   0  0  0  0  0  0  0  0  0  0  0  0
    3.2387    2.3405   -0.8873 C   0  0  0  0  0  0  0  0  0  0  0  0
    3.2429    1.2763   -1.1403 H   0  0  0  0  0  0  0  0  0  0  0  0
    4.0601    2.8292   -1.4192 H   0  0  0  0  0  0  0  0  0  0  0  0
    3.4083    2.4418    0.1891 H   0  0  0  0  0  0  0  0  0  0  0  0
    0.7665   -0.2772    1.3961 C   0  0  0  0  0  0  0  0  0  0  0  0
    1.9724   -0.2664    1.6079 O   0  0  0  0  0  0  0  0  0  0  0  0
   -0.0881    0.2102    2.3692 N   0  0  0  0  0  0  0  0  0  0  0  0
   -1.0798    0.0997    2.1851 H   0  0  0  0  0  0  0  0  0  0  0  0
    0.3449    0.4802    3.7345 C   0  0  0  0  0  0  0  0  0  0  0  0
    1.1415    1.2317    3.7433 H   0  0  0  0  0  0  0  0  0  0  0  0
   -0.4916    0.8598    4.3289 H   0  0  0  0  0  0  0  0  0  0  0  0
    0.7191   -0.4353    4.2047 H   0  0  0  0  0  0  0  0  0  0  0  0
  1  2  1  0  0  0  0
  2  3  1  0  0  0  0
  2  4  1  0  0  0  0
  2  5  1  0  0  0  0
  5  6  2  0  0  0  0
  5  7  1  0  0  0  0
  7  8  1  0  0  0  0
  7  9  1  0  0  0  0
  9 10  1  0  0  0  0
  9 11  1  0  0  0  0
  9 22  1  0  0  0  0
 11 12  1  0  0  0  0
 11 13  1  0  0  0  0
 11 14  1  0  0  0  0
 14 15  1  0  0  0  0
 14 16  1  0  0  0  0
 14 17  1  0  0  0  0
 17 18  1  0  0  0  0
 18 19  1  0  0  0  0
 18 20  1  0  0  0  0
 18 21  1  0  0  0  0
 22 23  2  0  0  0  0
 22 24  1  0  0  0  0
 24 25  1  0  0  0  0
 24 26  1  0  0  0  0
 26 27  1  0  0  0  0
 26 28  1  0  0  0  0
 26 29  1  0  0  0  0
M  END
$$$$

  -OEChem-04042216023D

 29 28  0     1  0  0  0  0  0999 V2000
   -2.7071   -4.0734    0.6035 H   0  0  0  0  0  0  0  0  0  0  0  0
   -2.6739   -3.0841    0.1379 C   0  0  0  0  0  0  0  0  0  0  0  0
   -3.4767   -2.4722    0.5559 H   0  0  0  0  0  0  0  0  0  0  0  0
   -2.8320   -3.1974   -0.9374 H   0  0  0  0  0  0  0  0  0  0  0  0
   -1.3300   -2.4305    0.3988 C   0  0  0  0  0  0  0  0  0  0  0  0
   -0.4916   -3.0117    1.0628 O   0  0  0  0  0  0  0  0  0  0  0  0
   -1.0643   -1.1775   -0.1185 N   0  0  0  0  0  0  0  0  0  0  0  0
   -1.7712   -0.7818   -0.7309 H   0  0  0  0  0  0  0  0  0  0  0  0
    0.2519   -0.5109   -0.0494 C   0  0  1  0  0  0  0  0  0  0  0  0
    0.9803   -1.1972   -0.4972 H   0  0  0  0  0  0  0  0  0  0  0  0
    0.2035    0.7511   -0.9558 C   0  0  0  0  0  0  0  0  0  0  0  0
    0.9773    0.6064   -1.7160 H   0  0  0  0  0  0  0  0  0  0  0  0
   -0.7479    0.8040   -1.4937 H   0  0  0  0  0  0  0  0  0  0  0  0
    0.4536    2.1195   -0.2890 C   0  0  0  0  0  0  0  0  0  0  0  0
   -0.4908    2.5273    0.0844 H   0  0  0  0  0  0  0  0  0  0  0  0
    1.1436    2.0488    0.5557 H   0  0  0  0  0  0  0  0  0  0  0  0
    1.2159    3.2728   -1.4993 S   0  0  0  0  0  0  0  0  0  0  0  0
    2.9800    2.7584   -1.4496 C   0  0  0  0  0  0  0  0  0  0  0  0
    3.0856    1.7145   -1.7587 H   0  0  0  0  0  0  0  0  0  0  0  0
    3.5720    3.3836   -2.1246 H   0  0  0  0  0  0  0  0  0  0  0  0
    3.3772    2.8645   -0.4355 H   0  0  0  0  0  0  0  0  0  0  0  0
    0.7626   -0.2767    1.3925 C   0  0  0  0  0  0  0  0  0  0  0  0
    1.9662   -0.2816    1.6160 O   0  0  0  0  0  0  0  0  0  0  0  0
   -0.0965    0.2186    2.3576 N   0  0  0  0  0  0  0  0  0  0  0  0
   -1.0874    0.1163    2.1649 H   0  0  0  0  0  0  0  0  0  0  0  0
    0.3266    0.4875    3.7261 C   0  0  0  0  0  0  0  0  0  0  0  0
    1.1286    1.2329    3.7401 H   0  0  0  0  0  0  0  0  0  0  0  0
   -0.5124    0.8741    4.3124 H   0  0  0  0  0  0  0  0  0  0  0  0
    0.6900   -0.4299    4.2012 H   0  0  0  0  0  0  0  0  0  0  0  0
  1  2  1  0  0  0  0
  2  3  1  0  0  0  0
  2  4  1  0  0  0  0
  2  5  1  0  0  0  0
  5  6  2  0  0  0  0
  5  7  1  0  0  0  0
  7  8  1  0  0  0  0
  7  9  1  0  0  0  0
  9 10  1  0  0  0  0
  9 11  1  0  0  0  0
  9 22  1  0  0  0  0
 11 12  1  0  0  0  0
 11 13  1  0  0  0  0
 11 14  1  0  0  0  0
 14 15  1  0  0  0  0
 14 16  1  0  0  0  0
 14 17  1  0  0  0  0
 17 18  1  0  0  0  0
 18 19  1  0  0  0  0
 18 20  1  0  0  0  0
 18 21  1  0  0  0  0
 22 23  2  0  0  0  0
 22 24  1  0  0  0  0
 24 25  1  0  0  0  0
 24 26  1  0  0  0  0
 26 27  1  0  0  0  0
 26 28  1  0  0  0  0
 26 29  1  0  0  0  0
M  END
$$$$

  -OEChem-04042216023D

 29 28  0     1  0  0  0  0  0999 V2000
   -2.6968   -4.0786    0.6138 H   0  0  0  0  0  0  0  0  0  0  0  0
   -2.6639   -3.0920    0.1426 C   0  0  0  0  0  0  0  0  0  0  0  0
   -3.4653   -2.4771    0.5592 H   0  0  0  0  0  0  0  0  0  0  0  0
   -2.8242   -3.2110   -0.9318 H   0  0  0  0  0  0  0  0  0  0  0  0
   -1.3195   -2.4369    0.3970 C   0  0  0  0  0  0  0  0  0  0  0  0
   -0.4775   -3.0148    1.0593 O   0  0  0  0  0  0  0  0  0  0  0  0
   -1.0594   -1.1836   -0.1216 N   0  0  0  0  0  0  0  0  0  0  0  0
   -1.7698   -0.7897   -0.7311 H   0  0  0  0  0  0  0  0  0  0  0  0
    0.2518   -0.5085   -0.0514 C   0  0  1  0  0  0  0  0  0  0  0  0
    0.9860   -1.1870   -0.5014 H   0  0  0  0  0  0  0  0  0  0  0  0
    0.1933    0.7578   -0.9486 C   0  0  0  0  0  0  0  0  0  0  0  0
    0.9626    0.6347   -1.7167 H   0  0  0  0  0  0  0  0  0  0  0  0
   -0.7659    0.8144   -1.4727 H   0  0  0  0  0  0  0  0  0  0  0  0
    0.4387    2.1057   -0.2495 C   0  0  0  0  0  0  0  0  0  0  0  0
   -0.4350    2.3782    0.3509 H   0  0  0  0  0  0  0  0  0  0  0  0
    1.3071    2.0579    0.4155 H   0  0  0  0  0  0  0  0  0  0  0  0
    0.7679    3.4034   -1.5082 S   0  0  0  0  0  0  0  0  0  0  0  0
    2.5406    3.1210   -1.9027 C   0  0  0  0  0  0  0  0  0  0  0  0
    2.6871    2.1240   -2.3274 H   0  0  0  0  0  0  0  0  0  0  0  0
    2.8847    3.8629   -2.6291 H   0  0  0  0  0  0  0  0  0  0  0  0
    3.1490    3.2096   -0.9976 H   0  0  0  0  0  0  0  0  0  0  0  0
    0.7609   -0.2668    1.3905 C   0  0  0  0  0  0  0  0  0  0  0  0
    1.9644   -0.2664    1.6145 O   0  0  0  0  0  0  0  0  0  0  0  0
   -0.1001    0.2253    2.3554 N   0  0  0  0  0  0  0  0  0  0  0  0
   -1.0908    0.1206    2.1630 H   0  0  0  0  0  0  0  0  0  0  0  0
    0.3233    0.5039    3.7221 C   0  0  0  0  0  0  0  0  0  0  0  0
    1.1209    1.2543    3.7312 H   0  0  0  0  0  0  0  0  0  0  0  0
   -0.5171    0.8889    4.3077 H   0  0  0  0  0  0  0  0  0  0  0  0
    0.6930   -0.4086    4.2017 H   0  0  0  0  0  0  0  0  0  0  0  0
  1  2  1  0  0  0  0
  2  3  1  0  0  0  0
  2  4  1  0  0  0  0
  2  5  1  0  0  0  0
  5  6  2  0  0  0  0
  5  7  1  0  0  0  0
  7  8  1  0  0  0  0
  7  9  1  0  0  0  0
  9 10  1  0  0  0  0
  9 11  1  0  0  0  0
  9 22  1  0  0  0  0
 11 12  1  0  0  0  0
 11 13  1  0  0  0  0
 11 14  1  0  0  0  0
 14 15  1  0  0  0  0
 14 16  1  0  0  0  0
 14 17  1  0  0  0  0
 17 18  1  0  0  0  0
 18 19  1  0  0  0  0
 18 20  1  0  0  0  0
 18 21  1  0  0  0  0
 22 23  2  0  0  0  0
 22 24  1  0  0  0  0
 24 25  1  0  0  0  0
 24 26  1  0  0  0  0
 26 27  1  0  0  0  0
 26 28  1  0  0  0  0
 26 29  1  0  0  0  0
M  END
$$$$

  -OEChem-04042216023D

 29 28  0     1  0  0  0  0  0999 V2000
   -2.6724   -4.0686    0.6169 H   0  0  0  0  0  0  0  0  0  0  0  0
   -2.6428   -3.0819    0.1454 C   0  0  0  0  0  0  0  0  0  0  0  0
   -3.4403   -2.4665    0.5683 H   0  0  0  0  0  0  0  0  0  0  0  0
   -2.8114   -3.2009   -0.9277 H   0  0  0  0  0  0  0  0  0  0  0  0
   -1.2962   -2.4277    0.3905 C   0  0  0  0  0  0  0  0  0  0  0  0
   -0.4507   -3.0074    1.0466 O   0  0  0  0  0  0  0  0  0  0  0  0
   -1.0376   -1.1745   -0.1294 N   0  0  0  0  0  0  0  0  0  0  0  0
   -1.7493   -0.7802   -0.7373 H   0  0  0  0  0  0  0  0  0  0  0  0
    0.2717   -0.4953   -0.0544 C   0  0  1  0  0  0  0  0  0  0  0  0
    1.0206   -1.1585   -0.5027 H   0  0  0  0  0  0  0  0  0  0  0  0
    0.2038    0.7843   -0.9304 C   0  0  0  0  0  0  0  0  0  0  0  0
    0.7259    0.5772   -1.8691 H   0  0  0  0  0  0  0  0  0  0  0  0
   -0.8386    1.0024   -1.1839 H   0  0  0  0  0  0  0  0  0  0  0  0
    0.7925    2.0579   -0.3043 C   0  0  0  0  0  0  0  0  0  0  0  0
    0.2557    2.3104    0.6153 H   0  0  0  0  0  0  0  0  0  0  0  0
    1.8485    1.9113   -0.0523 H   0  0  0  0  0  0  0  0  0  0  0  0
    0.6235    3.4595   -1.4804 S   0  0  0  0  0  0  0  0  0  0  0  0
    1.9828    3.1397   -2.6745 C   0  0  0  0  0  0  0  0  0  0  0  0
    1.8153    2.1985   -3.2053 H   0  0  0  0  0  0  0  0  0  0  0  0
    2.0332    3.9490   -3.4090 H   0  0  0  0  0  0  0  0  0  0  0  0
    2.9418    3.0829   -2.1506 H   0  0  0  0  0  0  0  0  0  0  0  0
    0.7619   -0.2554    1.3953 C   0  0  0  0  0  0  0  0  0  0  0  0
    1.9616   -0.2671    1.6381 O   0  0  0  0  0  0  0  0  0  0  0  0
   -0.1103    0.2320    2.3524 N   0  0  0  0  0  0  0  0  0  0  0  0
   -1.0990    0.1418    2.1430 H   0  0  0  0  0  0  0  0  0  0  0  0
    0.2950    0.4950    3.7275 C   0  0  0  0  0  0  0  0  0  0  0  0
    1.0940    1.2433    3.7559 H   0  0  0  0  0  0  0  0  0  0  0  0
   -0.5524    0.8751    4.3058 H   0  0  0  0  0  0  0  0  0  0  0  0
    0.6563   -0.4240    4.2014 H   0  0  0  0  0  0  0  0  0  0  0  0
  1  2  1  0  0  0  0
  2  3  1  0  0  0  0
  2  4  1  0  0  0  0
  2  5  1  0  0  0  0
  5  6  2  0  0  0  0
  5  7  1  0  0  0  0
  7  8  1  0  0  0  0
  7  9  1  0  0  0  0
  9 10  1  0  0  0  0
  9 11  1  0  0  0  0
  9 22  1  0  0  0  0
 11 12  1  0  0  0  0
 11 13  1  0  0  0  0
 11 14  1  0  0  0  0
 14 15  1  0  0  0  0
 14 16  1  0  0  0  0
 14 17  1  0  0  0  0
 17 18  1  0  0  0  0
 18 19  1  0  0  0  0
 18 20  1  0  0  0  0
 18 21  1  0  0  0  0
 22 23  2  0  0  0  0
 22 24  1  0  0  0  0
 24 25  1  0  0  0  0
 24 26  1  0  0  0  0
 26 27  1  0  0  0  0
 26 28  1  0  0  0  0
 26 29  1  0  0  0  0
M  END
$$$$

  -OEChem-04042216023D

 29 28  0     1  0  0  0  0  0999 V2000
   -2.6581   -4.0570    0.5707 H   0  0  0  0  0  0  0  0  0  0  0  0
   -2.6311   -3.0596    0.1225 C   0  0  0  0  0  0  0  0  0  0  0  0
   -3.4194   -2.4510    0.5717 H   0  0  0  0  0  0  0  0  0  0  0  0
   -2.8162   -3.1522   -0.9503 H   0  0  0  0  0  0  0  0  0  0  0  0
   -1.2779   -2.4175    0.3623 C   0  0  0  0  0  0  0  0  0  0  0  0
   -0.4237   -3.0172    0.9887 O   0  0  0  0  0  0  0  0  0  0  0  0
   -1.0225   -1.1518   -0.1281 N   0  0  0  0  0  0  0  0  0  0  0  0
   -1.7487   -0.7277   -0.6975 H   0  0  0  0  0  0  0  0  0  0  0  0
    0.2829   -0.4680   -0.0322 C   0  0  1  0  0  0  0  0  0  0  0  0
    1.0342   -1.1284   -0.4807 H   0  0  0  0  0  0  0  0  0  0  0  0
    0.2362    0.8158   -0.9045 C   0  0  0  0  0  0  0  0  0  0  0  0
    0.7623    0.6164   -1.8429 H   0  0  0  0  0  0  0  0  0  0  0  0
   -0.8064    1.0296   -1.1608 H   0  0  0  0  0  0  0  0  0  0  0  0
    0.8131    2.0942   -0.2734 C   0  0  0  0  0  0  0  0  0  0  0  0
    0.4367    2.2287    0.7444 H   0  0  0  0  0  0  0  0  0  0  0  0
    1.9059    2.0372   -0.2235 H   0  0  0  0  0  0  0  0  0  0  0  0
    0.2791    3.5618   -1.2428 S   0  0  0  0  0  0  0  0  0  0  0  0
    1.2995    3.4260   -2.7644 C   0  0  0  0  0  0  0  0  0  0  0  0
    1.0424    2.5197   -3.3199 H   0  0  0  0  0  0  0  0  0  0  0  0
    1.1240    4.2915   -3.4100 H   0  0  0  0  0  0  0  0  0  0  0  0
    2.3622    3.3923   -2.5060 H   0  0  0  0  0  0  0  0  0  0  0  0
    0.7657   -0.2578    1.4239 C   0  0  0  0  0  0  0  0  0  0  0  0
    1.9651   -0.2533    1.6684 O   0  0  0  0  0  0  0  0  0  0  0  0
   -0.1148    0.2037    2.3864 N   0  0  0  0  0  0  0  0  0  0  0  0
   -1.1018    0.1110    2.1706 H   0  0  0  0  0  0  0  0  0  0  0  0
    0.2819    0.4462    3.7674 C   0  0  0  0  0  0  0  0  0  0  0  0
    1.0683    1.2070    3.8131 H   0  0  0  0  0  0  0  0  0  0  0  0
   -0.5737    0.8003    4.3504 H   0  0  0  0  0  0  0  0  0  0  0  0
    0.6567   -0.4759    4.2244 H   0  0  0  0  0  0  0  0  0  0  0  0
  1  2  1  0  0  0  0
  2  3  1  0  0  0  0
  2  4  1  0  0  0  0
  2  5  1  0  0  0  0
  5  6  2  0  0  0  0
  5  7  1  0  0  0  0
  7  8  1  0  0  0  0
  7  9  1  0  0  0  0
  9 10  1  0  0  0  0
  9 11  1  0  0  0  0
  9 22  1  0  0  0  0
 11 12  1  0  0  0  0
 11 13  1  0  0  0  0
 11 14  1  0  0  0  0
 14 15  1  0  0  0  0
 14 16  1  0  0  0  0
 14 17  1  0  0  0  0
 17 18  1  0  0  0  0
 18 19  1  0  0  0  0
 18 20  1  0  0  0  0
 18 21  1  0  0  0  0
 22 23  2  0  0  0  0
 22 24  1  0  0  0  0
 24 25  1  0  0  0  0
 24 26  1  0  0  0  0
 26 27  1  0  0  0  0
 26 28  1  0  0  0  0
 26 29  1  0  0  0  0
M  END
$$$$

  -OEChem-04042216023D

 29 28  0     1  0  0  0  0  0999 V2000
   -2.6748   -4.0318    0.5527 H   0  0  0  0  0  0  0  0  0  0  0  0
   -2.6392   -3.0314    0.1118 C   0  0  0  0  0  0  0  0  0  0  0  0
   -3.4117   -2.4147    0.5774 H   0  0  0  0  0  0  0  0  0  0  0  0
   -2.8413   -3.1123   -0.9590 H   0  0  0  0  0  0  0  0  0  0  0  0
   -1.2728   -2.4116    0.3366 C   0  0  0  0  0  0  0  0  0  0  0  0
   -0.4125   -3.0359    0.9301 O   0  0  0  0  0  0  0  0  0  0  0  0
   -1.0123   -1.1377   -0.1293 N   0  0  0  0  0  0  0  0  0  0  0  0
   -1.7510   -0.6824   -0.6571 H   0  0  0  0  0  0  0  0  0  0  0  0
    0.2952   -0.4594   -0.0192 C   0  0  1  0  0  0  0  0  0  0  0  0
    1.0442   -1.1176   -0.4741 H   0  0  0  0  0  0  0  0  0  0  0  0
    0.2597    0.8340   -0.8814 C   0  0  0  0  0  0  0  0  0  0  0  0
    0.7815    0.6421   -1.8242 H   0  0  0  0  0  0  0  0  0  0  0  0
   -0.7845    1.0427   -1.1349 H   0  0  0  0  0  0  0  0  0  0  0  0
    0.8329    2.1216   -0.2557 C   0  0  0  0  0  0  0  0  0  0  0  0
    0.6760    2.1505    0.8247 H   0  0  0  0  0  0  0  0  0  0  0  0
    1.9115    2.1838   -0.4343 H   0  0  0  0  0  0  0  0  0  0  0  0
   -0.0386    3.5893   -0.9393 S   0  0  0  0  0  0  0  0  0  0  0  0
    0.6022    3.6518   -2.6594 C   0  0  0  0  0  0  0  0  0  0  0  0
    0.3239    2.7462   -3.2058 H   0  0  0  0  0  0  0  0  0  0  0  0
    0.1847    4.5173   -3.1823 H   0  0  0  0  0  0  0  0  0  0  0  0
    1.6928    3.7394   -2.6538 H   0  0  0  0  0  0  0  0  0  0  0  0
    0.7743   -0.2793    1.4419 C   0  0  0  0  0  0  0  0  0  0  0  0
    1.9733   -0.2794    1.6885 O   0  0  0  0  0  0  0  0  0  0  0  0
   -0.1073    0.1659    2.4113 N   0  0  0  0  0  0  0  0  0  0  0  0
   -1.0946    0.0999    2.1876 H   0  0  0  0  0  0  0  0  0  0  0  0
    0.2881    0.4040    3.7936 C   0  0  0  0  0  0  0  0  0  0  0  0
    1.0648    1.1744    3.8433 H   0  0  0  0  0  0  0  0  0  0  0  0
   -0.5712    0.7431    4.3798 H   0  0  0  0  0  0  0  0  0  0  0  0
    0.6750   -0.5161    4.2443 H   0  0  0  0  0  0  0  0  0  0  0  0
  1  2  1  0  0  0  0
  2  3  1  0  0  0  0
  2  4  1  0  0  0  0
  2  5  1  0  0  0  0
  5  6  2  0  0  0  0
  5  7  1  0  0  0  0
  7  8  1  0  0  0  0
  7  9  1  0  0  0  0
  9 10  1  0  0  0  0
  9 11  1  0  0  0  0
  9 22  1  0  0  0  0
 11 12  1  0  0  0  0
 11 13  1  0  0  0  0
 11 14  1  0  0  0  0
 14 15  1  0  0  0  0
 14 16  1  0  0  0  0
 14 17  1  0  0  0  0
 17 18  1  0  0  0  0
 18 19  1  0  0  0  0
 18 20  1  0  0  0  0
 18 21  1  0  0  0  0
 22 23  2  0  0  0  0
 22 24  1  0  0  0  0
 24 25  1  0  0  0  0
 24 26  1  0  0  0  0
 26 27  1  0  0  0  0
 26 28  1  0  0  0  0
 26 29  1  0  0  0  0
M  END
$$$$

  -OEChem-04042216023D

 29 28  0     1  0  0  0  0  0999 V2000
   -2.6990   -4.0103    0.5503 H   0  0  0  0  0  0  0  0  0  0  0  0
   -2.6535   -3.0067    0.1175 C   0  0  0  0  0  0  0  0  0  0  0  0
   -3.4123   -2.3831    0.5962 H   0  0  0  0  0  0  0  0  0  0  0  0
   -2.8675   -3.0760   -0.9518 H   0  0  0  0  0  0  0  0  0  0  0  0
   -1.2761   -2.4085    0.3336 C   0  0  0  0  0  0  0  0  0  0  0  0
   -0.4182   -3.0518    0.9097 O   0  0  0  0  0  0  0  0  0  0  0  0
   -1.0019   -1.1348   -0.1247 N   0  0  0  0  0  0  0  0  0  0  0  0
   -1.7429   -0.6601   -0.6313 H   0  0  0  0  0  0  0  0  0  0  0  0
    0.3123   -0.4697   -0.0112 C   0  0  1  0  0  0  0  0  0  0  0  0
    1.0573   -1.1285   -0.4722 H   0  0  0  0  0  0  0  0  0  0  0  0
    0.2735    0.8310   -0.8653 C   0  0  0  0  0  0  0  0  0  0  0  0
    0.7921    0.6383   -1.8096 H   0  0  0  0  0  0  0  0  0  0  0  0
   -0.7708    1.0330   -1.1225 H   0  0  0  0  0  0  0  0  0  0  0  0
    0.8497    2.1298   -0.2552 C   0  0  0  0  0  0  0  0  0  0  0  0
    0.9776    2.0673    0.8265 H   0  0  0  0  0  0  0  0  0  0  0  0
    1.8374    2.3342   -0.6809 H   0  0  0  0  0  0  0  0  0  0  0  0
   -0.2919    3.5369   -0.5719 S   0  0  0  0  0  0  0  0  0  0  0  0
   -0.0676    3.8091   -2.3747 C   0  0  0  0  0  0  0  0  0  0  0  0
   -0.3543    2.9153   -2.9362 H   0  0  0  0  0  0  0  0  0  0  0  0
   -0.6899    4.6454   -2.7068 H   0  0  0  0  0  0  0  0  0  0  0  0
    0.9785    4.0428   -2.5941 H   0  0  0  0  0  0  0  0  0  0  0  0
    0.7873   -0.3056    1.4526 C   0  0  0  0  0  0  0  0  0  0  0  0
    1.9844   -0.3351    1.7075 O   0  0  0  0  0  0  0  0  0  0  0  0
   -0.0928    0.1414    2.4221 N   0  0  0  0  0  0  0  0  0  0  0  0
   -1.0786    0.1253    2.1837 H   0  0  0  0  0  0  0  0  0  0  0  0
    0.2979    0.3767    3.8061 C   0  0  0  0  0  0  0  0  0  0  0  0
    1.0659    1.1554    3.8605 H   0  0  0  0  0  0  0  0  0  0  0  0
   -0.5661    0.7032    4.3925 H   0  0  0  0  0  0  0  0  0  0  0  0
    0.6940   -0.5413    4.2529 H   0  0  0  0  0  0  0  0  0  0  0  0
  1  2  1  0  0  0  0
  2  3  1  0  0  0  0
  2  4  1  0  0  0  0
  2  5  1  0  0  0  0
  5  6  2  0  0  0  0
  5  7  1  0  0  0  0
  7  8  1  0  0  0  0
  7  9  1  0  0  0  0
  9 10  1  0  0  0  0
  9 11  1  0  0  0  0
  9 22  1  0  0  0  0
 11 12  1  0  0  0  0
 11 13  1  0  0  0  0
 11 14  1  0  0  0  0
 14 15  1  0  0  0  0
 14 16  1  0  0  0  0
 14 17  1  0  0  0  0
 17 18  1  0  0  0  0
 18 19  1  0  0  0  0
 18 20  1  0  0  0  0
 18 21  1  0  0  0  0
 22 23  2  0  0  0  0
 22 24  1  0  0  0  0
 24 25  1  0  0  0  0
 24 26  1  0  0  0  0
 26 27  1  0  0  0  0
 26 28  1  0  0  0  0
 26 29  1  0  0  0  0
M  END
$$$$

  -OEChem-04042216023D

 29 28  0     1  0  0  0  0  0999 V2000
   -2.7108   -4.0108    0.6015 H   0  0  0  0  0  0  0  0  0  0  0  0
   -2.6601   -3.0122    0.1577 C   0  0  0  0  0  0  0  0  0  0  0  0
   -3.3966   -2.3720    0.6491 H   0  0  0  0  0  0  0  0  0  0  0  0
   -2.9018   -3.0879   -0.9054 H   0  0  0  0  0  0  0  0  0  0  0  0
   -1.2683   -2.4344    0.3336 C   0  0  0  0  0  0  0  0  0  0  0  0
   -0.4025   -3.0937    0.8793 O   0  0  0  0  0  0  0  0  0  0  0  0
   -0.9874   -1.1658   -0.1356 N   0  0  0  0  0  0  0  0  0  0  0  0
   -1.7409   -0.6707   -0.6024 H   0  0  0  0  0  0  0  0  0  0  0  0
    0.3300   -0.5064   -0.0246 C   0  0  1  0  0  0  0  0  0  0  0  0
    1.0769   -1.1626   -0.4862 H   0  0  0  0  0  0  0  0  0  0  0  0
    0.2749    0.7990   -0.8709 C   0  0  0  0  0  0  0  0  0  0  0  0
    0.8103    0.6043   -1.8057 H   0  0  0  0  0  0  0  0  0  0  0  0
   -0.7648    0.9948   -1.1503 H   0  0  0  0  0  0  0  0  0  0  0  0
    0.8526    2.0989   -0.2614 C   0  0  0  0  0  0  0  0  0  0  0  0
    1.2905    1.9578    0.7282 H   0  0  0  0  0  0  0  0  0  0  0  0
    1.6597    2.4675   -0.9025 H   0  0  0  0  0  0  0  0  0  0  0  0
   -0.4575    3.3848   -0.1444 S   0  0  0  0  0  0  0  0  0  0  0  0
   -0.6456    3.9082   -1.8954 C   0  0  0  0  0  0  0  0  0  0  0  0
   -0.9434    3.0610   -2.5194 H   0  0  0  0  0  0  0  0  0  0  0  0
   -1.4115    4.6857   -1.9731 H   0  0  0  0  0  0  0  0  0  0  0  0
    0.2990    4.3099   -2.2743 H   0  0  0  0  0  0  0  0  0  0  0  0
    0.7932   -0.3360    1.4426 C   0  0  0  0  0  0  0  0  0  0  0  0
    1.9847   -0.4038    1.7160 O   0  0  0  0  0  0  0  0  0  0  0  0
   -0.0909    0.1225    2.4027 N   0  0  0  0  0  0  0  0  0  0  0  0
   -1.0663    0.1954    2.1340 H   0  0  0  0  0  0  0  0  0  0  0  0
    0.2918    0.3991    3.7811 C   0  0  0  0  0  0  0  0  0  0  0  0
    1.0458    1.1924    3.8177 H   0  0  0  0  0  0  0  0  0  0  0  0
   -0.5797    0.7239    4.3574 H   0  0  0  0  0  0  0  0  0  0  0  0
    0.7027   -0.5003    4.2518 H   0  0  0  0  0  0  0  0  0  0  0  0
  1  2  1  0  0  0  0
  2  3  1  0  0  0  0
  2  4  1  0  0  0  0
  2  5  1  0  0  0  0
  5  6  2  0  0  0  0
  5  7  1  0  0  0  0
  7  8  1  0  0  0  0
  7  9  1  0  0  0  0
  9 10  1  0  0  0  0
  9 11  1  0  0  0  0
  9 22  1  0  0  0  0
 11 12  1  0  0  0  0
 11 13  1  0  0  0  0
 11 14  1  0  0  0  0
 14 15  1  0  0  0  0
 14 16  1  0  0  0  0
 14 17  1  0  0  0  0
 17 18  1  0  0  0  0
 18 19  1  0  0  0  0
 18 20  1  0  0  0  0
 18 21  1  0  0  0  0
 22 23  2  0  0  0  0
 22 24  1  0  0  0  0
 24 25  1  0  0  0  0
 24 26  1  0  0  0  0
 26 27  1  0  0  0  0
 26 28  1  0  0  0  0
 26 29  1  0  0  0  0
M  END
$$$$

  -OEChem-04042216023D

 29 28  0     1  0  0  0  0  0999 V2000
   -2.7014   -4.0367    0.6345 H   0  0  0  0  0  0  0  0  0  0  0  0
   -2.6531   -3.0398    0.1870 C   0  0  0  0  0  0  0  0  0  0  0  0
   -3.3714   -2.3920    0.6949 H   0  0  0  0  0  0  0  0  0  0  0  0
   -2.9219   -3.1155   -0.8693 H   0  0  0  0  0  0  0  0  0  0  0  0
   -1.2524   -2.4741    0.3256 C   0  0  0  0  0  0  0  0  0  0  0  0
   -0.3764   -3.1421    0.8435 O   0  0  0  0  0  0  0  0  0  0  0  0
   -0.9749   -1.2089   -0.1537 N   0  0  0  0  0  0  0  0  0  0  0  0
   -1.7439   -0.6992   -0.5772 H   0  0  0  0  0  0  0  0  0  0  0  0
    0.3380   -0.5427   -0.0389 C   0  0  1  0  0  0  0  0  0  0  0  0
    1.0929   -1.1933   -0.4954 H   0  0  0  0  0  0  0  0  0  0  0  0
    0.2660    0.7609   -0.8842 C   0  0  0  0  0  0  0  0  0  0  0  0
    0.8266    0.5704   -1.8049 H   0  0  0  0  0  0  0  0  0  0  0  0
   -0.7673    0.9510   -1.1891 H   0  0  0  0  0  0  0  0  0  0  0  0
    0.8335    2.0531   -0.2589 C   0  0  0  0  0  0  0  0  0  0  0  0
    1.5215    1.8633    0.5685 H   0  0  0  0  0  0  0  0  0  0  0  0
    1.4137    2.5878   -1.0176 H   0  0  0  0  0  0  0  0  0  0  0  0
   -0.5431    3.1457    0.2858 S   0  0  0  0  0  0  0  0  0  0  0  0
   -1.0974    3.9023   -1.2947 C   0  0  0  0  0  0  0  0  0  0  0  0
   -1.4316    3.1314   -1.9947 H   0  0  0  0  0  0  0  0  0  0  0  0
   -1.9286    4.5892   -1.1093 H   0  0  0  0  0  0  0  0  0  0  0  0
   -0.2773    4.4627   -1.7536 H   0  0  0  0  0  0  0  0  0  0  0  0
    0.7892   -0.3561    1.4311 C   0  0  0  0  0  0  0  0  0  0  0  0
    1.9761   -0.4457    1.7185 O   0  0  0  0  0  0  0  0  0  0  0  0
   -0.0999    0.1079    2.3840 N   0  0  0  0  0  0  0  0  0  0  0  0
   -1.0544    0.2753    2.0843 H   0  0  0  0  0  0  0  0  0  0  0  0
    0.2896    0.4471    3.7461 C   0  0  0  0  0  0  0  0  0  0  0  0
    1.0131    1.2691    3.7438 H   0  0  0  0  0  0  0  0  0  0  0  0
   -0.5858    0.7578    4.3240 H   0  0  0  0  0  0  0  0  0  0  0  0
    0.7406   -0.4194    4.2410 H   0  0  0  0  0  0  0  0  0  0  0  0
  1  2  1  0  0  0  0
  2  3  1  0  0  0  0
  2  4  1  0  0  0  0
  2  5  1  0  0  0  0
  5  6  2  0  0  0  0
  5  7  1  0  0  0  0
  7  8  1  0  0  0  0
  7  9  1  0  0  0  0
  9 10  1  0  0  0  0
  9 11  1  0  0  0  0
  9 22  1  0  0  0  0
 11 12  1  0  0  0  0
 11 13  1  0  0  0  0
 11 14  1  0  0  0  0
 14 15  1  0  0  0  0
 14 16  1  0  0  0  0
 14 17  1  0  0  0  0
 17 18  1  0  0  0  0
 18 19  1  0  0  0  0
 18 20  1  0  0  0  0
 18 21  1  0  0  0  0
 22 23  2  0  0  0  0
 22 24  1  0  0  0  0
 24 25  1  0  0  0  0
 24 26  1  0  0  0  0
 26 27  1  0  0  0  0
 26 28  1  0  0  0  0
 26 29  1  0  0  0  0
M  END
$$$$

  -OEChem-04042216023D

 29 28  0     1  0  0  0  0  0999 V2000
   -2.6587   -4.1005    0.6208 H   0  0  0  0  0  0  0  0  0  0  0  0
   -2.6367   -3.0907    0.2011 C   0  0  0  0  0  0  0  0  0  0  0  0
   -3.3417   -2.4656    0.7539 H   0  0  0  0  0  0  0  0  0  0  0  0
   -2.9440   -3.1393   -0.8461 H   0  0  0  0  0  0  0  0  0  0  0  0
   -1.2374   -2.5142    0.3056 C   0  0  0  0  0  0  0  0  0  0  0  0
   -0.3417   -3.1822    0.7888 O   0  0  0  0  0  0  0  0  0  0  0  0
   -0.9832   -1.2402   -0.1633 N   0  0  0  0  0  0  0  0  0  0  0  0
   -1.7693   -0.7256   -0.5466 H   0  0  0  0  0  0  0  0  0  0  0  0
    0.3185   -0.5556   -0.0395 C   0  0  1  0  0  0  0  0  0  0  0  0
    1.0794   -1.2026   -0.4915 H   0  0  0  0  0  0  0  0  0  0  0  0
    0.2540    0.7411   -0.8941 C   0  0  0  0  0  0  0  0  0  0  0  0
    0.8360    0.5517   -1.8018 H   0  0  0  0  0  0  0  0  0  0  0  0
   -0.7731    0.9321   -1.2181 H   0  0  0  0  0  0  0  0  0  0  0  0
    0.8062    2.0253   -0.2500 C   0  0  0  0  0  0  0  0  0  0  0  0
    1.6561    1.8170    0.4072 H   0  0  0  0  0  0  0  0  0  0  0  0
    1.1778    2.6901   -1.0360 H   0  0  0  0  0  0  0  0  0  0  0  0
   -0.5305    2.9006    0.6649 S   0  0  0  0  0  0  0  0  0  0  0  0
   -1.4007    3.8082   -0.6747 C   0  0  0  0  0  0  0  0  0  0  0  0
   -1.8091    3.1100   -1.4108 H   0  0  0  0  0  0  0  0  0  0  0  0
   -2.2235    4.3950   -0.2555 H   0  0  0  0  0  0  0  0  0  0  0  0
   -0.7097    4.4889   -1.1809 H   0  0  0  0  0  0  0  0  0  0  0  0
    0.7751   -0.3697    1.4300 C   0  0  0  0  0  0  0  0  0  0  0  0
    1.9645   -0.4545    1.7095 O   0  0  0  0  0  0  0  0  0  0  0  0
   -0.1116    0.0747    2.3944 N   0  0  0  0  0  0  0  0  0  0  0  0
   -1.0448    0.3159    2.0787 H   0  0  0  0  0  0  0  0  0  0  0  0
    0.3010    0.4660    3.7359 C   0  0  0  0  0  0  0  0  0  0  0  0
    0.9602    1.3393    3.6937 H   0  0  0  0  0  0  0  0  0  0  0  0
   -0.5737    0.7198    4.3420 H   0  0  0  0  0  0  0  0  0  0  0  0
    0.8336   -0.3551    4.2271 H   0  0  0  0  0  0  0  0  0  0  0  0
  1  2  1  0  0  0  0
  2  3  1  0  0  0  0
  2  4  1  0  0  0  0
  2  5  1  0  0  0  0
  5  6  2  0  0  0  0
  5  7  1  0  0  0  0
  7  8  1  0  0  0  0
  7  9  1  0  0  0  0
  9 10  1  0  0  0  0
  9 11  1  0  0  0  0
  9 22  1  0  0  0  0
 11 12  1  0  0  0  0
 11 13  1  0  0  0  0
 11 14  1  0  0  0  0
 14 15  1  0  0  0  0
 14 16  1  0  0  0  0
 14 17  1  0  0  0  0
 17 18  1  0  0  0  0
 18 19  1  0  0  0  0
 18 20  1  0  0  0  0
 18 21  1  0  0  0  0
 22 23  2  0  0  0  0
 22 24  1  0  0  0  0
 24 25  1  0  0  0  0
 24 26  1  0  0  0  0
 26 27  1  0  0  0  0
 26 28  1  0  0  0  0
 26 29  1  0  0  0  0
M  END
$$$$

  -OEChem-04042216023D

 29 28  0     1  0  0  0  0  0999 V2000
   -2.6376   -4.1476    0.5327 H   0  0  0  0  0  0  0  0  0  0  0  0
   -2.6363   -3.1147    0.1728 C   0  0  0  0  0  0  0  0  0  0  0  0
   -3.3355   -2.5315    0.7766 H   0  0  0  0  0  0  0  0  0  0  0  0
   -2.9666   -3.1059   -0.8687 H   0  0  0  0  0  0  0  0  0  0  0  0
   -1.2419   -2.5268    0.2808 C   0  0  0  0  0  0  0  0  0  0  0  0
   -0.3310   -3.2027    0.7232 O   0  0  0  0  0  0  0  0  0  0  0  0
   -1.0109   -1.2312   -0.1380 N   0  0  0  0  0  0  0  0  0  0  0  0
   -1.8131   -0.7064   -0.4706 H   0  0  0  0  0  0  0  0  0  0  0  0
    0.2808   -0.5326    0.0029 C   0  0  1  0  0  0  0  0  0  0  0  0
    1.0335   -1.1874   -0.4518 H   0  0  0  0  0  0  0  0  0  0  0  0
    0.2593    0.7471   -0.8785 C   0  0  0  0  0  0  0  0  0  0  0  0
    0.8648    0.5386   -1.7664 H   0  0  0  0  0  0  0  0  0  0  0  0
   -0.7585    0.9361   -1.2316 H   0  0  0  0  0  0  0  0  0  0  0  0
    0.7910    2.0456   -0.2515 C   0  0  0  0  0  0  0  0  0  0  0  0
    1.7481    1.8565    0.2469 H   0  0  0  0  0  0  0  0  0  0  0  0
    0.9790    2.7806   -1.0405 H   0  0  0  0  0  0  0  0  0  0  0  0
   -0.4094    2.7577    0.9502 S   0  0  0  0  0  0  0  0  0  0  0  0
   -1.6088    3.6170   -0.1436 C   0  0  0  0  0  0  0  0  0  0  0  0
   -2.1056    2.9030   -0.8063 H   0  0  0  0  0  0  0  0  0  0  0  0
   -2.3694    4.1218    0.4597 H   0  0  0  0  0  0  0  0  0  0  0  0
   -1.0949    4.3659   -0.7536 H   0  0  0  0  0  0  0  0  0  0  0  0
    0.7751   -0.3832    1.4646 C   0  0  0  0  0  0  0  0  0  0  0  0
    1.9749   -0.4497    1.7014 O   0  0  0  0  0  0  0  0  0  0  0  0
   -0.0838    0.0146    2.4735 N   0  0  0  0  0  0  0  0  0  0  0  0
   -1.0202    0.2800    2.1886 H   0  0  0  0  0  0  0  0  0  0  0  0
    0.3760    0.3938    3.8035 C   0  0  0  0  0  0  0  0  0  0  0  0
    0.9914    1.2979    3.7511 H   0  0  0  0  0  0  0  0  0  0  0  0
   -0.4787    0.5914    4.4572 H   0  0  0  0  0  0  0  0  0  0  0  0
    0.9696   -0.4117    4.2488 H   0  0  0  0  0  0  0  0  0  0  0  0
  1  2  1  0  0  0  0
  2  3  1  0  0  0  0
  2  4  1  0  0  0  0
  2  5  1  0  0  0  0
  5  6  2  0  0  0  0
  5  7  1  0  0  0  0
  7  8  1  0  0  0  0
  7  9  1  0  0  0  0
  9 10  1  0  0  0  0
  9 11  1  0  0  0  0
  9 22  1  0  0  0  0
 11 12  1  0  0  0  0
 11 13  1  0  0  0  0
 11 14  1  0  0  0  0
 14 15  1  0  0  0  0
 14 16  1  0  0  0  0
 14 17  1  0  0  0  0
 17 18  1  0  0  0  0
 18 19  1  0  0  0  0
 18 20  1  0  0  0  0
 18 21  1  0  0  0  0
 22 23  2  0  0  0  0
 22 24  1  0  0  0  0
 24 25  1  0  0  0  0
 24 26  1  0  0  0  0
 26 27  1  0  0  0  0
 26 28  1  0  0  0  0
 26 29  1  0  0  0  0
M  END
$$$$

  -OEChem-04042216023D

 29 28  0     1  0  0  0  0  0999 V2000
   -2.6462   -4.1349    0.4634 H   0  0  0  0  0  0  0  0  0  0  0  0
   -2.6526   -3.0886    0.1446 C   0  0  0  0  0  0  0  0  0  0  0  0
   -3.3541   -2.5345    0.7727 H   0  0  0  0  0  0  0  0  0  0  0  0
   -2.9854   -3.0406   -0.8951 H   0  0  0  0  0  0  0  0  0  0  0  0
   -1.2614   -2.4973    0.2720 C   0  0  0  0  0  0  0  0  0  0  0  0
   -0.3480   -3.1833    0.6931 O   0  0  0  0  0  0  0  0  0  0  0  0
   -1.0371   -1.1861   -0.1006 N   0  0  0  0  0  0  0  0  0  0  0  0
   -1.8405   -0.6557   -0.4206 H   0  0  0  0  0  0  0  0  0  0  0  0
    0.2563   -0.4916    0.0486 C   0  0  1  0  0  0  0  0  0  0  0  0
    0.9904   -1.1662   -0.4083 H   0  0  0  0  0  0  0  0  0  0  0  0
    0.2942    0.7681   -0.8632 C   0  0  0  0  0  0  0  0  0  0  0  0
    0.9084    0.5224   -1.7360 H   0  0  0  0  0  0  0  0  0  0  0  0
   -0.7152    0.9613   -1.2374 H   0  0  0  0  0  0  0  0  0  0  0  0
    0.8252    2.0942   -0.2903 C   0  0  0  0  0  0  0  0  0  0  0  0
    1.8647    1.9460    0.0231 H   0  0  0  0  0  0  0  0  0  0  0  0
    0.8273    2.8547   -1.0775 H   0  0  0  0  0  0  0  0  0  0  0  0
   -0.1268    2.7277    1.1516 S   0  0  0  0  0  0  0  0  0  0  0  0
   -1.6987    3.2826    0.3816 C   0  0  0  0  0  0  0  0  0  0  0  0
   -2.2299    2.4356   -0.0610 H   0  0  0  0  0  0  0  0  0  0  0  0
   -2.3428    3.7418    1.1374 H   0  0  0  0  0  0  0  0  0  0  0  0
   -1.4972    4.0210   -0.4002 H   0  0  0  0  0  0  0  0  0  0  0  0
    0.7868   -0.3878    1.5011 C   0  0  0  0  0  0  0  0  0  0  0  0
    1.9927   -0.4634    1.7025 O   0  0  0  0  0  0  0  0  0  0  0  0
   -0.0422   -0.0268    2.5484 N   0  0  0  0  0  0  0  0  0  0  0  0
   -0.9914    0.2340    2.3068 H   0  0  0  0  0  0  0  0  0  0  0  0
    0.4539    0.2827    3.8833 C   0  0  0  0  0  0  0  0  0  0  0  0
    1.0948    1.1703    3.8564 H   0  0  0  0  0  0  0  0  0  0  0  0
   -0.3821    0.4768    4.5618 H   0  0  0  0  0  0  0  0  0  0  0  0
    1.0324   -0.5579    4.2814 H   0  0  0  0  0  0  0  0  0  0  0  0
  1  2  1  0  0  0  0
  2  3  1  0  0  0  0
  2  4  1  0  0  0  0
  2  5  1  0  0  0  0
  5  6  2  0  0  0  0
  5  7  1  0  0  0  0
  7  8  1  0  0  0  0
  7  9  1  0  0  0  0
  9 10  1  0  0  0  0
  9 11  1  0  0  0  0
  9 22  1  0  0  0  0
 11 12  1  0  0  0  0
 11 13  1  0  0  0  0
 11 14  1  0  0  0  0
 14 15  1  0  0  0  0
 14 16  1  0  0  0  0
 14 17  1  0  0  0  0
 17 18  1  0  0  0  0
 18 19  1  0  0  0  0
 18 20  1  0  0  0  0
 18 21  1  0  0  0  0
 22 23  2  0  0  0  0
 22 24  1  0  0  0  0
 24 25  1  0  0  0  0
 24 26  1  0  0  0  0
 26 27  1  0  0  0  0
 26 28  1  0  0  0  0
 26 29  1  0  0  0  0
M  END
$$$$

  -OEChem-04042216023D

 29 28  0     1  0  0  0  0  0999 V2000
   -2.6768   -4.1009    0.4617 H   0  0  0  0  0  0  0  0  0  0  0  0
   -2.6579   -3.0714    0.0927 C   0  0  0  0  0  0  0  0  0  0  0  0
   -3.4083   -2.4909    0.6344 H   0  0  0  0  0  0  0  0  0  0  0  0
   -2.9057   -3.0753   -0.9715 H   0  0  0  0  0  0  0  0  0  0  0  0
   -1.2816   -2.4685    0.3028 C   0  0  0  0  0  0  0  0  0  0  0  0
   -0.3927   -3.1445    0.7867 O   0  0  0  0  0  0  0  0  0  0  0  0
   -1.0434   -1.1588   -0.0669 N   0  0  0  0  0  0  0  0  0  0  0  0
   -1.8123   -0.6573   -0.4985 H   0  0  0  0  0  0  0  0  0  0  0  0
    0.2592   -0.4762    0.0699 C   0  0  1  0  0  0  0  0  0  0  0  0
    0.9821   -1.1653   -0.3834 H   0  0  0  0  0  0  0  0  0  0  0  0
    0.3136    0.7676   -0.8678 C   0  0  0  0  0  0  0  0  0  0  0  0
    0.8969    0.4869   -1.7512 H   0  0  0  0  0  0  0  0  0  0  0  0
   -0.7046    0.9590   -1.2187 H   0  0  0  0  0  0  0  0  0  0  0  0
    0.8510    2.1322   -0.3851 C   0  0  0  0  0  0  0  0  0  0  0  0
    1.9421    2.0537   -0.3276 H   0  0  0  0  0  0  0  0  0  0  0  0
    0.6206    2.8896   -1.1408 H   0  0  0  0  0  0  0  0  0  0  0  0
    0.2763    2.7388    1.2522 S   0  0  0  0  0  0  0  0  0  0  0  0
   -1.5337    2.9081    1.0013 C   0  0  0  0  0  0  0  0  0  0  0  0
   -1.9794    1.9375    0.7679 H   0  0  0  0  0  0  0  0  0  0  0  0
   -2.0010    3.2983    1.9104 H   0  0  0  0  0  0  0  0  0  0  0  0
   -1.7389    3.5992    0.1785 H   0  0  0  0  0  0  0  0  0  0  0  0
    0.7971   -0.3876    1.5204 C   0  0  0  0  0  0  0  0  0  0  0  0
    2.0025   -0.4781    1.7186 O   0  0  0  0  0  0  0  0  0  0  0  0
   -0.0279   -0.0261    2.5711 N   0  0  0  0  0  0  0  0  0  0  0  0
   -1.0040    0.1381    2.3569 H   0  0  0  0  0  0  0  0  0  0  0  0
    0.4563    0.2144    3.9240 C   0  0  0  0  0  0  0  0  0  0  0  0
    1.1710    1.0441    3.9323 H   0  0  0  0  0  0  0  0  0  0  0  0
   -0.3773    0.4685    4.5854 H   0  0  0  0  0  0  0  0  0  0  0  0
    0.9498   -0.6805    4.3173 H   0  0  0  0  0  0  0  0  0  0  0  0
  1  2  1  0  0  0  0
  2  3  1  0  0  0  0
  2  4  1  0  0  0  0
  2  5  1  0  0  0  0
  5  6  2  0  0  0  0
  5  7  1  0  0  0  0
  7  8  1  0  0  0  0
  7  9  1  0  0  0  0
  9 10  1  0  0  0  0
  9 11  1  0  0  0  0
  9 22  1  0  0  0  0
 11 12  1  0  0  0  0
 11 13  1  0  0  0  0
 11 14  1  0  0  0  0
 14 15  1  0  0  0  0
 14 16  1  0  0  0  0
 14 17  1  0  0  0  0
 17 18  1  0  0  0  0
 18 19  1  0  0  0  0
 18 20  1  0  0  0  0
 18 21  1  0  0  0  0
 22 23  2  0  0  0  0
 22 24  1  0  0  0  0
 24 25  1  0  0  0  0
 24 26  1  0  0  0  0
 26 27  1  0  0  0  0
 26 28  1  0  0  0  0
 26 29  1  0  0  0  0
M  END
$$$$

  -OEChem-04042216023D

 29 28  0     1  0  0  0  0  0999 V2000
   -2.6264   -4.1785    0.4525 H   0  0  0  0  0  0  0  0  0  0  0  0
   -2.6127   -3.1500    0.0803 C   0  0  0  0  0  0  0  0  0  0  0  0
   -3.3705   -2.5735    0.6160 H   0  0  0  0  0  0  0  0  0  0  0  0
   -2.8548   -3.1593   -0.9850 H   0  0  0  0  0  0  0  0  0  0  0  0
   -1.2419   -2.5364    0.2953 C   0  0  0  0  0  0  0  0  0  0  0  0
   -0.3488   -3.2064    0.7793 O   0  0  0  0  0  0  0  0  0  0  0  0
   -1.0175   -1.2211   -0.0633 N   0  0  0  0  0  0  0  0  0  0  0  0
   -1.7902   -0.7281   -0.4986 H   0  0  0  0  0  0  0  0  0  0  0  0
    0.2790   -0.5244    0.0722 C   0  0  1  0  0  0  0  0  0  0  0  0
    1.0131   -1.1942   -0.3921 H   0  0  0  0  0  0  0  0  0  0  0  0
    0.2955    0.7316   -0.8562 C   0  0  0  0  0  0  0  0  0  0  0  0
    0.8481    0.4584   -1.7614 H   0  0  0  0  0  0  0  0  0  0  0  0
   -0.7388    0.9010   -1.1699 H   0  0  0  0  0  0  0  0  0  0  0  0
    0.8028    2.1298   -0.4240 C   0  0  0  0  0  0  0  0  0  0  0  0
    1.8755    2.1540   -0.6438 H   0  0  0  0  0  0  0  0  0  0  0  0
    0.3312    2.8870   -1.0582 H   0  0  0  0  0  0  0  0  0  0  0  0
    0.6449    2.6521    1.3287 S   0  0  0  0  0  0  0  0  0  0  0  0
   -1.1656    2.9139    1.4759 C   0  0  0  0  0  0  0  0  0  0  0  0
   -1.7042    1.9938    1.2334 H   0  0  0  0  0  0  0  0  0  0  0  0
   -1.4183    3.2099    2.4984 H   0  0  0  0  0  0  0  0  0  0  0  0
   -1.4903    3.7040    0.7925 H   0  0  0  0  0  0  0  0  0  0  0  0
    0.8056   -0.4537    1.5271 C   0  0  0  0  0  0  0  0  0  0  0  0
    2.0066   -0.5640    1.7408 O   0  0  0  0  0  0  0  0  0  0  0  0
   -0.0365   -0.1157    2.5727 N   0  0  0  0  0  0  0  0  0  0  0  0
   -1.0255   -0.0493    2.3655 H   0  0  0  0  0  0  0  0  0  0  0  0
    0.4169    0.0246    3.9501 C   0  0  0  0  0  0  0  0  0  0  0  0
    1.1807    0.8060    4.0229 H   0  0  0  0  0  0  0  0  0  0  0  0
   -0.4204    0.2994    4.5985 H   0  0  0  0  0  0  0  0  0  0  0  0
    0.8414   -0.9183    4.3109 H   0  0  0  0  0  0  0  0  0  0  0  0
  1  2  1  0  0  0  0
  2  3  1  0  0  0  0
  2  4  1  0  0  0  0
  2  5  1  0  0  0  0
  5  6  2  0  0  0  0
  5  7  1  0  0  0  0
  7  8  1  0  0  0  0
  7  9  1  0  0  0  0
  9 10  1  0  0  0  0
  9 11  1  0  0  0  0
  9 22  1  0  0  0  0
 11 12  1  0  0  0  0
 11 13  1  0  0  0  0
 11 14  1  0  0  0  0
 14 15  1  0  0  0  0
 14 16  1  0  0  0  0
 14 17  1  0  0  0  0
 17 18  1  0  0  0  0
 18 19  1  0  0  0  0
 18 20  1  0  0  0  0
 18 21  1  0  0  0  0
 22 23  2  0  0  0  0
 22 24  1  0  0  0  0
 24 25  1  0  0  0  0
 24 26  1  0  0  0  0
 26 27  1  0  0  0  0
 26 28  1  0  0  0  0
 26 29  1  0  0  0  0
M  END
$$$$

  -OEChem-04042216023D

 29 28  0     1  0  0  0  0  0999 V2000
   -2.7806   -4.1838    0.4519 H   0  0  0  0  0  0  0  0  0  0  0  0
   -2.7215   -3.1525    0.0918 C   0  0  0  0  0  0  0  0  0  0  0  0
   -3.4562   -2.5501    0.6312 H   0  0  0  0  0  0  0  0  0  0  0  0
   -2.9585   -3.1390   -0.9748 H   0  0  0  0  0  0  0  0  0  0  0  0
   -1.3271   -2.6004    0.3211 C   0  0  0  0  0  0  0  0  0  0  0  0
   -0.4773   -3.3016    0.8374 O   0  0  0  0  0  0  0  0  0  0  0  0
   -1.0322   -1.3071   -0.0655 N   0  0  0  0  0  0  0  0  0  0  0  0
   -1.7719   -0.7904   -0.5295 H   0  0  0  0  0  0  0  0  0  0  0  0
    0.2939   -0.6678    0.0772 C   0  0  1  0  0  0  0  0  0  0  0  0
    1.0155   -1.3620   -0.3701 H   0  0  0  0  0  0  0  0  0  0  0  0
    0.3375    0.5897   -0.8526 C   0  0  0  0  0  0  0  0  0  0  0  0
    0.8689    0.2892   -1.7618 H   0  0  0  0  0  0  0  0  0  0  0  0
   -0.6947    0.7840   -1.1596 H   0  0  0  0  0  0  0  0  0  0  0  0
    0.8834    1.9903   -0.4598 C   0  0  0  0  0  0  0  0  0  0  0  0
    1.8623    2.0814   -0.9423 H   0  0  0  0  0  0  0  0  0  0  0  0
    0.2427    2.7549   -0.9104 H   0  0  0  0  0  0  0  0  0  0  0  0
    1.1705    2.4392    1.2967 S   0  0  0  0  0  0  0  0  0  0  0  0
   -0.4884    3.0364    1.8069 C   0  0  0  0  0  0  0  0  0  0  0  0
   -0.7591    3.9323    1.2406 H   0  0  0  0  0  0  0  0  0  0  0  0
   -0.4839    3.2835    2.8726 H   0  0  0  0  0  0  0  0  0  0  0  0
   -1.2426    2.2652    1.6291 H   0  0  0  0  0  0  0  0  0  0  0  0
    0.7736   -0.5955    1.5475 C   0  0  0  0  0  0  0  0  0  0  0  0
    1.9500   -0.8055    1.8156 O   0  0  0  0  0  0  0  0  0  0  0  0
   -0.0899   -0.1951    2.5534 N   0  0  0  0  0  0  0  0  0  0  0  0
   -1.0685   -0.1060    2.3085 H   0  0  0  0  0  0  0  0  0  0  0  0
    0.3091   -0.1033    3.9517 C   0  0  0  0  0  0  0  0  0  0  0  0
    1.1174    0.6262    4.0705 H   0  0  0  0  0  0  0  0  0  0  0  0
   -0.5369    0.2159    4.5673 H   0  0  0  0  0  0  0  0  0  0  0  0
    0.6561   -1.0765    4.3152 H   0  0  0  0  0  0  0  0  0  0  0  0
  1  2  1  0  0  0  0
  2  3  1  0  0  0  0
  2  4  1  0  0  0  0
  2  5  1  0  0  0  0
  5  6  2  0  0  0  0
  5  7  1  0  0  0  0
  7  8  1  0  0  0  0
  7  9  1  0  0  0  0
  9 10  1  0  0  0  0
  9 11  1  0  0  0  0
  9 22  1  0  0  0  0
 11 12  1  0  0  0  0
 11 13  1  0  0  0  0
 11 14  1  0  0  0  0
 14 15  1  0  0  0  0
 14 16  1  0  0  0  0
 14 17  1  0  0  0  0
 17 18  1  0  0  0  0
 18 19  1  0  0  0  0
 18 20  1  0  0  0  0
 18 21  1  0  0  0  0
 22 23  2  0  0  0  0
 22 24  1  0  0  0  0
 24 25  1  0  0  0  0
 24 26  1  0  0  0  0
 26 27  1  0  0  0  0
 26 28  1  0  0  0  0
 26 29  1  0  0  0  0
M  END
$$$$

  -OEChem-04042216023D

 29 28  0     1  0  0  0  0  0999 V2000
   -2.2720   -4.5484    0.7262 H   0  0  0  0  0  0  0  0  0  0  0  0
   -2.3231   -3.5495    0.2831 C   0  0  0  0  0  0  0  0  0  0  0  0
   -3.1242   -2.9897    0.7713 H   0  0  0  0  0  0  0  0  0  0  0  0
   -2.5509   -3.6493   -0.7809 H   0  0  0  0  0  0  0  0  0  0  0  0
   -0.9996   -2.8303    0.4656 C   0  0  0  0  0  0  0  0  0  0  0  0
   -0.0799   -3.3950    1.0266 O   0  0  0  0  0  0  0  0  0  0  0  0
   -0.8484   -1.5453   -0.0201 N   0  0  0  0  0  0  0  0  0  0  0  0
   -1.6348   -1.1578   -0.5307 H   0  0  0  0  0  0  0  0  0  0  0  0
    0.3966   -0.7498    0.0701 C   0  0  1  0  0  0  0  0  0  0  0  0
    1.2080   -1.3541   -0.3527 H   0  0  0  0  0  0  0  0  0  0  0  0
    0.2228    0.4740   -0.8917 C   0  0  0  0  0  0  0  0  0  0  0  0
    0.7825    0.2172   -1.7974 H   0  0  0  0  0  0  0  0  0  0  0  0
   -0.8285    0.5094   -1.1934 H   0  0  0  0  0  0  0  0  0  0  0  0
    0.5848    1.9523   -0.5668 C   0  0  0  0  0  0  0  0  0  0  0  0
    1.3177    2.2702   -1.3160 H   0  0  0  0  0  0  0  0  0  0  0  0
   -0.3082    2.5634   -0.7315 H   0  0  0  0  0  0  0  0  0  0  0  0
    1.2881    2.4302    1.0617 S   0  0  0  0  0  0  0  0  0  0  0  0
   -0.1376    3.2327    1.8934 C   0  0  0  0  0  0  0  0  0  0  0  0
   -0.4443    4.1264    1.3421 H   0  0  0  0  0  0  0  0  0  0  0  0
    0.1419    3.5264    2.9095 H   0  0  0  0  0  0  0  0  0  0  0  0
   -0.9839    2.5425    1.9485 H   0  0  0  0  0  0  0  0  0  0  0  0
    0.8252   -0.5294    1.5410 C   0  0  0  0  0  0  0  0  0  0  0  0
    1.9987   -0.6590    1.8668 O   0  0  0  0  0  0  0  0  0  0  0  0
   -0.1098   -0.1626    2.4948 N   0  0  0  0  0  0  0  0  0  0  0  0
   -1.0821   -0.1884    2.2121 H   0  0  0  0  0  0  0  0  0  0  0  0
    0.2183   -0.0214    3.9071 C   0  0  0  0  0  0  0  0  0  0  0  0
    0.9943    0.7392    4.0445 H   0  0  0  0  0  0  0  0  0  0  0  0
   -0.6669    0.2828    4.4732 H   0  0  0  0  0  0  0  0  0  0  0  0
    0.5813   -0.9719    4.3123 H   0  0  0  0  0  0  0  0  0  0  0  0
  1  2  1  0  0  0  0
  2  3  1  0  0  0  0
  2  4  1  0  0  0  0
  2  5  1  0  0  0  0
  5  6  2  0  0  0  0
  5  7  1  0  0  0  0
  7  8  1  0  0  0  0
  7  9  1  0  0  0  0
  9 10  1  0  0  0  0
  9 11  1  0  0  0  0
  9 22  1  0  0  0  0
 11 12  1  0  0  0  0
 11 13  1  0  0  0  0
 11 14  1  0  0  0  0
 14 15  1  0  0  0  0
 14 16  1  0  0  0  0
 14 17  1  0  0  0  0
 17 18  1  0  0  0  0
 18 19  1  0  0  0  0
 18 20  1  0  0  0  0
 18 21  1  0  0  0  0
 22 23  2  0  0  0  0
 22 24  1  0  0  0  0
 24 25  1  0  0  0  0
 24 26  1  0  0  0  0
 26 27  1  0  0  0  0
 26 28  1  0  0  0  0
 26 29  1  0  0  0  0
M  END
$$$$

  -OEChem-04042216023D

 29 28  0     1  0  0  0  0  0999 V2000
   -3.3071   -3.9218    0.7403 H   0  0  0  0  0  0  0  0  0  0  0  0
   -3.1354   -2.9438    0.2814 C   0  0  0  0  0  0  0  0  0  0  0  0
   -3.8544   -2.2319    0.6932 H   0  0  0  0  0  0  0  0  0  0  0  0
   -3.2914   -3.0299   -0.7965 H   0  0  0  0  0  0  0  0  0  0  0  0
   -1.7203   -2.4766    0.5654 C   0  0  0  0  0  0  0  0  0  0  0  0
   -0.9696   -3.1833    1.2115 O   0  0  0  0  0  0  0  0  0  0  0  0
   -1.2872   -1.2652    0.0609 N   0  0  0  0  0  0  0  0  0  0  0  0
   -1.9589   -0.7324   -0.4811 H   0  0  0  0  0  0  0  0  0  0  0  0
    0.0355   -0.6649    0.3418 C   0  0  1  0  0  0  0  0  0  0  0  0
    0.8121   -1.3905    0.0730 H   0  0  0  0  0  0  0  0  0  0  0  0
    0.1649    0.5418   -0.6473 C   0  0  0  0  0  0  0  0  0  0  0  0
    0.8382    0.1862   -1.4343 H   0  0  0  0  0  0  0  0  0  0  0  0
   -0.8013    0.7061   -1.1348 H   0  0  0  0  0  0  0  0  0  0  0  0
    0.6791    1.9582   -0.2683 C   0  0  0  0  0  0  0  0  0  0  0  0
    1.3082    2.3240   -1.0863 H   0  0  0  0  0  0  0  0  0  0  0  0
   -0.1968    2.6136   -0.2295 H   0  0  0  0  0  0  0  0  0  0  0  0
    1.5798    2.2427    1.3063 S   0  0  0  0  0  0  0  0  0  0  0  0
    3.1818    1.4019    0.9863 C   0  0  0  0  0  0  0  0  0  0  0  0
    3.7179    1.9004    0.1738 H   0  0  0  0  0  0  0  0  0  0  0  0
    3.8032    1.4288    1.8863 H   0  0  0  0  0  0  0  0  0  0  0  0
    3.0184    0.3561    0.7106 H   0  0  0  0  0  0  0  0  0  0  0  0
    0.2222   -0.4169    1.8594 C   0  0  0  0  0  0  0  0  0  0  0  0
    1.2533   -0.7700    2.4192 O   0  0  0  0  0  0  0  0  0  0  0  0
   -0.7937    0.1517    2.6088 N   0  0  0  0  0  0  0  0  0  0  0  0
   -1.6370    0.4256    2.1192 H   0  0  0  0  0  0  0  0  0  0  0  0
   -0.6798    0.4098    4.0379 C   0  0  0  0  0  0  0  0  0  0  0  0
   -1.5990    0.8673    4.4150 H   0  0  0  0  0  0  0  0  0  0  0  0
    0.1539    1.0916    4.2369 H   0  0  0  0  0  0  0  0  0  0  0  0
   -0.5089   -0.5248    4.5826 H   0  0  0  0  0  0  0  0  0  0  0  0
  1  2  1  0  0  0  0
  2  3  1  0  0  0  0
  2  4  1  0  0  0  0
  2  5  1  0  0  0  0
  5  6  2  0  0  0  0
  5  7  1  0  0  0  0
  7  8  1  0  0  0  0
  7  9  1  0  0  0  0
  9 10  1  0  0  0  0
  9 11  1  0  0  0  0
  9 22  1  0  0  0  0
 11 12  1  0  0  0  0
 11 13  1  0  0  0  0
 11 14  1  0  0  0  0
 14 15  1  0  0  0  0
 14 16  1  0  0  0  0
 14 17  1  0  0  0  0
 17 18  1  0  0  0  0
 18 19  1  0  0  0  0
 18 20  1  0  0  0  0
 18 21  1  0  0  0  0
 22 23  2  0  0  0  0
 22 24  1  0  0  0  0
 24 25  1  0  0  0  0
 24 26  1  0  0  0  0
 26 27  1  0  0  0  0
 26 28  1  0  0  0  0
 26 29  1  0  0  0  0
M  END
$$$$

  -OEChem-04042216023D

 29 28  0     1  0  0  0  0  0999 V2000
   -3.1947   -3.9466   -0.4645 H   0  0  0  0  0  0  0  0  0  0  0  0
   -3.0339   -2.8735   -0.6031 C   0  0  0  0  0  0  0  0  0  0  0  0
   -3.7210   -2.3291    0.0488 H   0  0  0  0  0  0  0  0  0  0  0  0
   -3.2473   -2.6186   -1.6438 H   0  0  0  0  0  0  0  0  0  0  0  0
   -1.5996   -2.5139   -0.2635 C   0  0  0  0  0  0  0  0  0  0  0  0
   -0.8229   -3.3902    0.0649 O   0  0  0  0  0  0  0  0  0  0  0  0
   -1.1897   -1.1966   -0.3486 N   0  0  0  0  0  0  0  0  0  0  0  0
   -1.8690   -0.5358   -0.7102 H   0  0  0  0  0  0  0  0  0  0  0  0
    0.1852   -0.7179   -0.0770 C   0  0  1  0  0  0  0  0  0  0  0  0
    0.8920   -1.2531   -0.7219 H   0  0  0  0  0  0  0  0  0  0  0  0
    0.1793    0.7882   -0.5016 C   0  0  0  0  0  0  0  0  0  0  0  0
    0.6988    0.8140   -1.4652 H   0  0  0  0  0  0  0  0  0  0  0  0
   -0.8486    1.1075   -0.7012 H   0  0  0  0  0  0  0  0  0  0  0  0
    0.8094    1.9196    0.3491 C   0  0  0  0  0  0  0  0  0  0  0  0
    1.0826    2.7432   -0.3185 H   0  0  0  0  0  0  0  0  0  0  0  0
    0.0314    2.2937    1.0218 H   0  0  0  0  0  0  0  0  0  0  0  0
    2.2598    1.5177    1.4018 S   0  0  0  0  0  0  0  0  0  0  0  0
    2.5533    3.1030    2.2784 C   0  0  0  0  0  0  0  0  0  0  0  0
    3.3980    2.9981    2.9662 H   0  0  0  0  0  0  0  0  0  0  0  0
    1.6678    3.3886    2.8535 H   0  0  0  0  0  0  0  0  0  0  0  0
    2.7822    3.8970    1.5614 H   0  0  0  0  0  0  0  0  0  0  0  0
    0.6029   -1.0461    1.3792 C   0  0  0  0  0  0  0  0  0  0  0  0
    1.6768   -1.5871    1.6114 O   0  0  0  0  0  0  0  0  0  0  0  0
   -0.2737   -0.8085    2.4247 N   0  0  0  0  0  0  0  0  0  0  0  0
   -1.2106   -0.5167    2.1732 H   0  0  0  0  0  0  0  0  0  0  0  0
   -0.0085   -1.2445    3.7894 C   0  0  0  0  0  0  0  0  0  0  0  0
    0.9411   -0.8303    4.1446 H   0  0  0  0  0  0  0  0  0  0  0  0
   -0.8041   -0.9038    4.4586 H   0  0  0  0  0  0  0  0  0  0  0  0
    0.0439   -2.3373    3.8375 H   0  0  0  0  0  0  0  0  0  0  0  0
  1  2  1  0  0  0  0
  2  3  1  0  0  0  0
  2  4  1  0  0  0  0
  2  5  1  0  0  0  0
  5  6  2  0  0  0  0
  5  7  1  0  0  0  0
  7  8  1  0  0  0  0
  7  9  1  0  0  0  0
  9 10  1  0  0  0  0
  9 11  1  0  0  0  0
  9 22  1  0  0  0  0
 11 12  1  0  0  0  0
 11 13  1  0  0  0  0
 11 14  1  0  0  0  0
 14 15  1  0  0  0  0
 14 16  1  0  0  0  0
 14 17  1  0  0  0  0
 17 18  1  0  0  0  0
 18 19  1  0  0  0  0
 18 20  1  0  0  0  0
 18 21  1  0  0  0  0
 22 23  2  0  0  0  0
 22 24  1  0  0  0  0
 24 25  1  0  0  0  0
 24 26  1  0  0  0  0
 26 27  1  0  0  0  0
 26 28  1  0  0  0  0
 26 29  1  0  0  0  0
M  END
$$$$

  -OEChem-04042216023D

 29 28  0     1  0  0  0  0  0999 V2000
   -2.9240   -4.3446    0.7875 H   0  0  0  0  0  0  0  0  0  0  0  0
   -2.7774   -3.4221    0.2182 C   0  0  0  0  0  0  0  0  0  0  0  0
   -3.5526   -2.7072    0.5037 H   0  0  0  0  0  0  0  0  0  0  0  0
   -2.8716   -3.6483   -0.8465 H   0  0  0  0  0  0  0  0  0  0  0  0
   -1.4037   -2.8457    0.5056 C   0  0  0  0  0  0  0  0  0  0  0  0
   -0.6141   -3.4842    1.1745 O   0  0  0  0  0  0  0  0  0  0  0  0
   -1.0636   -1.6109   -0.0143 N   0  0  0  0  0  0  0  0  0  0  0  0
   -1.7329   -1.2016   -0.6576 H   0  0  0  0  0  0  0  0  0  0  0  0
    0.2801   -0.9948    0.0761 C   0  0  1  0  0  0  0  0  0  0  0  0
    1.0275   -1.6586   -0.3735 H   0  0  0  0  0  0  0  0  0  0  0  0
    0.1806    0.3068   -0.7830 C   0  0  0  0  0  0  0  0  0  0  0  0
    0.6837    0.0862   -1.7301 H   0  0  0  0  0  0  0  0  0  0  0  0
   -0.8672    0.5090   -1.0267 H   0  0  0  0  0  0  0  0  0  0  0  0
    0.7583    1.6434   -0.2731 C   0  0  0  0  0  0  0  0  0  0  0  0
    0.7735    2.3628   -1.0980 H   0  0  0  0  0  0  0  0  0  0  0  0
    0.0840    2.0369    0.4941 H   0  0  0  0  0  0  0  0  0  0  0  0
    2.4396    1.5452    0.4584 S   0  0  0  0  0  0  0  0  0  0  0  0
    2.6623    3.2426    1.1176 C   0  0  0  0  0  0  0  0  0  0  0  0
    2.5930    3.9765    0.3094 H   0  0  0  0  0  0  0  0  0  0  0  0
    1.8934    3.4634    1.8637 H   0  0  0  0  0  0  0  0  0  0  0  0
    3.6447    3.3329    1.5906 H   0  0  0  0  0  0  0  0  0  0  0  0
    0.6994   -0.7964    1.5573 C   0  0  0  0  0  0  0  0  0  0  0  0
    1.8002   -1.1604    1.9507 O   0  0  0  0  0  0  0  0  0  0  0  0
   -0.2016   -0.2729    2.4697 N   0  0  0  0  0  0  0  0  0  0  0  0
   -1.1584   -0.1811    2.1488 H   0  0  0  0  0  0  0  0  0  0  0  0
    0.0659   -0.2406    3.9020 C   0  0  0  0  0  0  0  0  0  0  0  0
    0.9812    0.3250    4.1074 H   0  0  0  0  0  0  0  0  0  0  0  0
   -0.7614    0.2401    4.4324 H   0  0  0  0  0  0  0  0  0  0  0  0
    0.1859   -1.2576    4.2908 H   0  0  0  0  0  0  0  0  0  0  0  0
  1  2  1  0  0  0  0
  2  3  1  0  0  0  0
  2  4  1  0  0  0  0
  2  5  1  0  0  0  0
  5  6  2  0  0  0  0
  5  7  1  0  0  0  0
  7  8  1  0  0  0  0
  7  9  1  0  0  0  0
  9 10  1  0  0  0  0
  9 11  1  0  0  0  0
  9 22  1  0  0  0  0
 11 12  1  0  0  0  0
 11 13  1  0  0  0  0
 11 14  1  0  0  0  0
 14 15  1  0  0  0  0
 14 16  1  0  0  0  0
 14 17  1  0  0  0  0
 17 18  1  0  0  0  0
 18 19  1  0  0  0  0
 18 20  1  0  0  0  0
 18 21  1  0  0  0  0
 22 23  2  0  0  0  0
 22 24  1  0  0  0  0
 24 25  1  0  0  0  0
 24 26  1  0  0  0  0
 26 27  1  0  0  0  0
 26 28  1  0  0  0  0
 26 29  1  0  0  0  0
M  END
$$$$

  -OEChem-04042216023D

 29 28  0     1  0  0  0  0  0999 V2000
   -2.9407   -3.9800    1.0603 H   0  0  0  0  0  0  0  0  0  0  0  0
   -2.7795   -3.0607    0.4895 C   0  0  0  0  0  0  0  0  0  0  0  0
   -3.5767   -2.3539    0.7310 H   0  0  0  0  0  0  0  0  0  0  0  0
   -2.8197   -3.2975   -0.5764 H   0  0  0  0  0  0  0  0  0  0  0  0
   -1.4305   -2.4608    0.8383 C   0  0  0  0  0  0  0  0  0  0  0  0
   -0.7197   -3.0112    1.6576 O   0  0  0  0  0  0  0  0  0  0  0  0
   -1.0188   -1.2985    0.2145 N   0  0  0  0  0  0  0  0  0  0  0  0
   -1.6233   -0.9393   -0.5171 H   0  0  0  0  0  0  0  0  0  0  0  0
    0.2927   -0.6491    0.4289 C   0  0  1  0  0  0  0  0  0  0  0  0
    1.0861   -1.3696    0.2008 H   0  0  0  0  0  0  0  0  0  0  0  0
    0.3805    0.5113   -0.6065 C   0  0  0  0  0  0  0  0  0  0  0  0
    1.0080    0.1724   -1.4361 H   0  0  0  0  0  0  0  0  0  0  0  0
   -0.6138    0.6932   -1.0266 H   0  0  0  0  0  0  0  0  0  0  0  0
    0.8944    1.8858   -0.1355 C   0  0  0  0  0  0  0  0  0  0  0  0
    0.8694    2.5697   -0.9897 H   0  0  0  0  0  0  0  0  0  0  0  0
    0.2163    2.2916    0.6217 H   0  0  0  0  0  0  0  0  0  0  0  0
    2.6055    1.8979    0.5458 S   0  0  0  0  0  0  0  0  0  0  0  0
    3.5766    0.7614   -0.5210 C   0  0  0  0  0  0  0  0  0  0  0  0
    3.4804    1.0483   -1.5720 H   0  0  0  0  0  0  0  0  0  0  0  0
    4.6335    0.8031   -0.2416 H   0  0  0  0  0  0  0  0  0  0  0  0
    3.2295   -0.2683   -0.3971 H   0  0  0  0  0  0  0  0  0  0  0  0
    0.5093   -0.2353    1.9071 C   0  0  0  0  0  0  0  0  0  0  0  0
    1.5715   -0.4689    2.4679 O   0  0  0  0  0  0  0  0  0  0  0  0
   -0.5037    0.3958    2.6083 N   0  0  0  0  0  0  0  0  0  0  0  0
   -1.4154    0.4118    2.1660 H   0  0  0  0  0  0  0  0  0  0  0  0
   -0.4053    0.6952    4.0310 C   0  0  0  0  0  0  0  0  0  0  0  0
    0.4679    1.3259    4.2297 H   0  0  0  0  0  0  0  0  0  0  0  0
   -1.2988    1.2282    4.3692 H   0  0  0  0  0  0  0  0  0  0  0  0
   -0.3104   -0.2294    4.6103 H   0  0  0  0  0  0  0  0  0  0  0  0
  1  2  1  0  0  0  0
  2  3  1  0  0  0  0
  2  4  1  0  0  0  0
  2  5  1  0  0  0  0
  5  6  2  0  0  0  0
  5  7  1  0  0  0  0
  7  8  1  0  0  0  0
  7  9  1  0  0  0  0
  9 10  1  0  0  0  0
  9 11  1  0  0  0  0
  9 22  1  0  0  0  0
 11 12  1  0  0  0  0
 11 13  1  0  0  0  0
 11 14  1  0  0  0  0
 14 15  1  0  0  0  0
 14 16  1  0  0  0  0
 14 17  1  0  0  0  0
 17 18  1  0  0  0  0
 18 19  1  0  0  0  0
 18 20  1  0  0  0  0
 18 21  1  0  0  0  0
 22 23  2  0  0  0  0
 22 24  1  0  0  0  0
 24 25  1  0  0  0  0
 24 26  1  0  0  0  0
 26 27  1  0  0  0  0
 26 28  1  0  0  0  0
 26 29  1  0  0  0  0
M  END
$$$$

  -OEChem-04042216023D

 29 28  0     1  0  0  0  0  0999 V2000
   -2.8791   -3.9099    0.7574 H   0  0  0  0  0  0  0  0  0  0  0  0
   -2.7586   -2.9442    0.2577 C   0  0  0  0  0  0  0  0  0  0  0  0
   -3.5003   -2.2480    0.6563 H   0  0  0  0  0  0  0  0  0  0  0  0
   -2.9316   -3.0801   -0.8126 H   0  0  0  0  0  0  0  0  0  0  0  0
   -1.3597   -2.4065    0.4950 C   0  0  0  0  0  0  0  0  0  0  0  0
   -0.5813   -3.0420    1.1799 O   0  0  0  0  0  0  0  0  0  0  0  0
   -0.9818   -1.2112   -0.0892 N   0  0  0  0  0  0  0  0  0  0  0  0
   -1.6451   -0.8056   -0.7415 H   0  0  0  0  0  0  0  0  0  0  0  0
    0.3694   -0.6079   -0.0001 C   0  0  1  0  0  0  0  0  0  0  0  0
    1.1308   -1.2868   -0.4005 H   0  0  0  0  0  0  0  0  0  0  0  0
    0.2805    0.6739   -0.8872 C   0  0  0  0  0  0  0  0  0  0  0  0
    0.7416    0.4348   -1.8510 H   0  0  0  0  0  0  0  0  0  0  0  0
   -0.7741    0.8852   -1.0920 H   0  0  0  0  0  0  0  0  0  0  0  0
    0.8641    2.0235   -0.4171 C   0  0  0  0  0  0  0  0  0  0  0  0
    0.4471    2.8115   -1.0525 H   0  0  0  0  0  0  0  0  0  0  0  0
    0.5370    2.2348    0.6052 H   0  0  0  0  0  0  0  0  0  0  0  0
    2.7054    2.1823   -0.4988 S   0  0  0  0  0  0  0  0  0  0  0  0
    3.6163    0.9508    0.5045 C   0  0  0  0  0  0  0  0  0  0  0  0
    3.3706   -0.0652    0.1846 H   0  0  0  0  0  0  0  0  0  0  0  0
    4.6931    1.0953    0.3792 H   0  0  0  0  0  0  0  0  0  0  0  0
    3.3789    1.0740    1.5647 H   0  0  0  0  0  0  0  0  0  0  0  0
    0.7024   -0.3421    1.4934 C   0  0  0  0  0  0  0  0  0  0  0  0
    1.7354   -0.7586    1.9970 O   0  0  0  0  0  0  0  0  0  0  0  0
   -0.2471    0.2365    2.3196 N   0  0  0  0  0  0  0  0  0  0  0  0
   -1.1708    0.3555    1.9188 H   0  0  0  0  0  0  0  0  0  0  0  0
   -0.1053    0.2799    3.7698 C   0  0  0  0  0  0  0  0  0  0  0  0
    0.8079    0.8157    4.0497 H   0  0  0  0  0  0  0  0  0  0  0  0
   -0.9585    0.7971    4.2187 H   0  0  0  0  0  0  0  0  0  0  0  0
   -0.0578   -0.7348    4.1796 H   0  0  0  0  0  0  0  0  0  0  0  0
  1  2  1  0  0  0  0
  2  3  1  0  0  0  0
  2  4  1  0  0  0  0
  2  5  1  0  0  0  0
  5  6  2  0  0  0  0
  5  7  1  0  0  0  0
  7  8  1  0  0  0  0
  7  9  1  0  0  0  0
  9 10  1  0  0  0  0
  9 11  1  0  0  0  0
  9 22  1  0  0  0  0
 11 12  1  0  0  0  0
 11 13  1  0  0  0  0
 11 14  1  0  0  0  0
 14 15  1  0  0  0  0
 14 16  1  0  0  0  0
 14 17  1  0  0  0  0
 17 18  1  0  0  0  0
 18 19  1  0  0  0  0
 18 20  1  0  0  0  0
 18 21  1  0  0  0  0
 22 23  2  0  0  0  0
 22 24  1  0  0  0  0
 24 25  1  0  0  0  0
 24 26  1  0  0  0  0
 26 27  1  0  0  0  0
 26 28  1  0  0  0  0
 26 29  1  0  0  0  0
M  END
$$$$

  -OEChem-04042216023D

 29 28  0     1  0  0  0  0  0999 V2000
   -2.8029   -3.9636    0.7044 H   0  0  0  0  0  0  0  0  0  0  0  0
   -2.7117   -2.9953    0.2040 C   0  0  0  0  0  0  0  0  0  0  0  0
   -3.4818   -2.3252    0.5930 H   0  0  0  0  0  0  0  0  0  0  0  0
   -2.8682   -3.1390   -0.8678 H   0  0  0  0  0  0  0  0  0  0  0  0
   -1.3355   -2.4081    0.4547 C   0  0  0  0  0  0  0  0  0  0  0  0
   -0.5372   -3.0171    1.1415 O   0  0  0  0  0  0  0  0  0  0  0  0
   -0.9982   -1.1925   -0.1110 N   0  0  0  0  0  0  0  0  0  0  0  0
   -1.6698   -0.8029   -0.7650 H   0  0  0  0  0  0  0  0  0  0  0  0
    0.3428   -0.5695   -0.0338 C   0  0  1  0  0  0  0  0  0  0  0  0
    1.0941   -1.2491   -0.4519 H   0  0  0  0  0  0  0  0  0  0  0  0
    0.2710    0.7097   -0.9234 C   0  0  0  0  0  0  0  0  0  0  0  0
    0.7268    0.4777   -1.8915 H   0  0  0  0  0  0  0  0  0  0  0  0
   -0.7826    0.9300   -1.1233 H   0  0  0  0  0  0  0  0  0  0  0  0
    0.8688    2.0362   -0.4096 C   0  0  0  0  0  0  0  0  0  0  0  0
    0.3143    2.8608   -0.8690 H   0  0  0  0  0  0  0  0  0  0  0  0
    0.7558    2.1464    0.6719 H   0  0  0  0  0  0  0  0  0  0  0  0
    2.6400    2.2422   -0.8842 S   0  0  0  0  0  0  0  0  0  0  0  0
    3.6545    1.0242    0.0374 C   0  0  0  0  0  0  0  0  0  0  0  0
    3.3429    0.0040   -0.2022 H   0  0  0  0  0  0  0  0  0  0  0  0
    4.7079    1.1345   -0.2350 H   0  0  0  0  0  0  0  0  0  0  0  0
    3.5593    1.1877    1.1146 H   0  0  0  0  0  0  0  0  0  0  0  0
    0.7376   -0.3183    1.4461 C   0  0  0  0  0  0  0  0  0  0  0  0
    1.8589   -0.5826    1.8550 O   0  0  0  0  0  0  0  0  0  0  0  0
   -0.1803    0.2325    2.3245 N   0  0  0  0  0  0  0  0  0  0  0  0
   -1.1391    0.2752    1.9970 H   0  0  0  0  0  0  0  0  0  0  0  0
    0.0777    0.3591    3.7538 C   0  0  0  0  0  0  0  0  0  0  0  0
    0.9701    0.9689    3.9301 H   0  0  0  0  0  0  0  0  0  0  0  0
   -0.7702    0.8395    4.2511 H   0  0  0  0  0  0  0  0  0  0  0  0
    0.2316   -0.6279    4.2031 H   0  0  0  0  0  0  0  0  0  0  0  0
  1  2  1  0  0  0  0
  2  3  1  0  0  0  0
  2  4  1  0  0  0  0
  2  5  1  0  0  0  0
  5  6  2  0  0  0  0
  5  7  1  0  0  0  0
  7  8  1  0  0  0  0
  7  9  1  0  0  0  0
  9 10  1  0  0  0  0
  9 11  1  0  0  0  0
  9 22  1  0  0  0  0
 11 12  1  0  0  0  0
 11 13  1  0  0  0  0
 11 14  1  0  0  0  0
 14 15  1  0  0  0  0
 14 16  1  0  0  0  0
 14 17  1  0  0  0  0
 17 18  1  0  0  0  0
 18 19  1  0  0  0  0
 18 20  1  0  0  0  0
 18 21  1  0  0  0  0
 22 23  2  0  0  0  0
 22 24  1  0  0  0  0
 24 25  1  0  0  0  0
 24 26  1  0  0  0  0
 26 27  1  0  0  0  0
 26 28  1  0  0  0  0
 26 29  1  0  0  0  0
M  END
$$$$

  -OEChem-04042216023D

 29 28  0     1  0  0  0  0  0999 V2000
   -2.7273   -4.0246    0.6278 H   0  0  0  0  0  0  0  0  0  0  0  0
   -2.6749   -3.0379    0.1582 C   0  0  0  0  0  0  0  0  0  0  0  0
   -3.4661   -2.4090    0.5730 H   0  0  0  0  0  0  0  0  0  0  0  0
   -2.8332   -3.1532   -0.9169 H   0  0  0  0  0  0  0  0  0  0  0  0
   -1.3198   -2.4081    0.4198 C   0  0  0  0  0  0  0  0  0  0  0  0
   -0.5016   -2.9967    1.1018 O   0  0  0  0  0  0  0  0  0  0  0  0
   -1.0230   -1.1713   -0.1208 N   0  0  0  0  0  0  0  0  0  0  0  0
   -1.7105   -0.7837   -0.7595 H   0  0  0  0  0  0  0  0  0  0  0  0
    0.3060   -0.5263   -0.0509 C   0  0  1  0  0  0  0  0  0  0  0  0
    1.0472   -1.2093   -0.4814 H   0  0  0  0  0  0  0  0  0  0  0  0
    0.2597    0.7429   -0.9533 C   0  0  0  0  0  0  0  0  0  0  0  0
    0.7292    0.5001   -1.9122 H   0  0  0  0  0  0  0  0  0  0  0  0
   -0.7888    0.9656   -1.1745 H   0  0  0  0  0  0  0  0  0  0  0  0
    0.8602    2.0628   -0.4194 C   0  0  0  0  0  0  0  0  0  0  0  0
    0.1808    2.8815   -0.6772 H   0  0  0  0  0  0  0  0  0  0  0  0
    0.9744    2.0831    0.6665 H   0  0  0  0  0  0  0  0  0  0  0  0
    2.4768    2.4093   -1.2274 S   0  0  0  0  0  0  0  0  0  0  0  0
    3.6133    1.1797   -0.4724 C   0  0  0  0  0  0  0  0  0  0  0  0
    3.2683    0.1619   -0.6748 H   0  0  0  0  0  0  0  0  0  0  0  0
    4.6195    1.2946   -0.8854 H   0  0  0  0  0  0  0  0  0  0  0  0
    3.6633    1.3252    0.6108 H   0  0  0  0  0  0  0  0  0  0  0  0
    0.7618   -0.2901    1.4111 C   0  0  0  0  0  0  0  0  0  0  0  0
    1.9421   -0.3957    1.7154 O   0  0  0  0  0  0  0  0  0  0  0  0
   -0.1263    0.2287    2.3374 N   0  0  0  0  0  0  0  0  0  0  0  0
   -1.1080    0.1797    2.0865 H   0  0  0  0  0  0  0  0  0  0  0  0
    0.2281    0.4322    3.7363 C   0  0  0  0  0  0  0  0  0  0  0  0
    1.0583    1.1411    3.8220 H   0  0  0  0  0  0  0  0  0  0  0  0
   -0.6263    0.8349    4.2886 H   0  0  0  0  0  0  0  0  0  0  0  0
    0.5249   -0.5161    4.1971 H   0  0  0  0  0  0  0  0  0  0  0  0
  1  2  1  0  0  0  0
  2  3  1  0  0  0  0
  2  4  1  0  0  0  0
  2  5  1  0  0  0  0
  5  6  2  0  0  0  0
  5  7  1  0  0  0  0
  7  8  1  0  0  0  0
  7  9  1  0  0  0  0
  9 10  1  0  0  0  0
  9 11  1  0  0  0  0
  9 22  1  0  0  0  0
 11 12  1  0  0  0  0
 11 13  1  0  0  0  0
 11 14  1  0  0  0  0
 14 15  1  0  0  0  0
 14 16  1  0  0  0  0
 14 17  1  0  0  0  0
 17 18  1  0  0  0  0
 18 19  1  0  0  0  0
 18 20  1  0  0  0  0
 18 21  1  0  0  0  0
 22 23  2  0  0  0  0
 22 24  1  0  0  0  0
 24 25  1  0  0  0  0
 24 26  1  0  0  0  0
 26 27  1  0  0  0  0
 26 28  1  0  0  0  0
 26 29  1  0  0  0  0
M  END
$$$$

  -OEChem-04042216023D

 29 28  0     1  0  0  0  0  0999 V2000
   -2.7073   -4.0430    0.6006 H   0  0  0  0  0  0  0  0  0  0  0  0
   -2.6627   -3.0571    0.1287 C   0  0  0  0  0  0  0  0  0  0  0  0
   -3.4627   -2.4353    0.5374 H   0  0  0  0  0  0  0  0  0  0  0  0
   -2.8146   -3.1763   -0.9467 H   0  0  0  0  0  0  0  0  0  0  0  0
   -1.3152   -2.4129    0.3944 C   0  0  0  0  0  0  0  0  0  0  0  0
   -0.4873   -2.9963    1.0693 O   0  0  0  0  0  0  0  0  0  0  0  0
   -1.0364   -1.1649   -0.1289 N   0  0  0  0  0  0  0  0  0  0  0  0
   -1.7297   -0.7774   -0.7617 H   0  0  0  0  0  0  0  0  0  0  0  0
    0.2857   -0.5083   -0.0568 C   0  0  1  0  0  0  0  0  0  0  0  0
    1.0229   -1.1898   -0.4965 H   0  0  0  0  0  0  0  0  0  0  0  0
    0.2404    0.7585   -0.9605 C   0  0  0  0  0  0  0  0  0  0  0  0
    0.7352    0.5079   -1.9044 H   0  0  0  0  0  0  0  0  0  0  0  0
   -0.8022    0.9742   -1.2135 H   0  0  0  0  0  0  0  0  0  0  0  0
    0.8322    2.0805   -0.4157 C   0  0  0  0  0  0  0  0  0  0  0  0
    0.0473    2.8434   -0.4094 H   0  0  0  0  0  0  0  0  0  0  0  0
    1.2098    2.0101    0.6057 H   0  0  0  0  0  0  0  0  0  0  0  0
    2.1975    2.6525   -1.5032 S   0  0  0  0  0  0  0  0  0  0  0  0
    3.5260    1.4747   -1.0257 C   0  0  0  0  0  0  0  0  0  0  0  0
    3.2241    0.4464   -1.2445 H   0  0  0  0  0  0  0  0  0  0  0  0
    4.4425    1.6957   -1.5802 H   0  0  0  0  0  0  0  0  0  0  0  0
    3.7365    1.5542    0.0454 H   0  0  0  0  0  0  0  0  0  0  0  0
    0.7743   -0.2779    1.3934 C   0  0  0  0  0  0  0  0  0  0  0  0
    1.9726   -0.3153    1.6428 O   0  0  0  0  0  0  0  0  0  0  0  0
   -0.0958    0.2251    2.3441 N   0  0  0  0  0  0  0  0  0  0  0  0
   -1.0842    0.1442    2.1296 H   0  0  0  0  0  0  0  0  0  0  0  0
    0.3041    0.4751    3.7231 C   0  0  0  0  0  0  0  0  0  0  0  0
    1.1214    1.2031    3.7595 H   0  0  0  0  0  0  0  0  0  0  0  0
   -0.5385    0.8751    4.2948 H   0  0  0  0  0  0  0  0  0  0  0  0
    0.6378   -0.4533    4.1985 H   0  0  0  0  0  0  0  0  0  0  0  0
  1  2  1  0  0  0  0
  2  3  1  0  0  0  0
  2  4  1  0  0  0  0
  2  5  1  0  0  0  0
  5  6  2  0  0  0  0
  5  7  1  0  0  0  0
  7  8  1  0  0  0  0
  7  9  1  0  0  0  0
  9 10  1  0  0  0  0
  9 11  1  0  0  0  0
  9 22  1  0  0  0  0
 11 12  1  0  0  0  0
 11 13  1  0  0  0  0
 11 14  1  0  0  0  0
 14 15  1  0  0  0  0
 14 16  1  0  0  0  0
 14 17  1  0  0  0  0
 17 18  1  0  0  0  0
 18 19  1  0  0  0  0
 18 20  1  0  0  0  0
 18 21  1  0  0  0  0
 22 23  2  0  0  0  0
 22 24  1  0  0  0  0
 24 25  1  0  0  0  0
 24 26  1  0  0  0  0
 26 27  1  0  0  0  0
 26 28  1  0  0  0  0
 26 29  1  0  0  0  0
M  END
$$$$

  -OEChem-04042216023D

 29 28  0     1  0  0  0  0  0999 V2000
   -2.7120   -4.0365    0.6265 H   0  0  0  0  0  0  0  0  0  0  0  0
   -2.6650   -3.0535    0.1490 C   0  0  0  0  0  0  0  0  0  0  0  0
   -3.4586   -2.4249    0.5599 H   0  0  0  0  0  0  0  0  0  0  0  0
   -2.8248   -3.1776   -0.9248 H   0  0  0  0  0  0  0  0  0  0  0  0
   -1.3121   -2.4155    0.4021 C   0  0  0  0  0  0  0  0  0  0  0  0
   -0.4804   -3.0027    1.0691 O   0  0  0  0  0  0  0  0  0  0  0  0
   -1.0315   -1.1715   -0.1293 N   0  0  0  0  0  0  0  0  0  0  0  0
   -1.7291   -0.7817   -0.7559 H   0  0  0  0  0  0  0  0  0  0  0  0
    0.2902   -0.5142   -0.0609 C   0  0  1  0  0  0  0  0  0  0  0  0
    1.0316   -1.1892   -0.5039 H   0  0  0  0  0  0  0  0  0  0  0  0
    0.2245    0.7593   -0.9525 C   0  0  0  0  0  0  0  0  0  0  0  0
    0.7339    0.5134   -1.8897 H   0  0  0  0  0  0  0  0  0  0  0  0
   -0.8155    0.9735   -1.2181 H   0  0  0  0  0  0  0  0  0  0  0  0
    0.8171    2.0735   -0.3942 C   0  0  0  0  0  0  0  0  0  0  0  0
    0.0056    2.7345   -0.0736 H   0  0  0  0  0  0  0  0  0  0  0  0
    1.4688    1.9161    0.4676 H   0  0  0  0  0  0  0  0  0  0  0  0
    1.8288    2.9016   -1.6853 S   0  0  0  0  0  0  0  0  0  0  0  0
    3.3697    1.9009   -1.6264 C   0  0  0  0  0  0  0  0  0  0  0  0
    3.1593    0.8562   -1.8728 H   0  0  0  0  0  0  0  0  0  0  0  0
    4.0975    2.2897   -2.3445 H   0  0  0  0  0  0  0  0  0  0  0  0
    3.8095    1.9412   -0.6252 H   0  0  0  0  0  0  0  0  0  0  0  0
    0.7691   -0.2775    1.3926 C   0  0  0  0  0  0  0  0  0  0  0  0
    1.9639   -0.3306    1.6553 O   0  0  0  0  0  0  0  0  0  0  0  0
   -0.1056    0.2297    2.3372 N   0  0  0  0  0  0  0  0  0  0  0  0
   -1.0926    0.1566    2.1143 H   0  0  0  0  0  0  0  0  0  0  0  0
    0.2836    0.4741    3.7206 C   0  0  0  0  0  0  0  0  0  0  0  0
    1.1056    1.1964    3.7663 H   0  0  0  0  0  0  0  0  0  0  0  0
   -0.5614    0.8792    4.2857 H   0  0  0  0  0  0  0  0  0  0  0  0
    0.6063   -0.4576    4.1973 H   0  0  0  0  0  0  0  0  0  0  0  0
  1  2  1  0  0  0  0
  2  3  1  0  0  0  0
  2  4  1  0  0  0  0
  2  5  1  0  0  0  0
  5  6  2  0  0  0  0
  5  7  1  0  0  0  0
  7  8  1  0  0  0  0
  7  9  1  0  0  0  0
  9 10  1  0  0  0  0
  9 11  1  0  0  0  0
  9 22  1  0  0  0  0
 11 12  1  0  0  0  0
 11 13  1  0  0  0  0
 11 14  1  0  0  0  0
 14 15  1  0  0  0  0
 14 16  1  0  0  0  0
 14 17  1  0  0  0  0
 17 18  1  0  0  0  0
 18 19  1  0  0  0  0
 18 20  1  0  0  0  0
 18 21  1  0  0  0  0
 22 23  2  0  0  0  0
 22 24  1  0  0  0  0
 24 25  1  0  0  0  0
 24 26  1  0  0  0  0
 26 27  1  0  0  0  0
 26 28  1  0  0  0  0
 26 29  1  0  0  0  0
M  END
$$$$

  -OEChem-04042216023D

 29 28  0     1  0  0  0  0  0999 V2000
   -2.7116   -4.0437    0.6466 H   0  0  0  0  0  0  0  0  0  0  0  0
   -2.6672   -3.0631    0.1638 C   0  0  0  0  0  0  0  0  0  0  0  0
   -3.4631   -2.4347    0.5704 H   0  0  0  0  0  0  0  0  0  0  0  0
   -2.8255   -3.1937   -0.9094 H   0  0  0  0  0  0  0  0  0  0  0  0
   -1.3164   -2.4196    0.4144 C   0  0  0  0  0  0  0  0  0  0  0  0
   -0.4848   -2.9992    1.0879 O   0  0  0  0  0  0  0  0  0  0  0  0
   -1.0378   -1.1795   -0.1269 N   0  0  0  0  0  0  0  0  0  0  0  0
   -1.7367   -0.7956   -0.7556 H   0  0  0  0  0  0  0  0  0  0  0  0
    0.2836   -0.5207   -0.0685 C   0  0  1  0  0  0  0  0  0  0  0  0
    1.0255   -1.1919   -0.5162 H   0  0  0  0  0  0  0  0  0  0  0  0
    0.2031    0.7573   -0.9498 C   0  0  0  0  0  0  0  0  0  0  0  0
    0.7157    0.5245   -1.8882 H   0  0  0  0  0  0  0  0  0  0  0  0
   -0.8375    0.9759   -1.2089 H   0  0  0  0  0  0  0  0  0  0  0  0
    0.8045    2.0519   -0.3677 C   0  0  0  0  0  0  0  0  0  0  0  0
    0.0509    2.5812    0.2240 H   0  0  0  0  0  0  0  0  0  0  0  0
    1.6588    1.8459    0.2835 H   0  0  0  0  0  0  0  0  0  0  0  0
    1.4186    3.1198   -1.7315 S   0  0  0  0  0  0  0  0  0  0  0  0
    3.0489    2.3565   -2.1019 C   0  0  0  0  0  0  0  0  0  0  0  0
    2.9239    1.3164   -2.4160 H   0  0  0  0  0  0  0  0  0  0  0  0
    3.5466    2.9067   -2.9060 H   0  0  0  0  0  0  0  0  0  0  0  0
    3.6884    2.3799   -1.2143 H   0  0  0  0  0  0  0  0  0  0  0  0
    0.7675   -0.2728    1.3820 C   0  0  0  0  0  0  0  0  0  0  0  0
    1.9622   -0.3306    1.6436 O   0  0  0  0  0  0  0  0  0  0  0  0
   -0.1047    0.2407    2.3252 N   0  0  0  0  0  0  0  0  0  0  0  0
   -1.0921    0.1691    2.1033 H   0  0  0  0  0  0  0  0  0  0  0  0
    0.2868    0.4869    3.7072 C   0  0  0  0  0  0  0  0  0  0  0  0
    1.1110    1.2067    3.7503 H   0  0  0  0  0  0  0  0  0  0  0  0
   -0.5561    0.8955    4.2724 H   0  0  0  0  0  0  0  0  0  0  0  0
    0.6074   -0.4448    4.1853 H   0  0  0  0  0  0  0  0  0  0  0  0
  1  2  1  0  0  0  0
  2  3  1  0  0  0  0
  2  4  1  0  0  0  0
  2  5  1  0  0  0  0
  5  6  2  0  0  0  0
  5  7  1  0  0  0  0
  7  8  1  0  0  0  0
  7  9  1  0  0  0  0
  9 10  1  0  0  0  0
  9 11  1  0  0  0  0
  9 22  1  0  0  0  0
 11 12  1  0  0  0  0
 11 13  1  0  0  0  0
 11 14  1  0  0  0  0
 14 15  1  0  0  0  0
 14 16  1  0  0  0  0
 14 17  1  0  0  0  0
 17 18  1  0  0  0  0
 18 19  1  0  0  0  0
 18 20  1  0  0  0  0
 18 21  1  0  0  0  0
 22 23  2  0  0  0  0
 22 24  1  0  0  0  0
 24 25  1  0  0  0  0
 24 26  1  0  0  0  0
 26 27  1  0  0  0  0
 26 28  1  0  0  0  0
 26 29  1  0  0  0  0
M  END
$$$$

  -OEChem-04042216023D

 29 28  0     1  0  0  0  0  0999 V2000
   -2.6990   -4.0612    0.6458 H   0  0  0  0  0  0  0  0  0  0  0  0
   -2.6616   -3.0812    0.1613 C   0  0  0  0  0  0  0  0  0  0  0  0
   -3.4646   -2.4593    0.5637 H   0  0  0  0  0  0  0  0  0  0  0  0
   -2.8153   -3.2154   -0.9122 H   0  0  0  0  0  0  0  0  0  0  0  0
   -1.3174   -2.4253    0.4157 C   0  0  0  0  0  0  0  0  0  0  0  0
   -0.4823   -2.9967    1.0921 O   0  0  0  0  0  0  0  0  0  0  0  0
   -1.0483   -1.1828   -0.1249 N   0  0  0  0  0  0  0  0  0  0  0  0
   -1.7487   -0.8054   -0.7562 H   0  0  0  0  0  0  0  0  0  0  0  0
    0.2693   -0.5171   -0.0693 C   0  0  1  0  0  0  0  0  0  0  0  0
    1.0111   -1.1858   -0.5207 H   0  0  0  0  0  0  0  0  0  0  0  0
    0.1868    0.7609   -0.9470 C   0  0  0  0  0  0  0  0  0  0  0  0
    0.6981    0.5415   -1.8891 H   0  0  0  0  0  0  0  0  0  0  0  0
   -0.8559    0.9831   -1.1952 H   0  0  0  0  0  0  0  0  0  0  0  0
    0.7907    2.0388   -0.3422 C   0  0  0  0  0  0  0  0  0  0  0  0
    0.1371    2.4275    0.4453 H   0  0  0  0  0  0  0  0  0  0  0  0
    1.7725    1.8374    0.0989 H   0  0  0  0  0  0  0  0  0  0  0  0
    1.0026    3.3014   -1.6598 S   0  0  0  0  0  0  0  0  0  0  0  0
    2.5838    2.7843   -2.4400 C   0  0  0  0  0  0  0  0  0  0  0  0
    2.4964    1.7775   -2.8584 H   0  0  0  0  0  0  0  0  0  0  0  0
    2.8460    3.4755   -3.2465 H   0  0  0  0  0  0  0  0  0  0  0  0
    3.3897    2.7881   -1.6998 H   0  0  0  0  0  0  0  0  0  0  0  0
    0.7646   -0.2646    1.3769 C   0  0  0  0  0  0  0  0  0  0  0  0
    1.9631   -0.3040    1.6240 O   0  0  0  0  0  0  0  0  0  0  0  0
   -0.1015    0.2451    2.3278 N   0  0  0  0  0  0  0  0  0  0  0  0
   -1.0910    0.1664    2.1176 H   0  0  0  0  0  0  0  0  0  0  0  0
    0.3046    0.5070    3.7028 C   0  0  0  0  0  0  0  0  0  0  0  0
    1.1197    1.2380    3.7296 H   0  0  0  0  0  0  0  0  0  0  0  0
   -0.5364    0.9089    4.2759 H   0  0  0  0  0  0  0  0  0  0  0  0
    0.6436   -0.4167    4.1837 H   0  0  0  0  0  0  0  0  0  0  0  0
  1  2  1  0  0  0  0
  2  3  1  0  0  0  0
  2  4  1  0  0  0  0
  2  5  1  0  0  0  0
  5  6  2  0  0  0  0
  5  7  1  0  0  0  0
  7  8  1  0  0  0  0
  7  9  1  0  0  0  0
  9 10  1  0  0  0  0
  9 11  1  0  0  0  0
  9 22  1  0  0  0  0
 11 12  1  0  0  0  0
 11 13  1  0  0  0  0
 11 14  1  0  0  0  0
 14 15  1  0  0  0  0
 14 16  1  0  0  0  0
 14 17  1  0  0  0  0
 17 18  1  0  0  0  0
 18 19  1  0  0  0  0
 18 20  1  0  0  0  0
 18 21  1  0  0  0  0
 22 23  2  0  0  0  0
 22 24  1  0  0  0  0
 24 25  1  0  0  0  0
 24 26  1  0  0  0  0
 26 27  1  0  0  0  0
 26 28  1  0  0  0  0
 26 29  1  0  0  0  0
M  END
$$$$

  -OEChem-04042216023D

 29 28  0     1  0  0  0  0  0999 V2000
   -2.6948   -4.0488    0.6477 H   0  0  0  0  0  0  0  0  0  0  0  0
   -2.6502   -3.0726    0.1568 C   0  0  0  0  0  0  0  0  0  0  0  0
   -3.4445   -2.4400    0.5600 H   0  0  0  0  0  0  0  0  0  0  0  0
   -2.8113   -3.2115   -0.9148 H   0  0  0  0  0  0  0  0  0  0  0  0
   -1.2982   -2.4287    0.3996 C   0  0  0  0  0  0  0  0  0  0  0  0
   -0.4598   -3.0091    1.0641 O   0  0  0  0  0  0  0  0  0  0  0  0
   -1.0252   -1.1860   -0.1380 N   0  0  0  0  0  0  0  0  0  0  0  0
   -1.7294   -0.7958   -0.7570 H   0  0  0  0  0  0  0  0  0  0  0  0
    0.2907   -0.5192   -0.0707 C   0  0  1  0  0  0  0  0  0  0  0  0
    1.0429   -1.1756   -0.5231 H   0  0  0  0  0  0  0  0  0  0  0  0
    0.2008    0.7681   -0.9276 C   0  0  0  0  0  0  0  0  0  0  0  0
    0.4370    0.5095   -1.9640 H   0  0  0  0  0  0  0  0  0  0  0  0
   -0.8284    1.1412   -0.9097 H   0  0  0  0  0  0  0  0  0  0  0  0
    1.1006    1.9272   -0.4724 C   0  0  0  0  0  0  0  0  0  0  0  0
    0.8387    2.2395    0.5436 H   0  0  0  0  0  0  0  0  0  0  0  0
    2.1515    1.6180   -0.4694 H   0  0  0  0  0  0  0  0  0  0  0  0
    0.8684    3.3635   -1.5951 S   0  0  0  0  0  0  0  0  0  0  0  0
    1.8801    2.8923   -3.0544 C   0  0  0  0  0  0  0  0  0  0  0  0
    1.4862    1.9842   -3.5189 H   0  0  0  0  0  0  0  0  0  0  0  0
    1.8646    3.6971   -3.7953 H   0  0  0  0  0  0  0  0  0  0  0  0
    2.9169    2.7134   -2.7543 H   0  0  0  0  0  0  0  0  0  0  0  0
    0.7716   -0.2675    1.3802 C   0  0  0  0  0  0  0  0  0  0  0  0
    1.9684   -0.2973    1.6364 O   0  0  0  0  0  0  0  0  0  0  0  0
   -0.1039    0.2406    2.3233 N   0  0  0  0  0  0  0  0  0  0  0  0
   -1.0916    0.1737    2.1014 H   0  0  0  0  0  0  0  0  0  0  0  0
    0.2915    0.5242    3.6970 C   0  0  0  0  0  0  0  0  0  0  0  0
    1.0992    1.2634    3.7186 H   0  0  0  0  0  0  0  0  0  0  0  0
   -0.5565    0.9252    4.2603 H   0  0  0  0  0  0  0  0  0  0  0  0
    0.6369   -0.3900    4.1914 H   0  0  0  0  0  0  0  0  0  0  0  0
  1  2  1  0  0  0  0
  2  3  1  0  0  0  0
  2  4  1  0  0  0  0
  2  5  1  0  0  0  0
  5  6  2  0  0  0  0
  5  7  1  0  0  0  0
  7  8  1  0  0  0  0
  7  9  1  0  0  0  0
  9 10  1  0  0  0  0
  9 11  1  0  0  0  0
  9 22  1  0  0  0  0
 11 12  1  0  0  0  0
 11 13  1  0  0  0  0
 11 14  1  0  0  0  0
 14 15  1  0  0  0  0
 14 16  1  0  0  0  0
 14 17  1  0  0  0  0
 17 18  1  0  0  0  0
 18 19  1  0  0  0  0
 18 20  1  0  0  0  0
 18 21  1  0  0  0  0
 22 23  2  0  0  0  0
 22 24  1  0  0  0  0
 24 25  1  0  0  0  0
 24 26  1  0  0  0  0
 26 27  1  0  0  0  0
 26 28  1  0  0  0  0
 26 29  1  0  0  0  0
M  END
$$$$

  -OEChem-04042216023D

 29 28  0     1  0  0  0  0  0999 V2000
   -2.6857   -4.0263    0.5886 H   0  0  0  0  0  0  0  0  0  0  0  0
   -2.6391   -3.0348    0.1289 C   0  0  0  0  0  0  0  0  0  0  0  0
   -3.4191   -2.4078    0.5673 H   0  0  0  0  0  0  0  0  0  0  0  0
   -2.8211   -3.1367   -0.9437 H   0  0  0  0  0  0  0  0  0  0  0  0
   -1.2759   -2.4134    0.3680 C   0  0  0  0  0  0  0  0  0  0  0  0
   -0.4385   -3.0187    1.0112 O   0  0  0  0  0  0  0  0  0  0  0  0
   -0.9925   -1.1625   -0.1450 N   0  0  0  0  0  0  0  0  0  0  0  0
   -1.7036   -0.7395   -0.7338 H   0  0  0  0  0  0  0  0  0  0  0  0
    0.3231   -0.4982   -0.0483 C   0  0  1  0  0  0  0  0  0  0  0  0
    1.0800   -1.1546   -0.4927 H   0  0  0  0  0  0  0  0  0  0  0  0
    0.2587    0.7920   -0.9056 C   0  0  0  0  0  0  0  0  0  0  0  0
    0.5027    0.5386   -1.9417 H   0  0  0  0  0  0  0  0  0  0  0  0
   -0.7722    1.1607   -0.8935 H   0  0  0  0  0  0  0  0  0  0  0  0
    1.1455    1.9623   -0.4452 C   0  0  0  0  0  0  0  0  0  0  0  0
    1.0438    2.1351    0.6301 H   0  0  0  0  0  0  0  0  0  0  0  0
    2.1995    1.7477   -0.6506 H   0  0  0  0  0  0  0  0  0  0  0  0
    0.6141    3.5066   -1.2890 S   0  0  0  0  0  0  0  0  0  0  0  0
    1.2234    3.2549   -3.0037 C   0  0  0  0  0  0  0  0  0  0  0  0
    0.7209    2.4020   -3.4684 H   0  0  0  0  0  0  0  0  0  0  0  0
    1.0244    4.1464   -3.6059 H   0  0  0  0  0  0  0  0  0  0  0  0
    2.3018    3.0701   -2.9991 H   0  0  0  0  0  0  0  0  0  0  0  0
    0.7812   -0.2713    1.4131 C   0  0  0  0  0  0  0  0  0  0  0  0
    1.9739   -0.3055    1.6870 O   0  0  0  0  0  0  0  0  0  0  0  0
   -0.1089    0.2217    2.3502 N   0  0  0  0  0  0  0  0  0  0  0  0
   -1.0924    0.1665    2.1080 H   0  0  0  0  0  0  0  0  0  0  0  0
    0.2623    0.4748    3.7368 C   0  0  0  0  0  0  0  0  0  0  0  0
    1.0618    1.2212    3.7903 H   0  0  0  0  0  0  0  0  0  0  0  0
   -0.5990    0.8522    4.2961 H   0  0  0  0  0  0  0  0  0  0  0  0
    0.6096   -0.4479    4.2136 H   0  0  0  0  0  0  0  0  0  0  0  0
  1  2  1  0  0  0  0
  2  3  1  0  0  0  0
  2  4  1  0  0  0  0
  2  5  1  0  0  0  0
  5  6  2  0  0  0  0
  5  7  1  0  0  0  0
  7  8  1  0  0  0  0
  7  9  1  0  0  0  0
  9 10  1  0  0  0  0
  9 11  1  0  0  0  0
  9 22  1  0  0  0  0
 11 12  1  0  0  0  0
 11 13  1  0  0  0  0
 11 14  1  0  0  0  0
 14 15  1  0  0  0  0
 14 16  1  0  0  0  0
 14 17  1  0  0  0  0
 17 18  1  0  0  0  0
 18 19  1  0  0  0  0
 18 20  1  0  0  0  0
 18 21  1  0  0  0  0
 22 23  2  0  0  0  0
 22 24  1  0  0  0  0
 24 25  1  0  0  0  0
 24 26  1  0  0  0  0
 26 27  1  0  0  0  0
 26 28  1  0  0  0  0
 26 29  1  0  0  0  0
M  END
$$$$

  -OEChem-04042216023D

 29 28  0     1  0  0  0  0  0999 V2000
   -2.7064   -3.9943    0.5672 H   0  0  0  0  0  0  0  0  0  0  0  0
   -2.6473   -2.9999    0.1153 C   0  0  0  0  0  0  0  0  0  0  0  0
   -3.4144   -2.3640    0.5637 H   0  0  0  0  0  0  0  0  0  0  0  0
   -2.8371   -3.0901   -0.9570 H   0  0  0  0  0  0  0  0  0  0  0  0
   -1.2731   -2.4018    0.3509 C   0  0  0  0  0  0  0  0  0  0  0  0
   -0.4378   -3.0293    0.9754 O   0  0  0  0  0  0  0  0  0  0  0  0
   -0.9763   -1.1479   -0.1471 N   0  0  0  0  0  0  0  0  0  0  0  0
   -1.6896   -0.7015   -0.7153 H   0  0  0  0  0  0  0  0  0  0  0  0
    0.3447   -0.4960   -0.0367 C   0  0  1  0  0  0  0  0  0  0  0  0
    1.0989   -1.1548   -0.4820 H   0  0  0  0  0  0  0  0  0  0  0  0
    0.2928    0.8005   -0.8889 C   0  0  0  0  0  0  0  0  0  0  0  0
    0.5270    0.5536   -1.9290 H   0  0  0  0  0  0  0  0  0  0  0  0
   -0.7398    1.1643   -0.8689 H   0  0  0  0  0  0  0  0  0  0  0  0
    1.1774    1.9816   -0.4384 C   0  0  0  0  0  0  0  0  0  0  0  0
    1.2936    2.0148    0.6472 H   0  0  0  0  0  0  0  0  0  0  0  0
    2.1787    1.8915   -0.8716 H   0  0  0  0  0  0  0  0  0  0  0  0
    0.3887    3.5703   -0.9242 S   0  0  0  0  0  0  0  0  0  0  0  0
    0.6033    3.5694   -2.7484 C   0  0  0  0  0  0  0  0  0  0  0  0
    0.0822    2.7181   -3.1955 H   0  0  0  0  0  0  0  0  0  0  0  0
    0.1948    4.4910   -3.1735 H   0  0  0  0  0  0  0  0  0  0  0  0
    1.6653    3.5072   -3.0044 H   0  0  0  0  0  0  0  0  0  0  0  0
    0.7911   -0.2920    1.4315 C   0  0  0  0  0  0  0  0  0  0  0  0
    1.9796   -0.3542    1.7189 O   0  0  0  0  0  0  0  0  0  0  0  0
   -0.1018    0.1970    2.3681 N   0  0  0  0  0  0  0  0  0  0  0  0
   -1.0826    0.1831    2.1098 H   0  0  0  0  0  0  0  0  0  0  0  0
    0.2600    0.4406    3.7586 C   0  0  0  0  0  0  0  0  0  0  0  0
    1.0541    1.1920    3.8224 H   0  0  0  0  0  0  0  0  0  0  0  0
   -0.6067    0.8073    4.3167 H   0  0  0  0  0  0  0  0  0  0  0  0
    0.6107   -0.4838    4.2297 H   0  0  0  0  0  0  0  0  0  0  0  0
  1  2  1  0  0  0  0
  2  3  1  0  0  0  0
  2  4  1  0  0  0  0
  2  5  1  0  0  0  0
  5  6  2  0  0  0  0
  5  7  1  0  0  0  0
  7  8  1  0  0  0  0
  7  9  1  0  0  0  0
  9 10  1  0  0  0  0
  9 11  1  0  0  0  0
  9 22  1  0  0  0  0
 11 12  1  0  0  0  0
 11 13  1  0  0  0  0
 11 14  1  0  0  0  0
 14 15  1  0  0  0  0
 14 16  1  0  0  0  0
 14 17  1  0  0  0  0
 17 18  1  0  0  0  0
 18 19  1  0  0  0  0
 18 20  1  0  0  0  0
 18 21  1  0  0  0  0
 22 23  2  0  0  0  0
 22 24  1  0  0  0  0
 24 25  1  0  0  0  0
 24 26  1  0  0  0  0
 26 27  1  0  0  0  0
 26 28  1  0  0  0  0
 26 29  1  0  0  0  0
M  END
$$$$

  -OEChem-04042216023D

 29 28  0     1  0  0  0  0  0999 V2000
   -2.7305   -3.9708    0.5855 H   0  0  0  0  0  0  0  0  0  0  0  0
   -2.6591   -2.9782    0.1313 C   0  0  0  0  0  0  0  0  0  0  0  0
   -3.4070   -2.3276    0.5906 H   0  0  0  0  0  0  0  0  0  0  0  0
   -2.8673   -3.0661   -0.9377 H   0  0  0  0  0  0  0  0  0  0  0  0
   -1.2702   -2.4062    0.3445 C   0  0  0  0  0  0  0  0  0  0  0  0
   -0.4334   -3.0542    0.9455 O   0  0  0  0  0  0  0  0  0  0  0  0
   -0.9611   -1.1546   -0.1518 N   0  0  0  0  0  0  0  0  0  0  0  0
   -1.6827   -0.6847   -0.6898 H   0  0  0  0  0  0  0  0  0  0  0  0
    0.3646   -0.5122   -0.0378 C   0  0  1  0  0  0  0  0  0  0  0  0
    1.1178   -1.1717   -0.4839 H   0  0  0  0  0  0  0  0  0  0  0  0
    0.3101    0.7899   -0.8839 C   0  0  0  0  0  0  0  0  0  0  0  0
    0.5442    0.5436   -1.9244 H   0  0  0  0  0  0  0  0  0  0  0  0
   -0.7249    1.1465   -0.8683 H   0  0  0  0  0  0  0  0  0  0  0  0
    1.1944    1.9794   -0.4433 C   0  0  0  0  0  0  0  0  0  0  0  0
    1.5672    1.8723    0.5768 H   0  0  0  0  0  0  0  0  0  0  0  0
    2.0719    2.0482   -1.0941 H   0  0  0  0  0  0  0  0  0  0  0  0
    0.2306    3.5453   -0.5041 S   0  0  0  0  0  0  0  0  0  0  0  0
    0.0510    3.8198   -2.3113 C   0  0  0  0  0  0  0  0  0  0  0  0
   -0.4841    2.9860   -2.7744 H   0  0  0  0  0  0  0  0  0  0  0  0
   -0.5102    4.7408   -2.4956 H   0  0  0  0  0  0  0  0  0  0  0  0
    1.0354    3.9110   -2.7798 H   0  0  0  0  0  0  0  0  0  0  0  0
    0.8002   -0.3156    1.4351 C   0  0  0  0  0  0  0  0  0  0  0  0
    1.9822   -0.4152    1.7389 O   0  0  0  0  0  0  0  0  0  0  0  0
   -0.0953    0.1779    2.3665 N   0  0  0  0  0  0  0  0  0  0  0  0
   -1.0699    0.2164    2.0889 H   0  0  0  0  0  0  0  0  0  0  0  0
    0.2586    0.4310    3.7570 C   0  0  0  0  0  0  0  0  0  0  0  0
    1.0485    1.1869    3.8197 H   0  0  0  0  0  0  0  0  0  0  0  0
   -0.6127    0.7964    4.3086 H   0  0  0  0  0  0  0  0  0  0  0  0
    0.6116   -0.4888    4.2351 H   0  0  0  0  0  0  0  0  0  0  0  0
  1  2  1  0  0  0  0
  2  3  1  0  0  0  0
  2  4  1  0  0  0  0
  2  5  1  0  0  0  0
  5  6  2  0  0  0  0
  5  7  1  0  0  0  0
  7  8  1  0  0  0  0
  7  9  1  0  0  0  0
  9 10  1  0  0  0  0
  9 11  1  0  0  0  0
  9 22  1  0  0  0  0
 11 12  1  0  0  0  0
 11 13  1  0  0  0  0
 11 14  1  0  0  0  0
 14 15  1  0  0  0  0
 14 16  1  0  0  0  0
 14 17  1  0  0  0  0
 17 18  1  0  0  0  0
 18 19  1  0  0  0  0
 18 20  1  0  0  0  0
 18 21  1  0  0  0  0
 22 23  2  0  0  0  0
 22 24  1  0  0  0  0
 24 25  1  0  0  0  0
 24 26  1  0  0  0  0
 26 27  1  0  0  0  0
 26 28  1  0  0  0  0
 26 29  1  0  0  0  0
M  END
$$$$

  -OEChem-04042216023D

 29 28  0     1  0  0  0  0  0999 V2000
   -2.7297   -3.9808    0.6363 H   0  0  0  0  0  0  0  0  0  0  0  0
   -2.6582   -2.9940    0.1698 C   0  0  0  0  0  0  0  0  0  0  0  0
   -3.3879   -2.3301    0.6392 H   0  0  0  0  0  0  0  0  0  0  0  0
   -2.8918   -3.0902   -0.8932 H   0  0  0  0  0  0  0  0  0  0  0  0
   -1.2588   -2.4356    0.3453 C   0  0  0  0  0  0  0  0  0  0  0  0
   -0.4122   -3.0920    0.9230 O   0  0  0  0  0  0  0  0  0  0  0  0
   -0.9511   -1.1890   -0.1640 N   0  0  0  0  0  0  0  0  0  0  0  0
   -1.6855   -0.7085   -0.6740 H   0  0  0  0  0  0  0  0  0  0  0  0
    0.3737   -0.5442   -0.0560 C   0  0  1  0  0  0  0  0  0  0  0  0
    1.1318   -1.1973   -0.5031 H   0  0  0  0  0  0  0  0  0  0  0  0
    0.2992    0.7616   -0.8933 C   0  0  0  0  0  0  0  0  0  0  0  0
    0.5497    0.5135   -1.9296 H   0  0  0  0  0  0  0  0  0  0  0  0
   -0.7383    1.1097   -0.8959 H   0  0  0  0  0  0  0  0  0  0  0  0
    1.1835    1.9488   -0.4480 C   0  0  0  0  0  0  0  0  0  0  0  0
    1.8135    1.7111    0.4117 H   0  0  0  0  0  0  0  0  0  0  0  0
    1.8657    2.2130   -1.2622 H   0  0  0  0  0  0  0  0  0  0  0  0
    0.1418    3.4105   -0.0430 S   0  0  0  0  0  0  0  0  0  0  0  0
   -0.3812    3.9926   -1.7051 C   0  0  0  0  0  0  0  0  0  0  0  0
   -0.9494    3.2152   -2.2234 H   0  0  0  0  0  0  0  0  0  0  0  0
   -1.0126    4.8809   -1.6083 H   0  0  0  0  0  0  0  0  0  0  0  0
    0.4944    4.2506   -2.3082 H   0  0  0  0  0  0  0  0  0  0  0  0
    0.8002   -0.3354    1.4188 C   0  0  0  0  0  0  0  0  0  0  0  0
    1.9744   -0.4669    1.7401 O   0  0  0  0  0  0  0  0  0  0  0  0
   -0.0997    0.1651    2.3423 N   0  0  0  0  0  0  0  0  0  0  0  0
   -1.0591    0.2834    2.0366 H   0  0  0  0  0  0  0  0  0  0  0  0
    0.2515    0.4634    3.7242 C   0  0  0  0  0  0  0  0  0  0  0  0
    1.0318    1.2308    3.7635 H   0  0  0  0  0  0  0  0  0  0  0  0
   -0.6242    0.8331    4.2660 H   0  0  0  0  0  0  0  0  0  0  0  0
    0.6163   -0.4377    4.2287 H   0  0  0  0  0  0  0  0  0  0  0  0
  1  2  1  0  0  0  0
  2  3  1  0  0  0  0
  2  4  1  0  0  0  0
  2  5  1  0  0  0  0
  5  6  2  0  0  0  0
  5  7  1  0  0  0  0
  7  8  1  0  0  0  0
  7  9  1  0  0  0  0
  9 10  1  0  0  0  0
  9 11  1  0  0  0  0
  9 22  1  0  0  0  0
 11 12  1  0  0  0  0
 11 13  1  0  0  0  0
 11 14  1  0  0  0  0
 14 15  1  0  0  0  0
 14 16  1  0  0  0  0
 14 17  1  0  0  0  0
 17 18  1  0  0  0  0
 18 19  1  0  0  0  0
 18 20  1  0  0  0  0
 18 21  1  0  0  0  0
 22 23  2  0  0  0  0
 22 24  1  0  0  0  0
 24 25  1  0  0  0  0
 24 26  1  0  0  0  0
 26 27  1  0  0  0  0
 26 28  1  0  0  0  0
 26 29  1  0  0  0  0
M  END
$$$$

  -OEChem-04042216023D

 29 28  0     1  0  0  0  0  0999 V2000
   -2.7060   -4.0329    0.6477 H   0  0  0  0  0  0  0  0  0  0  0  0
   -2.6497   -3.0436    0.1844 C   0  0  0  0  0  0  0  0  0  0  0  0
   -3.3786   -2.3883    0.6670 H   0  0  0  0  0  0  0  0  0  0  0  0
   -2.8973   -3.1379   -0.8756 H   0  0  0  0  0  0  0  0  0  0  0  0
   -1.2524   -2.4738    0.3424 C   0  0  0  0  0  0  0  0  0  0  0  0
   -0.3930   -3.1261    0.9054 O   0  0  0  0  0  0  0  0  0  0  0  0
   -0.9594   -1.2256   -0.1718 N   0  0  0  0  0  0  0  0  0  0  0  0
   -1.7047   -0.7467   -0.6668 H   0  0  0  0  0  0  0  0  0  0  0  0
    0.3582   -0.5668   -0.0655 C   0  0  1  0  0  0  0  0  0  0  0  0
    1.1221   -1.2143   -0.5112 H   0  0  0  0  0  0  0  0  0  0  0  0
    0.2704    0.7357   -0.9039 C   0  0  0  0  0  0  0  0  0  0  0  0
    0.5506    0.4837   -1.9315 H   0  0  0  0  0  0  0  0  0  0  0  0
   -0.7676    1.0802   -0.9354 H   0  0  0  0  0  0  0  0  0  0  0  0
    1.1496    1.9146   -0.4404 C   0  0  0  0  0  0  0  0  0  0  0  0
    1.9641    1.5915    0.2141 H   0  0  0  0  0  0  0  0  0  0  0  0
    1.6232    2.3715   -1.3152 H   0  0  0  0  0  0  0  0  0  0  0  0
    0.1216    3.1941    0.3924 S   0  0  0  0  0  0  0  0  0  0  0  0
   -0.6738    4.0524   -1.0244 C   0  0  0  0  0  0  0  0  0  0  0  0
   -1.2775    3.3525   -1.6087 H   0  0  0  0  0  0  0  0  0  0  0  0
   -1.3238    4.8533   -0.6593 H   0  0  0  0  0  0  0  0  0  0  0  0
    0.0870    4.4912   -1.6767 H   0  0  0  0  0  0  0  0  0  0  0  0
    0.7890   -0.3448    1.4072 C   0  0  0  0  0  0  0  0  0  0  0  0
    1.9632   -0.4811    1.7271 O   0  0  0  0  0  0  0  0  0  0  0  0
   -0.1091    0.1516    2.3347 N   0  0  0  0  0  0  0  0  0  0  0  0
   -1.0508    0.3422    2.0111 H   0  0  0  0  0  0  0  0  0  0  0  0
    0.2623    0.5077    3.6974 C   0  0  0  0  0  0  0  0  0  0  0  0
    1.0065    1.3109    3.6930 H   0  0  0  0  0  0  0  0  0  0  0  0
   -0.6159    0.8517    4.2516 H   0  0  0  0  0  0  0  0  0  0  0  0
    0.6819   -0.3596    4.2181 H   0  0  0  0  0  0  0  0  0  0  0  0
  1  2  1  0  0  0  0
  2  3  1  0  0  0  0
  2  4  1  0  0  0  0
  2  5  1  0  0  0  0
  5  6  2  0  0  0  0
  5  7  1  0  0  0  0
  7  8  1  0  0  0  0
  7  9  1  0  0  0  0
  9 10  1  0  0  0  0
  9 11  1  0  0  0  0
  9 22  1  0  0  0  0
 11 12  1  0  0  0  0
 11 13  1  0  0  0  0
 11 14  1  0  0  0  0
 14 15  1  0  0  0  0
 14 16  1  0  0  0  0
 14 17  1  0  0  0  0
 17 18  1  0  0  0  0
 18 19  1  0  0  0  0
 18 20  1  0  0  0  0
 18 21  1  0  0  0  0
 22 23  2  0  0  0  0
 22 24  1  0  0  0  0
 24 25  1  0  0  0  0
 24 26  1  0  0  0  0
 26 27  1  0  0  0  0
 26 28  1  0  0  0  0
 26 29  1  0  0  0  0
M  END
$$$$

  -OEChem-04042216023D

 29 28  0     1  0  0  0  0  0999 V2000
   -2.6782   -4.0867    0.6114 H   0  0  0  0  0  0  0  0  0  0  0  0
   -2.6399   -3.0865    0.1705 C   0  0  0  0  0  0  0  0  0  0  0  0
   -3.3690   -2.4511    0.6788 H   0  0  0  0  0  0  0  0  0  0  0  0
   -2.9021   -3.1590   -0.8877 H   0  0  0  0  0  0  0  0  0  0  0  0
   -1.2471   -2.5040    0.3213 C   0  0  0  0  0  0  0  0  0  0  0  0
   -0.3695   -3.1604    0.8510 O   0  0  0  0  0  0  0  0  0  0  0  0
   -0.9782   -1.2397   -0.1654 N   0  0  0  0  0  0  0  0  0  0  0  0
   -1.7427   -0.7500   -0.6184 H   0  0  0  0  0  0  0  0  0  0  0  0
    0.3279   -0.5618   -0.0494 C   0  0  1  0  0  0  0  0  0  0  0  0
    1.0932   -1.2072   -0.4960 H   0  0  0  0  0  0  0  0  0  0  0  0
    0.2533    0.7304   -0.9040 C   0  0  0  0  0  0  0  0  0  0  0  0
    0.5620    0.4675   -1.9207 H   0  0  0  0  0  0  0  0  0  0  0  0
   -0.7833    1.0749   -0.9648 H   0  0  0  0  0  0  0  0  0  0  0  0
    1.1175    1.9113   -0.4294 C   0  0  0  0  0  0  0  0  0  0  0  0
    2.0446    1.5556    0.0326 H   0  0  0  0  0  0  0  0  0  0  0  0
    1.4072    2.5171   -1.2937 H   0  0  0  0  0  0  0  0  0  0  0  0
    0.1847    2.9819    0.7426 S   0  0  0  0  0  0  0  0  0  0  0  0
   -0.8508    3.9989   -0.3834 C   0  0  0  0  0  0  0  0  0  0  0  0
   -1.5284    3.3647   -0.9616 H   0  0  0  0  0  0  0  0  0  0  0  0
   -1.4470    4.7091    0.1973 H   0  0  0  0  0  0  0  0  0  0  0  0
   -0.2170    4.5601   -1.0762 H   0  0  0  0  0  0  0  0  0  0  0  0
    0.7772   -0.3580    1.4205 C   0  0  0  0  0  0  0  0  0  0  0  0
    1.9610   -0.4709    1.7142 O   0  0  0  0  0  0  0  0  0  0  0  0
   -0.1120    0.1055    2.3736 N   0  0  0  0  0  0  0  0  0  0  0  0
   -1.0509    0.3218    2.0588 H   0  0  0  0  0  0  0  0  0  0  0  0
    0.2914    0.4919    3.7190 C   0  0  0  0  0  0  0  0  0  0  0  0
    0.9852    1.3382    3.6811 H   0  0  0  0  0  0  0  0  0  0  0  0
   -0.5832    0.7860    4.3067 H   0  0  0  0  0  0  0  0  0  0  0  0
    0.7825   -0.3451    4.2265 H   0  0  0  0  0  0  0  0  0  0  0  0
  1  2  1  0  0  0  0
  2  3  1  0  0  0  0
  2  4  1  0  0  0  0
  2  5  1  0  0  0  0
  5  6  2  0  0  0  0
  5  7  1  0  0  0  0
  7  8  1  0  0  0  0
  7  9  1  0  0  0  0
  9 10  1  0  0  0  0
  9 11  1  0  0  0  0
  9 22  1  0  0  0  0
 11 12  1  0  0  0  0
 11 13  1  0  0  0  0
 11 14  1  0  0  0  0
 14 15  1  0  0  0  0
 14 16  1  0  0  0  0
 14 17  1  0  0  0  0
 17 18  1  0  0  0  0
 18 19  1  0  0  0  0
 18 20  1  0  0  0  0
 18 21  1  0  0  0  0
 22 23  2  0  0  0  0
 22 24  1  0  0  0  0
 24 25  1  0  0  0  0
 24 26  1  0  0  0  0
 26 27  1  0  0  0  0
 26 28  1  0  0  0  0
 26 29  1  0  0  0  0
M  END
$$$$

  -OEChem-04042216023D

 29 28  0     1  0  0  0  0  0999 V2000
   -2.6681   -4.1129    0.5289 H   0  0  0  0  0  0  0  0  0  0  0  0
   -2.6435   -3.0928    0.1344 C   0  0  0  0  0  0  0  0  0  0  0  0
   -3.3824   -2.4915    0.6693 H   0  0  0  0  0  0  0  0  0  0  0  0
   -2.9024   -3.1205   -0.9268 H   0  0  0  0  0  0  0  0  0  0  0  0
   -1.2599   -2.4977    0.3157 C   0  0  0  0  0  0  0  0  0  0  0  0
   -0.3816   -3.1560    0.8414 O   0  0  0  0  0  0  0  0  0  0  0  0
   -1.0015   -1.2178   -0.1350 N   0  0  0  0  0  0  0  0  0  0  0  0
   -1.7645   -0.7295   -0.5920 H   0  0  0  0  0  0  0  0  0  0  0  0
    0.3026   -0.5372   -0.0113 C   0  0  1  0  0  0  0  0  0  0  0  0
    1.0566   -1.1963   -0.4573 H   0  0  0  0  0  0  0  0  0  0  0  0
    0.2700    0.7379   -0.8963 C   0  0  0  0  0  0  0  0  0  0  0  0
    0.5925    0.4479   -1.9013 H   0  0  0  0  0  0  0  0  0  0  0  0
   -0.7617    1.0900   -0.9820 H   0  0  0  0  0  0  0  0  0  0  0  0
    1.1255    1.9361   -0.4484 C   0  0  0  0  0  0  0  0  0  0  0  0
    2.1280    1.5837   -0.1807 H   0  0  0  0  0  0  0  0  0  0  0  0
    1.2389    2.6316   -1.2856 H   0  0  0  0  0  0  0  0  0  0  0  0
    0.4055    2.8511    0.9783 S   0  0  0  0  0  0  0  0  0  0  0  0
   -0.9448    3.8241    0.2026 C   0  0  0  0  0  0  0  0  0  0  0  0
   -1.6979    3.1600   -0.2297 H   0  0  0  0  0  0  0  0  0  0  0  0
   -1.4276    4.4568    0.9537 H   0  0  0  0  0  0  0  0  0  0  0  0
   -0.5433    4.4655   -0.5876 H   0  0  0  0  0  0  0  0  0  0  0  0
    0.7782   -0.3691    1.4539 C   0  0  0  0  0  0  0  0  0  0  0  0
    1.9702   -0.4755    1.7154 O   0  0  0  0  0  0  0  0  0  0  0  0
   -0.0914    0.0628    2.4398 N   0  0  0  0  0  0  0  0  0  0  0  0
   -1.0415    0.2723    2.1563 H   0  0  0  0  0  0  0  0  0  0  0  0
    0.3392    0.4019    3.7897 C   0  0  0  0  0  0  0  0  0  0  0  0
    1.0187    1.2604    3.7697 H   0  0  0  0  0  0  0  0  0  0  0  0
   -0.5250    0.6569    4.4101 H   0  0  0  0  0  0  0  0  0  0  0  0
    0.8562   -0.4465    4.2505 H   0  0  0  0  0  0  0  0  0  0  0  0
  1  2  1  0  0  0  0
  2  3  1  0  0  0  0
  2  4  1  0  0  0  0
  2  5  1  0  0  0  0
  5  6  2  0  0  0  0
  5  7  1  0  0  0  0
  7  8  1  0  0  0  0
  7  9  1  0  0  0  0
  9 10  1  0  0  0  0
  9 11  1  0  0  0  0
  9 22  1  0  0  0  0
 11 12  1  0  0  0  0
 11 13  1  0  0  0  0
 11 14  1  0  0  0  0
 14 15  1  0  0  0  0
 14 16  1  0  0  0  0
 14 17  1  0  0  0  0
 17 18  1  0  0  0  0
 18 19  1  0  0  0  0
 18 20  1  0  0  0  0
 18 21  1  0  0  0  0
 22 23  2  0  0  0  0
 22 24  1  0  0  0  0
 24 25  1  0  0  0  0
 24 26  1  0  0  0  0
 26 27  1  0  0  0  0
 26 28  1  0  0  0  0
 26 29  1  0  0  0  0
M  END
$$$$

  -OEChem-04042216023D

 29 28  0     1  0  0  0  0  0999 V2000
   -2.7268   -4.0091    0.5362 H   0  0  0  0  0  0  0  0  0  0  0  0
   -2.6681   -3.0018    0.1138 C   0  0  0  0  0  0  0  0  0  0  0  0
   -3.4171   -2.3726    0.6007 H   0  0  0  0  0  0  0  0  0  0  0  0
   -2.8845   -3.0564   -0.9558 H   0  0  0  0  0  0  0  0  0  0  0  0
   -1.2827   -2.4244    0.3330 C   0  0  0  0  0  0  0  0  0  0  0  0
   -0.4318   -3.0893    0.8938 O   0  0  0  0  0  0  0  0  0  0  0  0
   -0.9959   -1.1499   -0.1160 N   0  0  0  0  0  0  0  0  0  0  0  0
   -1.7315   -0.6682   -0.6222 H   0  0  0  0  0  0  0  0  0  0  0  0
    0.3233   -0.4968    0.0058 C   0  0  1  0  0  0  0  0  0  0  0  0
    1.0604   -1.1834   -0.4271 H   0  0  0  0  0  0  0  0  0  0  0  0
    0.3339    0.7551   -0.9167 C   0  0  0  0  0  0  0  0  0  0  0  0
    0.6394    0.4244   -1.9147 H   0  0  0  0  0  0  0  0  0  0  0  0
   -0.6924    1.1215   -1.0076 H   0  0  0  0  0  0  0  0  0  0  0  0
    1.1959    1.9789   -0.5429 C   0  0  0  0  0  0  0  0  0  0  0  0
    2.2438    1.6612   -0.5114 H   0  0  0  0  0  0  0  0  0  0  0  0
    1.1064    2.7260   -1.3378 H   0  0  0  0  0  0  0  0  0  0  0  0
    0.8102    2.7955    1.0613 S   0  0  0  0  0  0  0  0  0  0  0  0
   -0.9276    3.3486    0.8529 C   0  0  0  0  0  0  0  0  0  0  0  0
   -1.5920    2.4879    0.7397 H   0  0  0  0  0  0  0  0  0  0  0  0
   -1.2440    3.9191    1.7312 H   0  0  0  0  0  0  0  0  0  0  0  0
   -1.0185    3.9872   -0.0307 H   0  0  0  0  0  0  0  0  0  0  0  0
    0.7992   -0.3439    1.4715 C   0  0  0  0  0  0  0  0  0  0  0  0
    1.9859   -0.4856    1.7385 O   0  0  0  0  0  0  0  0  0  0  0  0
   -0.0662    0.1025    2.4553 N   0  0  0  0  0  0  0  0  0  0  0  0
   -1.0378    0.2243    2.1969 H   0  0  0  0  0  0  0  0  0  0  0  0
    0.3441    0.3412    3.8328 C   0  0  0  0  0  0  0  0  0  0  0  0
    1.1291    1.1038    3.8712 H   0  0  0  0  0  0  0  0  0  0  0  0
   -0.5056    0.6905    4.4265 H   0  0  0  0  0  0  0  0  0  0  0  0
    0.7262   -0.5812    4.2828 H   0  0  0  0  0  0  0  0  0  0  0  0
  1  2  1  0  0  0  0
  2  3  1  0  0  0  0
  2  4  1  0  0  0  0
  2  5  1  0  0  0  0
  5  6  2  0  0  0  0
  5  7  1  0  0  0  0
  7  8  1  0  0  0  0
  7  9  1  0  0  0  0
  9 10  1  0  0  0  0
  9 11  1  0  0  0  0
  9 22  1  0  0  0  0
 11 12  1  0  0  0  0
 11 13  1  0  0  0  0
 11 14  1  0  0  0  0
 14 15  1  0  0  0  0
 14 16  1  0  0  0  0
 14 17  1  0  0  0  0
 17 18  1  0  0  0  0
 18 19  1  0  0  0  0
 18 20  1  0  0  0  0
 18 21  1  0  0  0  0
 22 23  2  0  0  0  0
 22 24  1  0  0  0  0
 24 25  1  0  0  0  0
 24 26  1  0  0  0  0
 26 27  1  0  0  0  0
 26 28  1  0  0  0  0
 26 29  1  0  0  0  0
M  END
$$$$

  -OEChem-04042216023D

 29 28  0     1  0  0  0  0  0999 V2000
   -2.6921   -4.0656    0.5345 H   0  0  0  0  0  0  0  0  0  0  0  0
   -2.6397   -3.0574    0.1132 C   0  0  0  0  0  0  0  0  0  0  0  0
   -3.3914   -2.4335    0.6021 H   0  0  0  0  0  0  0  0  0  0  0  0
   -2.8583   -3.1123   -0.9559 H   0  0  0  0  0  0  0  0  0  0  0  0
   -1.2568   -2.4729    0.3317 C   0  0  0  0  0  0  0  0  0  0  0  0
   -0.3982   -3.1397    0.8780 O   0  0  0  0  0  0  0  0  0  0  0  0
   -0.9816   -1.1896   -0.0999 N   0  0  0  0  0  0  0  0  0  0  0  0
   -1.7212   -0.7096   -0.6019 H   0  0  0  0  0  0  0  0  0  0  0  0
    0.3328   -0.5251    0.0247 C   0  0  1  0  0  0  0  0  0  0  0  0
    1.0791   -1.1953   -0.4178 H   0  0  0  0  0  0  0  0  0  0  0  0
    0.3137    0.7341   -0.8935 C   0  0  0  0  0  0  0  0  0  0  0  0
    0.5792    0.4087   -1.9045 H   0  0  0  0  0  0  0  0  0  0  0  0
   -0.7235    1.0800   -0.9363 H   0  0  0  0  0  0  0  0  0  0  0  0
    1.1362    2.0060   -0.5788 C   0  0  0  0  0  0  0  0  0  0  0  0
    2.1815    1.7793   -0.8138 H   0  0  0  0  0  0  0  0  0  0  0  0
    0.8200    2.8043   -1.2577 H   0  0  0  0  0  0  0  0  0  0  0  0
    1.1207    2.6635    1.1377 S   0  0  0  0  0  0  0  0  0  0  0  0
   -0.6109    3.2448    1.3156 C   0  0  0  0  0  0  0  0  0  0  0  0
   -1.3079    2.4124    1.1881 H   0  0  0  0  0  0  0  0  0  0  0  0
   -0.7588    3.6758    2.3103 H   0  0  0  0  0  0  0  0  0  0  0  0
   -0.8322    4.0099    0.5657 H   0  0  0  0  0  0  0  0  0  0  0  0
    0.7993   -0.3962    1.4954 C   0  0  0  0  0  0  0  0  0  0  0  0
    1.9789   -0.5682    1.7761 O   0  0  0  0  0  0  0  0  0  0  0  0
   -0.0791    0.0245    2.4796 N   0  0  0  0  0  0  0  0  0  0  0  0
   -1.0572    0.0874    2.2248 H   0  0  0  0  0  0  0  0  0  0  0  0
    0.3053    0.1716    3.8770 C   0  0  0  0  0  0  0  0  0  0  0  0
    1.1200    0.8970    3.9750 H   0  0  0  0  0  0  0  0  0  0  0  0
   -0.5441    0.5258    4.4683 H   0  0  0  0  0  0  0  0  0  0  0  0
    0.6374   -0.7888    4.2852 H   0  0  0  0  0  0  0  0  0  0  0  0
  1  2  1  0  0  0  0
  2  3  1  0  0  0  0
  2  4  1  0  0  0  0
  2  5  1  0  0  0  0
  5  6  2  0  0  0  0
  5  7  1  0  0  0  0
  7  8  1  0  0  0  0
  7  9  1  0  0  0  0
  9 10  1  0  0  0  0
  9 11  1  0  0  0  0
  9 22  1  0  0  0  0
 11 12  1  0  0  0  0
 11 13  1  0  0  0  0
 11 14  1  0  0  0  0
 14 15  1  0  0  0  0
 14 16  1  0  0  0  0
 14 17  1  0  0  0  0
 17 18  1  0  0  0  0
 18 19  1  0  0  0  0
 18 20  1  0  0  0  0
 18 21  1  0  0  0  0
 22 23  2  0  0  0  0
 22 24  1  0  0  0  0
 24 25  1  0  0  0  0
 24 26  1  0  0  0  0
 26 27  1  0  0  0  0
 26 28  1  0  0  0  0
 26 29  1  0  0  0  0
M  END
$$$$

  -OEChem-04042216023D

 29 28  0     1  0  0  0  0  0999 V2000
   -2.6582   -4.1600    0.4788 H   0  0  0  0  0  0  0  0  0  0  0  0
   -2.6124   -3.1420    0.0813 C   0  0  0  0  0  0  0  0  0  0  0  0
   -3.3727   -2.5362    0.5798 H   0  0  0  0  0  0  0  0  0  0  0  0
   -2.8238   -3.1740   -0.9901 H   0  0  0  0  0  0  0  0  0  0  0  0
   -1.2364   -2.5503    0.3218 C   0  0  0  0  0  0  0  0  0  0  0  0
   -0.3825   -3.2149    0.8775 O   0  0  0  0  0  0  0  0  0  0  0  0
   -0.9652   -1.2635   -0.1021 N   0  0  0  0  0  0  0  0  0  0  0  0
   -1.6987   -0.7945   -0.6231 H   0  0  0  0  0  0  0  0  0  0  0  0
    0.3464   -0.5915    0.0256 C   0  0  1  0  0  0  0  0  0  0  0  0
    1.1048   -1.2376   -0.4318 H   0  0  0  0  0  0  0  0  0  0  0  0
    0.2764    0.6893   -0.8642 C   0  0  0  0  0  0  0  0  0  0  0  0
    0.4996    0.3867   -1.8925 H   0  0  0  0  0  0  0  0  0  0  0  0
   -0.7701    1.0094   -0.8527 H   0  0  0  0  0  0  0  0  0  0  0  0
    1.0598    1.9979   -0.5805 C   0  0  0  0  0  0  0  0  0  0  0  0
    2.0253    1.8922   -1.0861 H   0  0  0  0  0  0  0  0  0  0  0  0
    0.5395    2.8305   -1.0644 H   0  0  0  0  0  0  0  0  0  0  0  0
    1.4637    2.4853    1.1440 S   0  0  0  0  0  0  0  0  0  0  0  0
   -0.1188    3.2202    1.7137 C   0  0  0  0  0  0  0  0  0  0  0  0
   -0.9334    2.4983    1.6122 H   0  0  0  0  0  0  0  0  0  0  0  0
   -0.0375    3.5110    2.7654 H   0  0  0  0  0  0  0  0  0  0  0  0
   -0.3583    4.1085    1.1217 H   0  0  0  0  0  0  0  0  0  0  0  0
    0.7949   -0.4772    1.5025 C   0  0  0  0  0  0  0  0  0  0  0  0
    1.9589   -0.7034    1.8088 O   0  0  0  0  0  0  0  0  0  0  0  0
   -0.1001   -0.0701    2.4777 N   0  0  0  0  0  0  0  0  0  0  0  0
   -1.0749   -0.0216    2.2071 H   0  0  0  0  0  0  0  0  0  0  0  0
    0.2501   -0.0055    3.8901 C   0  0  0  0  0  0  0  0  0  0  0  0
    1.0925    0.6775    4.0433 H   0  0  0  0  0  0  0  0  0  0  0  0
   -0.5995    0.3582    4.4754 H   0  0  0  0  0  0  0  0  0  0  0  0
    0.5292   -0.9980    4.2598 H   0  0  0  0  0  0  0  0  0  0  0  0
  1  2  1  0  0  0  0
  2  3  1  0  0  0  0
  2  4  1  0  0  0  0
  2  5  1  0  0  0  0
  5  6  2  0  0  0  0
  5  7  1  0  0  0  0
  7  8  1  0  0  0  0
  7  9  1  0  0  0  0
  9 10  1  0  0  0  0
  9 11  1  0  0  0  0
  9 22  1  0  0  0  0
 11 12  1  0  0  0  0
 11 13  1  0  0  0  0
 11 14  1  0  0  0  0
 14 15  1  0  0  0  0
 14 16  1  0  0  0  0
 14 17  1  0  0  0  0
 17 18  1  0  0  0  0
 18 19  1  0  0  0  0
 18 20  1  0  0  0  0
 18 21  1  0  0  0  0
 22 23  2  0  0  0  0
 22 24  1  0  0  0  0
 24 25  1  0  0  0  0
 24 26  1  0  0  0  0
 26 27  1  0  0  0  0
 26 28  1  0  0  0  0
 26 29  1  0  0  0  0
M  END
$$$$

  -OEChem-04042216023D

 29 28  0     1  0  0  0  0  0999 V2000
   -2.1436   -4.5231    0.6954 H   0  0  0  0  0  0  0  0  0  0  0  0
   -2.2508   -3.5166    0.2804 C   0  0  0  0  0  0  0  0  0  0  0  0
   -3.0568   -3.0029    0.8097 H   0  0  0  0  0  0  0  0  0  0  0  0
   -2.5113   -3.5999   -0.7774 H   0  0  0  0  0  0  0  0  0  0  0  0
   -0.9518   -2.7481    0.4369 C   0  0  0  0  0  0  0  0  0  0  0  0
    0.0059   -3.2859    0.9591 O   0  0  0  0  0  0  0  0  0  0  0  0
   -0.8674   -1.4507   -0.0323 N   0  0  0  0  0  0  0  0  0  0  0  0
   -1.6768   -1.1005   -0.5340 H   0  0  0  0  0  0  0  0  0  0  0  0
    0.3585   -0.6204   -0.0101 C   0  0  1  0  0  0  0  0  0  0  0  0
    1.1635   -1.1613   -0.5208 H   0  0  0  0  0  0  0  0  0  0  0  0
    0.0279    0.6344   -0.8814 C   0  0  0  0  0  0  0  0  0  0  0  0
    0.1902    0.3520   -1.9268 H   0  0  0  0  0  0  0  0  0  0  0  0
   -1.0478    0.8051   -0.7706 H   0  0  0  0  0  0  0  0  0  0  0  0
    0.6372    2.0505   -0.6831 C   0  0  0  0  0  0  0  0  0  0  0  0
    1.3802    2.1745   -1.4778 H   0  0  0  0  0  0  0  0  0  0  0  0
   -0.1421    2.7969   -0.8671 H   0  0  0  0  0  0  0  0  0  0  0  0
    1.5144    2.4989    0.8667 S   0  0  0  0  0  0  0  0  0  0  0  0
    0.1758    3.2613    1.8649 C   0  0  0  0  0  0  0  0  0  0  0  0
    0.5460    3.4947    2.8677 H   0  0  0  0  0  0  0  0  0  0  0  0
   -0.1672    4.1869    1.3933 H   0  0  0  0  0  0  0  0  0  0  0  0
   -0.6718    2.5766    1.9551 H   0  0  0  0  0  0  0  0  0  0  0  0
    0.8703   -0.4193    1.4374 C   0  0  0  0  0  0  0  0  0  0  0  0
    2.0593   -0.5574    1.6962 O   0  0  0  0  0  0  0  0  0  0  0  0
   -0.0142   -0.0992    2.4539 N   0  0  0  0  0  0  0  0  0  0  0  0
   -0.9998   -0.1645    2.2293 H   0  0  0  0  0  0  0  0  0  0  0  0
    0.3906   -0.0313    3.8519 C   0  0  0  0  0  0  0  0  0  0  0  0
    0.7566   -1.0062    4.1906 H   0  0  0  0  0  0  0  0  0  0  0  0
    1.1871    0.7086    3.9837 H   0  0  0  0  0  0  0  0  0  0  0  0
   -0.4572    0.2597    4.4789 H   0  0  0  0  0  0  0  0  0  0  0  0
  1  2  1  0  0  0  0
  2  3  1  0  0  0  0
  2  4  1  0  0  0  0
  2  5  1  0  0  0  0
  5  6  2  0  0  0  0
  5  7  1  0  0  0  0
  7  8  1  0  0  0  0
  7  9  1  0  0  0  0
  9 10  1  0  0  0  0
  9 11  1  0  0  0  0
  9 22  1  0  0  0  0
 11 12  1  0  0  0  0
 11 13  1  0  0  0  0
 11 14  1  0  0  0  0
 14 15  1  0  0  0  0
 14 16  1  0  0  0  0
 14 17  1  0  0  0  0
 17 18  1  0  0  0  0
 18 19  1  0  0  0  0
 18 20  1  0  0  0  0
 18 21  1  0  0  0  0
 22 23  2  0  0  0  0
 22 24  1  0  0  0  0
 24 25  1  0  0  0  0
 24 26  1  0  0  0  0
 26 27  1  0  0  0  0
 26 28  1  0  0  0  0
 26 29  1  0  0  0  0
M  END
$$$$

  -OEChem-04042216023D

 29 28  0     1  0  0  0  0  0999 V2000
   -2.9854   -4.3183    0.3776 H   0  0  0  0  0  0  0  0  0  0  0  0
   -2.8799   -3.2956    0.0038 C   0  0  0  0  0  0  0  0  0  0  0  0
   -3.6366   -2.6683    0.4808 H   0  0  0  0  0  0  0  0  0  0  0  0
   -3.0434   -3.2979   -1.0764 H   0  0  0  0  0  0  0  0  0  0  0  0
   -1.4926   -2.7673    0.3175 C   0  0  0  0  0  0  0  0  0  0  0  0
   -0.6857   -3.4887    0.8721 O   0  0  0  0  0  0  0  0  0  0  0  0
   -1.1557   -1.4797   -0.0548 N   0  0  0  0  0  0  0  0  0  0  0  0
   -1.8554   -0.9618   -0.5755 H   0  0  0  0  0  0  0  0  0  0  0  0
    0.1591   -0.8432    0.1880 C   0  0  1  0  0  0  0  0  0  0  0  0
    0.9548   -1.4539   -0.2539 H   0  0  0  0  0  0  0  0  0  0  0  0
    0.0885    0.5050   -0.6001 C   0  0  0  0  0  0  0  0  0  0  0  0
    0.3746    0.2708   -1.6308 H   0  0  0  0  0  0  0  0  0  0  0  0
   -0.9635    0.8070   -0.6347 H   0  0  0  0  0  0  0  0  0  0  0  0
    0.8420    1.8063   -0.2068 C   0  0  0  0  0  0  0  0  0  0  0  0
    1.4687    2.0897   -1.0587 H   0  0  0  0  0  0  0  0  0  0  0  0
    0.0977    2.5998   -0.0843 H   0  0  0  0  0  0  0  0  0  0  0  0
    1.9169    1.8463    1.2798 S   0  0  0  0  0  0  0  0  0  0  0  0
    2.5591    3.5651    1.2377 C   0  0  0  0  0  0  0  0  0  0  0  0
    3.1153    3.7401    0.3122 H   0  0  0  0  0  0  0  0  0  0  0  0
    3.2294    3.7336    2.0857 H   0  0  0  0  0  0  0  0  0  0  0  0
    1.7339    4.2808    1.2957 H   0  0  0  0  0  0  0  0  0  0  0  0
    0.4645   -0.7847    1.7062 C   0  0  0  0  0  0  0  0  0  0  0  0
    1.5414   -1.1791    2.1362 O   0  0  0  0  0  0  0  0  0  0  0  0
   -0.5105   -0.3779    2.6016 N   0  0  0  0  0  0  0  0  0  0  0  0
   -1.4291   -0.1817    2.2229 H   0  0  0  0  0  0  0  0  0  0  0  0
   -0.3300   -0.4306    4.0464 C   0  0  0  0  0  0  0  0  0  0  0  0
   -1.2132   -0.0318    4.5541 H   0  0  0  0  0  0  0  0  0  0  0  0
    0.5385    0.1664    4.3445 H   0  0  0  0  0  0  0  0  0  0  0  0
   -0.1758   -1.4641    4.3745 H   0  0  0  0  0  0  0  0  0  0  0  0
  1  2  1  0  0  0  0
  2  3  1  0  0  0  0
  2  4  1  0  0  0  0
  2  5  1  0  0  0  0
  5  6  2  0  0  0  0
  5  7  1  0  0  0  0
  7  8  1  0  0  0  0
  7  9  1  0  0  0  0
  9 10  1  0  0  0  0
  9 11  1  0  0  0  0
  9 22  1  0  0  0  0
 11 12  1  0  0  0  0
 11 13  1  0  0  0  0
 11 14  1  0  0  0  0
 14 15  1  0  0  0  0
 14 16  1  0  0  0  0
 14 17  1  0  0  0  0
 17 18  1  0  0  0  0
 18 19  1  0  0  0  0
 18 20  1  0  0  0  0
 18 21  1  0  0  0  0
 22 23  2  0  0  0  0
 22 24  1  0  0  0  0
 24 25  1  0  0  0  0
 24 26  1  0  0  0  0
 26 27  1  0  0  0  0
 26 28  1  0  0  0  0
 26 29  1  0  0  0  0
M  END
$$$$

  -OEChem-04042216023D

 29 28  0     1  0  0  0  0  0999 V2000
   -2.8420   -4.0911   -0.1605 H   0  0  0  0  0  0  0  0  0  0  0  0
   -2.7261   -3.0390   -0.4370 C   0  0  0  0  0  0  0  0  0  0  0  0
   -3.4892   -2.4538    0.0815 H   0  0  0  0  0  0  0  0  0  0  0  0
   -2.8702   -2.9430   -1.5159 H   0  0  0  0  0  0  0  0  0  0  0  0
   -1.3430   -2.5483   -0.0514 C   0  0  0  0  0  0  0  0  0  0  0  0
   -0.5652   -3.3129    0.4859 O   0  0  0  0  0  0  0  0  0  0  0  0
   -0.9802   -1.2450   -0.3376 N   0  0  0  0  0  0  0  0  0  0  0  0
   -1.6442   -0.7080   -0.8856 H   0  0  0  0  0  0  0  0  0  0  0  0
    0.3628   -0.6636   -0.1023 C   0  0  1  0  0  0  0  0  0  0  0  0
    1.1327   -1.2316   -0.6368 H   0  0  0  0  0  0  0  0  0  0  0  0
    0.2621    0.7698   -0.7148 C   0  0  0  0  0  0  0  0  0  0  0  0
    0.5097    0.6558   -1.7753 H   0  0  0  0  0  0  0  0  0  0  0  0
   -0.7833    1.0931   -0.6725 H   0  0  0  0  0  0  0  0  0  0  0  0
    1.0754    1.9855   -0.1989 C   0  0  0  0  0  0  0  0  0  0  0  0
    1.4264    2.5557   -1.0652 H   0  0  0  0  0  0  0  0  0  0  0  0
    0.3860    2.6371    0.3472 H   0  0  0  0  0  0  0  0  0  0  0  0
    2.5179    1.6876    0.8981 S   0  0  0  0  0  0  0  0  0  0  0  0
    2.0525    2.5613    2.4439 C   0  0  0  0  0  0  0  0  0  0  0  0
    1.9252    3.6308    2.2537 H   0  0  0  0  0  0  0  0  0  0  0  0
    2.8361    2.4291    3.1959 H   0  0  0  0  0  0  0  0  0  0  0  0
    1.1170    2.1582    2.8416 H   0  0  0  0  0  0  0  0  0  0  0  0
    0.7100   -0.7413    1.4085 C   0  0  0  0  0  0  0  0  0  0  0  0
    1.7745   -1.2144    1.7856 O   0  0  0  0  0  0  0  0  0  0  0  0
   -0.2357   -0.3808    2.3547 N   0  0  0  0  0  0  0  0  0  0  0  0
   -1.1692   -0.2046    2.0020 H   0  0  0  0  0  0  0  0  0  0  0  0
   -0.0671   -0.6684    3.7736 C   0  0  0  0  0  0  0  0  0  0  0  0
    0.8576   -0.2179    4.1495 H   0  0  0  0  0  0  0  0  0  0  0  0
   -0.9055   -0.2602    4.3457 H   0  0  0  0  0  0  0  0  0  0  0  0
   -0.0238   -1.7500    3.9404 H   0  0  0  0  0  0  0  0  0  0  0  0
  1  2  1  0  0  0  0
  2  3  1  0  0  0  0
  2  4  1  0  0  0  0
  2  5  1  0  0  0  0
  5  6  2  0  0  0  0
  5  7  1  0  0  0  0
  7  8  1  0  0  0  0
  7  9  1  0  0  0  0
  9 10  1  0  0  0  0
  9 11  1  0  0  0  0
  9 22  1  0  0  0  0
 11 12  1  0  0  0  0
 11 13  1  0  0  0  0
 11 14  1  0  0  0  0
 14 15  1  0  0  0  0
 14 16  1  0  0  0  0
 14 17  1  0  0  0  0
 17 18  1  0  0  0  0
 18 19  1  0  0  0  0
 18 20  1  0  0  0  0
 18 21  1  0  0  0  0
 22 23  2  0  0  0  0
 22 24  1  0  0  0  0
 24 25  1  0  0  0  0
 24 26  1  0  0  0  0
 26 27  1  0  0  0  0
 26 28  1  0  0  0  0
 26 29  1  0  0  0  0
M  END
$$$$

  -OEChem-04042216023D

 29 28  0     1  0  0  0  0  0999 V2000
   -3.3235   -3.8382    0.3762 H   0  0  0  0  0  0  0  0  0  0  0  0
   -3.0764   -2.8696   -0.0681 C   0  0  0  0  0  0  0  0  0  0  0  0
   -3.7609   -2.1166    0.3296 H   0  0  0  0  0  0  0  0  0  0  0  0
   -3.2065   -2.9374   -1.1508 H   0  0  0  0  0  0  0  0  0  0  0  0
   -1.6433   -2.4964    0.2615 C   0  0  0  0  0  0  0  0  0  0  0  0
   -0.9662   -3.2542    0.9292 O   0  0  0  0  0  0  0  0  0  0  0  0
   -1.1248   -1.3068   -0.2157 N   0  0  0  0  0  0  0  0  0  0  0  0
   -1.7135   -0.7944   -0.8642 H   0  0  0  0  0  0  0  0  0  0  0  0
    0.2808   -0.8668   -0.0562 C   0  0  1  0  0  0  0  0  0  0  0  0
    0.9776   -1.5839   -0.5045 H   0  0  0  0  0  0  0  0  0  0  0  0
    0.3364    0.4850   -0.8322 C   0  0  0  0  0  0  0  0  0  0  0  0
    0.5608    0.2287   -1.8728 H   0  0  0  0  0  0  0  0  0  0  0  0
   -0.6569    0.9462   -0.8263 H   0  0  0  0  0  0  0  0  0  0  0  0
    1.3152    1.6079   -0.4224 C   0  0  0  0  0  0  0  0  0  0  0  0
    1.5345    2.2317   -1.2947 H   0  0  0  0  0  0  0  0  0  0  0  0
    0.8039    2.2433    0.3079 H   0  0  0  0  0  0  0  0  0  0  0  0
    2.8986    1.0662    0.3358 S   0  0  0  0  0  0  0  0  0  0  0  0
    3.0264    2.1348    1.8223 C   0  0  0  0  0  0  0  0  0  0  0  0
    3.9476    1.9061    2.3664 H   0  0  0  0  0  0  0  0  0  0  0  0
    2.1765    1.9584    2.4882 H   0  0  0  0  0  0  0  0  0  0  0  0
    3.0406    3.1898    1.5343 H   0  0  0  0  0  0  0  0  0  0  0  0
    0.6256   -0.7559    1.4554 C   0  0  0  0  0  0  0  0  0  0  0  0
    1.6268   -1.2835    1.9222 O   0  0  0  0  0  0  0  0  0  0  0  0
   -0.2656   -0.1404    2.3194 N   0  0  0  0  0  0  0  0  0  0  0  0
   -1.1743    0.0825    1.9300 H   0  0  0  0  0  0  0  0  0  0  0  0
   -0.1245   -0.2085    3.7685 C   0  0  0  0  0  0  0  0  0  0  0  0
    0.8472    0.1905    4.0781 H   0  0  0  0  0  0  0  0  0  0  0  0
   -0.9084    0.3804    4.2539 H   0  0  0  0  0  0  0  0  0  0  0  0
   -0.2039   -1.2457    4.1117 H   0  0  0  0  0  0  0  0  0  0  0  0
  1  2  1  0  0  0  0
  2  3  1  0  0  0  0
  2  4  1  0  0  0  0
  2  5  1  0  0  0  0
  5  6  2  0  0  0  0
  5  7  1  0  0  0  0
  7  8  1  0  0  0  0
  7  9  1  0  0  0  0
  9 10  1  0  0  0  0
  9 11  1  0  0  0  0
  9 22  1  0  0  0  0
 11 12  1  0  0  0  0
 11 13  1  0  0  0  0
 11 14  1  0  0  0  0
 14 15  1  0  0  0  0
 14 16  1  0  0  0  0
 14 17  1  0  0  0  0
 17 18  1  0  0  0  0
 18 19  1  0  0  0  0
 18 20  1  0  0  0  0
 18 21  1  0  0  0  0
 22 23  2  0  0  0  0
 22 24  1  0  0  0  0
 24 25  1  0  0  0  0
 24 26  1  0  0  0  0
 26 27  1  0  0  0  0
 26 28  1  0  0  0  0
 26 29  1  0  0  0  0
M  END
$$$$

  -OEChem-04042216023D

 29 28  0     1  0  0  0  0  0999 V2000
   -2.9235   -3.9553    1.1538 H   0  0  0  0  0  0  0  0  0  0  0  0
   -2.7702   -3.0356    0.5817 C   0  0  0  0  0  0  0  0  0  0  0  0
   -3.5582   -2.3251    0.8421 H   0  0  0  0  0  0  0  0  0  0  0  0
   -2.8351   -3.2704   -0.4833 H   0  0  0  0  0  0  0  0  0  0  0  0
   -1.4106   -2.4438    0.9020 C   0  0  0  0  0  0  0  0  0  0  0  0
   -0.6817   -3.0074    1.6957 O   0  0  0  0  0  0  0  0  0  0  0  0
   -1.0099   -1.2785    0.2759 N   0  0  0  0  0  0  0  0  0  0  0  0
   -1.6253   -0.9223   -0.4480 H   0  0  0  0  0  0  0  0  0  0  0  0
    0.3101   -0.6341    0.4559 C   0  0  1  0  0  0  0  0  0  0  0  0
    1.1138   -1.3244    0.1767 H   0  0  0  0  0  0  0  0  0  0  0  0
    0.2989    0.5737   -0.5240 C   0  0  0  0  0  0  0  0  0  0  0  0
    0.6405    0.2046   -1.4961 H   0  0  0  0  0  0  0  0  0  0  0  0
   -0.7316    0.9187   -0.6576 H   0  0  0  0  0  0  0  0  0  0  0  0
    1.1203    1.8306   -0.1767 C   0  0  0  0  0  0  0  0  0  0  0  0
    1.1711    2.4769   -1.0585 H   0  0  0  0  0  0  0  0  0  0  0  0
    0.5959    2.3883    0.6062 H   0  0  0  0  0  0  0  0  0  0  0  0
    2.8291    1.5081    0.4212 S   0  0  0  0  0  0  0  0  0  0  0  0
    3.5829    0.5178   -0.9286 C   0  0  0  0  0  0  0  0  0  0  0  0
    3.5162    1.0561   -1.8783 H   0  0  0  0  0  0  0  0  0  0  0  0
    4.6373    0.3288   -0.7060 H   0  0  0  0  0  0  0  0  0  0  0  0
    3.0731   -0.4442   -1.0287 H   0  0  0  0  0  0  0  0  0  0  0  0
    0.5425   -0.2419    1.9399 C   0  0  0  0  0  0  0  0  0  0  0  0
    1.5895   -0.5197    2.5085 O   0  0  0  0  0  0  0  0  0  0  0  0
   -0.4666    0.3787    2.6571 N   0  0  0  0  0  0  0  0  0  0  0  0
   -1.3758    0.4179    2.2112 H   0  0  0  0  0  0  0  0  0  0  0  0
   -0.3753    0.6218    4.0913 C   0  0  0  0  0  0  0  0  0  0  0  0
    0.4939    1.2483    4.3185 H   0  0  0  0  0  0  0  0  0  0  0  0
   -1.2727    1.1367    4.4469 H   0  0  0  0  0  0  0  0  0  0  0  0
   -0.2785   -0.3244    4.6342 H   0  0  0  0  0  0  0  0  0  0  0  0
  1  2  1  0  0  0  0
  2  3  1  0  0  0  0
  2  4  1  0  0  0  0
  2  5  1  0  0  0  0
  5  6  2  0  0  0  0
  5  7  1  0  0  0  0
  7  8  1  0  0  0  0
  7  9  1  0  0  0  0
  9 10  1  0  0  0  0
  9 11  1  0  0  0  0
  9 22  1  0  0  0  0
 11 12  1  0  0  0  0
 11 13  1  0  0  0  0
 11 14  1  0  0  0  0
 14 15  1  0  0  0  0
 14 16  1  0  0  0  0
 14 17  1  0  0  0  0
 17 18  1  0  0  0  0
 18 19  1  0  0  0  0
 18 20  1  0  0  0  0
 18 21  1  0  0  0  0
 22 23  2  0  0  0  0
 22 24  1  0  0  0  0
 24 25  1  0  0  0  0
 24 26  1  0  0  0  0
 26 27  1  0  0  0  0
 26 28  1  0  0  0  0
 26 29  1  0  0  0  0
M  END
$$$$

  -OEChem-04042216023D

 29 28  0     1  0  0  0  0  0999 V2000
   -2.9640   -3.9119    0.8894 H   0  0  0  0  0  0  0  0  0  0  0  0
   -2.7076   -3.0322    0.2919 C   0  0  0  0  0  0  0  0  0  0  0  0
   -3.5185   -2.3045    0.3727 H   0  0  0  0  0  0  0  0  0  0  0  0
   -2.6008   -3.3368   -0.7519 H   0  0  0  0  0  0  0  0  0  0  0  0
   -1.4107   -2.4236    0.7919 C   0  0  0  0  0  0  0  0  0  0  0  0
   -0.8296   -2.9328    1.7313 O   0  0  0  0  0  0  0  0  0  0  0  0
   -0.8987   -1.3013    0.1686 N   0  0  0  0  0  0  0  0  0  0  0  0
   -1.3799   -0.9957   -0.6711 H   0  0  0  0  0  0  0  0  0  0  0  0
    0.4016   -0.6768    0.4960 C   0  0  1  0  0  0  0  0  0  0  0  0
    1.2102   -1.4053    0.3679 H   0  0  0  0  0  0  0  0  0  0  0  0
    0.5894    0.4697   -0.5344 C   0  0  0  0  0  0  0  0  0  0  0  0
    1.0357    0.0509   -1.4410 H   0  0  0  0  0  0  0  0  0  0  0  0
   -0.3959    0.8559   -0.8145 H   0  0  0  0  0  0  0  0  0  0  0  0
    1.4069    1.6931   -0.0848 C   0  0  0  0  0  0  0  0  0  0  0  0
    1.4398    2.4163   -0.9057 H   0  0  0  0  0  0  0  0  0  0  0  0
    0.9145    2.1854    0.7600 H   0  0  0  0  0  0  0  0  0  0  0  0
    3.1343    1.2744    0.3939 S   0  0  0  0  0  0  0  0  0  0  0  0
    3.8111    0.3429   -1.0369 C   0  0  0  0  0  0  0  0  0  0  0  0
    3.6804    0.9152   -1.9598 H   0  0  0  0  0  0  0  0  0  0  0  0
    4.8791    0.1578   -0.8874 H   0  0  0  0  0  0  0  0  0  0  0  0
    3.3053   -0.6213   -1.1399 H   0  0  0  0  0  0  0  0  0  0  0  0
    0.4592   -0.2069    1.9738 C   0  0  0  0  0  0  0  0  0  0  0  0
    1.4569   -0.3948    2.6556 O   0  0  0  0  0  0  0  0  0  0  0  0
   -0.6120    0.4760    2.5246 N   0  0  0  0  0  0  0  0  0  0  0  0
   -1.4722    0.4624    1.9885 H   0  0  0  0  0  0  0  0  0  0  0  0
   -0.6727    0.8273    3.9379 C   0  0  0  0  0  0  0  0  0  0  0  0
    0.1765    1.4622    4.2120 H   0  0  0  0  0  0  0  0  0  0  0  0
   -1.5951    1.3748    4.1533 H   0  0  0  0  0  0  0  0  0  0  0  0
   -0.6509   -0.0760    4.5567 H   0  0  0  0  0  0  0  0  0  0  0  0
  1  2  1  0  0  0  0
  2  3  1  0  0  0  0
  2  4  1  0  0  0  0
  2  5  1  0  0  0  0
  5  6  2  0  0  0  0
  5  7  1  0  0  0  0
  7  8  1  0  0  0  0
  7  9  1  0  0  0  0
  9 10  1  0  0  0  0
  9 11  1  0  0  0  0
  9 22  1  0  0  0  0
 11 12  1  0  0  0  0
 11 13  1  0  0  0  0
 11 14  1  0  0  0  0
 14 15  1  0  0  0  0
 14 16  1  0  0  0  0
 14 17  1  0  0  0  0
 17 18  1  0  0  0  0
 18 19  1  0  0  0  0
 18 20  1  0  0  0  0
 18 21  1  0  0  0  0
 22 23  2  0  0  0  0
 22 24  1  0  0  0  0
 24 25  1  0  0  0  0
 24 26  1  0  0  0  0
 26 27  1  0  0  0  0
 26 28  1  0  0  0  0
 26 29  1  0  0  0  0
M  END
$$$$

  -OEChem-04042216023D

 29 28  0     1  0  0  0  0  0999 V2000
   -3.4562   -3.7397    0.7179 H   0  0  0  0  0  0  0  0  0  0  0  0
   -3.2204   -2.8176    0.1786 C   0  0  0  0  0  0  0  0  0  0  0  0
   -3.8924   -2.0281    0.5231 H   0  0  0  0  0  0  0  0  0  0  0  0
   -3.3809   -2.9851   -0.8891 H   0  0  0  0  0  0  0  0  0  0  0  0
   -1.7779   -2.4209    0.4308 C   0  0  0  0  0  0  0  0  0  0  0  0
   -1.0719   -3.1259    1.1271 O   0  0  0  0  0  0  0  0  0  0  0  0
   -1.2829   -1.2574   -0.1267 N   0  0  0  0  0  0  0  0  0  0  0  0
   -1.8928   -0.7886   -0.7890 H   0  0  0  0  0  0  0  0  0  0  0  0
    0.1395   -0.8541   -0.0954 C   0  0  1  0  0  0  0  0  0  0  0  0
    0.7549   -1.6319   -0.5620 H   0  0  0  0  0  0  0  0  0  0  0  0
    0.2527    0.4393   -0.9485 C   0  0  0  0  0  0  0  0  0  0  0  0
    0.3820    0.1625   -1.9997 H   0  0  0  0  0  0  0  0  0  0  0  0
   -0.6903    0.9898   -0.8720 H   0  0  0  0  0  0  0  0  0  0  0  0
    1.3582    1.4267   -0.5442 C   0  0  0  0  0  0  0  0  0  0  0  0
    1.1925    2.3863   -1.0437 H   0  0  0  0  0  0  0  0  0  0  0  0
    1.3572    1.6218    0.5319 H   0  0  0  0  0  0  0  0  0  0  0  0
    2.9803    0.7585   -1.0869 S   0  0  0  0  0  0  0  0  0  0  0  0
    4.1107    1.4921    0.1585 C   0  0  0  0  0  0  0  0  0  0  0  0
    3.8390    1.1475    1.1613 H   0  0  0  0  0  0  0  0  0  0  0  0
    5.1416    1.1894   -0.0466 H   0  0  0  0  0  0  0  0  0  0  0  0
    4.0522    2.5838    0.1309 H   0  0  0  0  0  0  0  0  0  0  0  0
    0.6647   -0.6970    1.3565 C   0  0  0  0  0  0  0  0  0  0  0  0
    1.8149   -0.9992    1.6460 O   0  0  0  0  0  0  0  0  0  0  0  0
   -0.1031   -0.0271    2.2939 N   0  0  0  0  0  0  0  0  0  0  0  0
   -1.0852    0.0748    2.0618 H   0  0  0  0  0  0  0  0  0  0  0  0
    0.2983    0.0956    3.6897 C   0  0  0  0  0  0  0  0  0  0  0  0
    1.2502    0.6309    3.7699 H   0  0  0  0  0  0  0  0  0  0  0  0
   -0.4572    0.6509    4.2533 H   0  0  0  0  0  0  0  0  0  0  0  0
    0.4120   -0.8951    4.1425 H   0  0  0  0  0  0  0  0  0  0  0  0
  1  2  1  0  0  0  0
  2  3  1  0  0  0  0
  2  4  1  0  0  0  0
  2  5  1  0  0  0  0
  5  6  2  0  0  0  0
  5  7  1  0  0  0  0
  7  8  1  0  0  0  0
  7  9  1  0  0  0  0
  9 10  1  0  0  0  0
  9 11  1  0  0  0  0
  9 22  1  0  0  0  0
 11 12  1  0  0  0  0
 11 13  1  0  0  0  0
 11 14  1  0  0  0  0
 14 15  1  0  0  0  0
 14 16  1  0  0  0  0
 14 17  1  0  0  0  0
 17 18  1  0  0  0  0
 18 19  1  0  0  0  0
 18 20  1  0  0  0  0
 18 21  1  0  0  0  0
 22 23  2  0  0  0  0
 22 24  1  0  0  0  0
 24 25  1  0  0  0  0
 24 26  1  0  0  0  0
 26 27  1  0  0  0  0
 26 28  1  0  0  0  0
 26 29  1  0  0  0  0
M  END
$$$$

  -OEChem-04042216023D

 29 28  0     1  0  0  0  0  0999 V2000
   -2.8464   -3.9606    0.7110 H   0  0  0  0  0  0  0  0  0  0  0  0
   -2.7551   -2.9977    0.2000 C   0  0  0  0  0  0  0  0  0  0  0  0
   -3.5250   -2.3232    0.5820 H   0  0  0  0  0  0  0  0  0  0  0  0
   -2.9124   -3.1528   -0.8701 H   0  0  0  0  0  0  0  0  0  0  0  0
   -1.3786   -2.4077    0.4430 C   0  0  0  0  0  0  0  0  0  0  0  0
   -0.5795   -3.0066    1.1382 O   0  0  0  0  0  0  0  0  0  0  0  0
   -1.0429   -1.1965   -0.1321 N   0  0  0  0  0  0  0  0  0  0  0  0
   -1.7127   -0.8165   -0.7939 H   0  0  0  0  0  0  0  0  0  0  0  0
    0.3065   -0.5922   -0.0873 C   0  0  1  0  0  0  0  0  0  0  0  0
    1.0379   -1.2742   -0.5347 H   0  0  0  0  0  0  0  0  0  0  0  0
    0.2267    0.6987   -0.9478 C   0  0  0  0  0  0  0  0  0  0  0  0
    0.3785    0.4336   -1.9992 H   0  0  0  0  0  0  0  0  0  0  0  0
   -0.7913    1.0924   -0.8625 H   0  0  0  0  0  0  0  0  0  0  0  0
    1.1507    1.8784   -0.5849 C   0  0  0  0  0  0  0  0  0  0  0  0
    0.6654    2.8050   -0.9076 H   0  0  0  0  0  0  0  0  0  0  0  0
    1.3221    1.9710    0.4910 H   0  0  0  0  0  0  0  0  0  0  0  0
    2.7532    1.7545   -1.4840 S   0  0  0  0  0  0  0  0  0  0  0  0
    3.7721    0.5770   -0.5122 C   0  0  0  0  0  0  0  0  0  0  0  0
    3.3324   -0.4235   -0.5380 H   0  0  0  0  0  0  0  0  0  0  0  0
    4.7810    0.5216   -0.9303 H   0  0  0  0  0  0  0  0  0  0  0  0
    3.8448    0.9057    0.5288 H   0  0  0  0  0  0  0  0  0  0  0  0
    0.7574   -0.3394    1.3754 C   0  0  0  0  0  0  0  0  0  0  0  0
    1.9206   -0.5096    1.7129 O   0  0  0  0  0  0  0  0  0  0  0  0
   -0.1238    0.2274    2.2798 N   0  0  0  0  0  0  0  0  0  0  0  0
   -1.1015    0.2205    2.0100 H   0  0  0  0  0  0  0  0  0  0  0  0
    0.2130    0.4348    3.6829 C   0  0  0  0  0  0  0  0  0  0  0  0
    1.0851    1.0907    3.7754 H   0  0  0  0  0  0  0  0  0  0  0  0
   -0.6253    0.9019    4.2086 H   0  0  0  0  0  0  0  0  0  0  0  0
    0.4385   -0.5212    4.1673 H   0  0  0  0  0  0  0  0  0  0  0  0
  1  2  1  0  0  0  0
  2  3  1  0  0  0  0
  2  4  1  0  0  0  0
  2  5  1  0  0  0  0
  5  6  2  0  0  0  0
  5  7  1  0  0  0  0
  7  8  1  0  0  0  0
  7  9  1  0  0  0  0
  9 10  1  0  0  0  0
  9 11  1  0  0  0  0
  9 22  1  0  0  0  0
 11 12  1  0  0  0  0
 11 13  1  0  0  0  0
 11 14  1  0  0  0  0
 14 15  1  0  0  0  0
 14 16  1  0  0  0  0
 14 17  1  0  0  0  0
 17 18  1  0  0  0  0
 18 19  1  0  0  0  0
 18 20  1  0  0  0  0
 18 21  1  0  0  0  0
 22 23  2  0  0  0  0
 22 24  1  0  0  0  0
 24 25  1  0  0  0  0
 24 26  1  0  0  0  0
 26 27  1  0  0  0  0
 26 28  1  0  0  0  0
 26 29  1  0  0  0  0
M  END
$$$$

  -OEChem-04042216023D

 29 28  0     1  0  0  0  0  0999 V2000
   -2.7722   -4.0023    0.6532 H   0  0  0  0  0  0  0  0  0  0  0  0
   -2.6982   -3.0368    0.1445 C   0  0  0  0  0  0  0  0  0  0  0  0
   -3.4919   -2.3835    0.5146 H   0  0  0  0  0  0  0  0  0  0  0  0
   -2.8338   -3.1944   -0.9283 H   0  0  0  0  0  0  0  0  0  0  0  0
   -1.3421   -2.4102    0.4098 C   0  0  0  0  0  0  0  0  0  0  0  0
   -0.5292   -2.9947    1.1018 O   0  0  0  0  0  0  0  0  0  0  0  0
   -1.0396   -1.1791   -0.1395 N   0  0  0  0  0  0  0  0  0  0  0  0
   -1.7179   -0.8030   -0.7952 H   0  0  0  0  0  0  0  0  0  0  0  0
    0.2947   -0.5458   -0.0818 C   0  0  1  0  0  0  0  0  0  0  0  0
    1.0284   -1.2258   -0.5288 H   0  0  0  0  0  0  0  0  0  0  0  0
    0.2245    0.7312   -0.9630 C   0  0  0  0  0  0  0  0  0  0  0  0
    0.4027    0.4510   -2.0061 H   0  0  0  0  0  0  0  0  0  0  0  0
   -0.8002    1.1128   -0.9115 H   0  0  0  0  0  0  0  0  0  0  0  0
    1.1288    1.9252   -0.5854 C   0  0  0  0  0  0  0  0  0  0  0  0
    0.5454    2.8459   -0.6854 H   0  0  0  0  0  0  0  0  0  0  0  0
    1.4919    1.8984    0.4442 H   0  0  0  0  0  0  0  0  0  0  0  0
    2.5459    2.0353   -1.7491 S   0  0  0  0  0  0  0  0  0  0  0  0
    3.6496    0.7142   -1.1064 C   0  0  0  0  0  0  0  0  0  0  0  0
    3.1643   -0.2625   -1.1832 H   0  0  0  0  0  0  0  0  0  0  0  0
    4.5795    0.6879   -1.6817 H   0  0  0  0  0  0  0  0  0  0  0  0
    3.8930    0.9007   -0.0558 H   0  0  0  0  0  0  0  0  0  0  0  0
    0.7779   -0.2990    1.3686 C   0  0  0  0  0  0  0  0  0  0  0  0
    1.9689   -0.3895    1.6390 O   0  0  0  0  0  0  0  0  0  0  0  0
   -0.0866    0.2375    2.3061 N   0  0  0  0  0  0  0  0  0  0  0  0
   -1.0746    0.1851    2.0816 H   0  0  0  0  0  0  0  0  0  0  0  0
    0.3058    0.4836    3.6882 C   0  0  0  0  0  0  0  0  0  0  0  0
    1.1537    1.1755    3.7298 H   0  0  0  0  0  0  0  0  0  0  0  0
   -0.5257    0.9263    4.2447 H   0  0  0  0  0  0  0  0  0  0  0  0
    0.5922   -0.4538    4.1768 H   0  0  0  0  0  0  0  0  0  0  0  0
  1  2  1  0  0  0  0
  2  3  1  0  0  0  0
  2  4  1  0  0  0  0
  2  5  1  0  0  0  0
  5  6  2  0  0  0  0
  5  7  1  0  0  0  0
  7  8  1  0  0  0  0
  7  9  1  0  0  0  0
  9 10  1  0  0  0  0
  9 11  1  0  0  0  0
  9 22  1  0  0  0  0
 11 12  1  0  0  0  0
 11 13  1  0  0  0  0
 11 14  1  0  0  0  0
 14 15  1  0  0  0  0
 14 16  1  0  0  0  0
 14 17  1  0  0  0  0
 17 18  1  0  0  0  0
 18 19  1  0  0  0  0
 18 20  1  0  0  0  0
 18 21  1  0  0  0  0
 22 23  2  0  0  0  0
 22 24  1  0  0  0  0
 24 25  1  0  0  0  0
 24 26  1  0  0  0  0
 26 27  1  0  0  0  0
 26 28  1  0  0  0  0
 26 29  1  0  0  0  0
M  END
$$$$

  -OEChem-04042216023D

 29 28  0     1  0  0  0  0  0999 V2000
   -2.7102   -4.0144    0.6314 H   0  0  0  0  0  0  0  0  0  0  0  0
   -2.6519   -3.0364    0.1450 C   0  0  0  0  0  0  0  0  0  0  0  0
   -3.4466   -2.3994    0.5404 H   0  0  0  0  0  0  0  0  0  0  0  0
   -2.7997   -3.1702   -0.9293 H   0  0  0  0  0  0  0  0  0  0  0  0
   -1.2990   -2.4029    0.4089 C   0  0  0  0  0  0  0  0  0  0  0  0
   -0.4827   -2.9840    1.0994 O   0  0  0  0  0  0  0  0  0  0  0  0
   -1.0031   -1.1695   -0.1392 N   0  0  0  0  0  0  0  0  0  0  0  0
   -1.6847   -0.7932   -0.7913 H   0  0  0  0  0  0  0  0  0  0  0  0
    0.3228   -0.5205   -0.0687 C   0  0  1  0  0  0  0  0  0  0  0  0
    1.0732   -1.1879   -0.5077 H   0  0  0  0  0  0  0  0  0  0  0  0
    0.2400    0.7561   -0.9485 C   0  0  0  0  0  0  0  0  0  0  0  0
    0.4439    0.4681   -1.9849 H   0  0  0  0  0  0  0  0  0  0  0  0
   -0.7907    1.1248   -0.9259 H   0  0  0  0  0  0  0  0  0  0  0  0
    1.1275    1.9602   -0.5588 C   0  0  0  0  0  0  0  0  0  0  0  0
    0.4890    2.8270   -0.3607 H   0  0  0  0  0  0  0  0  0  0  0  0
    1.7232    1.7906    0.3401 H   0  0  0  0  0  0  0  0  0  0  0  0
    2.2701    2.3658   -1.9387 S   0  0  0  0  0  0  0  0  0  0  0  0
    3.4864    0.9961   -1.7906 C   0  0  0  0  0  0  0  0  0  0  0  0
    2.9986    0.0312   -1.9545 H   0  0  0  0  0  0  0  0  0  0  0  0
    4.2810    1.1167   -2.5326 H   0  0  0  0  0  0  0  0  0  0  0  0
    3.9359    0.9952   -0.7927 H   0  0  0  0  0  0  0  0  0  0  0  0
    0.7809   -0.2681    1.3891 C   0  0  0  0  0  0  0  0  0  0  0  0
    1.9668   -0.3599    1.6805 O   0  0  0  0  0  0  0  0  0  0  0  0
   -0.1031    0.2580    2.3141 N   0  0  0  0  0  0  0  0  0  0  0  0
   -1.0862    0.2073    2.0692 H   0  0  0  0  0  0  0  0  0  0  0  0
    0.2608    0.4867    3.7069 C   0  0  0  0  0  0  0  0  0  0  0  0
    1.0998    1.1874    3.7742 H   0  0  0  0  0  0  0  0  0  0  0  0
   -0.5861    0.9108    4.2548 H   0  0  0  0  0  0  0  0  0  0  0  0
    0.5489   -0.4550    4.1862 H   0  0  0  0  0  0  0  0  0  0  0  0
  1  2  1  0  0  0  0
  2  3  1  0  0  0  0
  2  4  1  0  0  0  0
  2  5  1  0  0  0  0
  5  6  2  0  0  0  0
  5  7  1  0  0  0  0
  7  8  1  0  0  0  0
  7  9  1  0  0  0  0
  9 10  1  0  0  0  0
  9 11  1  0  0  0  0
  9 22  1  0  0  0  0
 11 12  1  0  0  0  0
 11 13  1  0  0  0  0
 11 14  1  0  0  0  0
 14 15  1  0  0  0  0
 14 16  1  0  0  0  0
 14 17  1  0  0  0  0
 17 18  1  0  0  0  0
 18 19  1  0  0  0  0
 18 20  1  0  0  0  0
 18 21  1  0  0  0  0
 22 23  2  0  0  0  0
 22 24  1  0  0  0  0
 24 25  1  0  0  0  0
 24 26  1  0  0  0  0
 26 27  1  0  0  0  0
 26 28  1  0  0  0  0
 26 29  1  0  0  0  0
M  END
$$$$

  -OEChem-04042216023D

 29 28  0     1  0  0  0  0  0999 V2000
   -2.7125   -4.0126    0.6599 H   0  0  0  0  0  0  0  0  0  0  0  0
   -2.6563   -3.0370    0.1685 C   0  0  0  0  0  0  0  0  0  0  0  0
   -3.4449   -2.3956    0.5691 H   0  0  0  0  0  0  0  0  0  0  0  0
   -2.8157   -3.1753   -0.9036 H   0  0  0  0  0  0  0  0  0  0  0  0
   -1.2986   -2.4070    0.4150 C   0  0  0  0  0  0  0  0  0  0  0  0
   -0.4760   -2.9894    1.0968 O   0  0  0  0  0  0  0  0  0  0  0  0
   -1.0043   -1.1770   -0.1412 N   0  0  0  0  0  0  0  0  0  0  0  0
   -1.6931   -0.7977   -0.7837 H   0  0  0  0  0  0  0  0  0  0  0  0
    0.3212   -0.5271   -0.0780 C   0  0  1  0  0  0  0  0  0  0  0  0
    1.0734   -1.1891   -0.5223 H   0  0  0  0  0  0  0  0  0  0  0  0
    0.2244    0.7575   -0.9416 C   0  0  0  0  0  0  0  0  0  0  0  0
    0.4436    0.4728   -1.9756 H   0  0  0  0  0  0  0  0  0  0  0  0
   -0.8054    1.1285   -0.9293 H   0  0  0  0  0  0  0  0  0  0  0  0
    1.1208    1.9455   -0.5330 C   0  0  0  0  0  0  0  0  0  0  0  0
    0.5201    2.7048   -0.0224 H   0  0  0  0  0  0  0  0  0  0  0  0
    1.9211    1.6454    0.1478 H   0  0  0  0  0  0  0  0  0  0  0  0
    1.9225    2.6669   -2.0210 S   0  0  0  0  0  0  0  0  0  0  0  0
    3.2621    1.4492   -2.3378 C   0  0  0  0  0  0  0  0  0  0  0  0
    2.8418    0.4592   -2.5361 H   0  0  0  0  0  0  0  0  0  0  0  0
    3.8532    1.7582   -3.2050 H   0  0  0  0  0  0  0  0  0  0  0  0
    3.9245    1.3805   -1.4695 H   0  0  0  0  0  0  0  0  0  0  0  0
    0.7767   -0.2682    1.3809 C   0  0  0  0  0  0  0  0  0  0  0  0
    1.9597   -0.3684    1.6803 O   0  0  0  0  0  0  0  0  0  0  0  0
   -0.1093    0.2614    2.3023 N   0  0  0  0  0  0  0  0  0  0  0  0
   -1.0915    0.2169    2.0525 H   0  0  0  0  0  0  0  0  0  0  0  0
    0.2490    0.4921    3.6963 C   0  0  0  0  0  0  0  0  0  0  0  0
    1.0891    1.1911    3.7664 H   0  0  0  0  0  0  0  0  0  0  0  0
   -0.5994    0.9190    4.2396 H   0  0  0  0  0  0  0  0  0  0  0  0
    0.5330   -0.4492    4.1788 H   0  0  0  0  0  0  0  0  0  0  0  0
  1  2  1  0  0  0  0
  2  3  1  0  0  0  0
  2  4  1  0  0  0  0
  2  5  1  0  0  0  0
  5  6  2  0  0  0  0
  5  7  1  0  0  0  0
  7  8  1  0  0  0  0
  7  9  1  0  0  0  0
  9 10  1  0  0  0  0
  9 11  1  0  0  0  0
  9 22  1  0  0  0  0
 11 12  1  0  0  0  0
 11 13  1  0  0  0  0
 11 14  1  0  0  0  0
 14 15  1  0  0  0  0
 14 16  1  0  0  0  0
 14 17  1  0  0  0  0
 17 18  1  0  0  0  0
 18 19  1  0  0  0  0
 18 20  1  0  0  0  0
 18 21  1  0  0  0  0
 22 23  2  0  0  0  0
 22 24  1  0  0  0  0
 24 25  1  0  0  0  0
 24 26  1  0  0  0  0
 26 27  1  0  0  0  0
 26 28  1  0  0  0  0
 26 29  1  0  0  0  0
M  END
$$$$

  -OEChem-04042216023D

 29 28  0     1  0  0  0  0  0999 V2000
   -2.7127   -4.0269    0.6763 H   0  0  0  0  0  0  0  0  0  0  0  0
   -2.6625   -3.0526    0.1817 C   0  0  0  0  0  0  0  0  0  0  0  0
   -3.4525   -2.4136    0.5832 H   0  0  0  0  0  0  0  0  0  0  0  0
   -2.8254   -3.1943   -0.8895 H   0  0  0  0  0  0  0  0  0  0  0  0
   -1.3068   -2.4158    0.4214 C   0  0  0  0  0  0  0  0  0  0  0  0
   -0.4779   -2.9925    1.1007 O   0  0  0  0  0  0  0  0  0  0  0  0
   -1.0208   -1.1860   -0.1395 N   0  0  0  0  0  0  0  0  0  0  0  0
   -1.7165   -0.8084   -0.7757 H   0  0  0  0  0  0  0  0  0  0  0  0
    0.3027   -0.5320   -0.0874 C   0  0  1  0  0  0  0  0  0  0  0  0
    1.0529   -1.1914   -0.5390 H   0  0  0  0  0  0  0  0  0  0  0  0
    0.1979    0.7556   -0.9430 C   0  0  0  0  0  0  0  0  0  0  0  0
    0.4247    0.4794   -1.9773 H   0  0  0  0  0  0  0  0  0  0  0  0
   -0.8302    1.1313   -0.9299 H   0  0  0  0  0  0  0  0  0  0  0  0
    1.1058    1.9221   -0.5137 C   0  0  0  0  0  0  0  0  0  0  0  0
    0.5979    2.5366    0.2369 H   0  0  0  0  0  0  0  0  0  0  0  0
    2.0380    1.5552   -0.0733 H   0  0  0  0  0  0  0  0  0  0  0  0
    1.5539    2.9371   -1.9789 S   0  0  0  0  0  0  0  0  0  0  0  0
    2.9136    1.9490   -2.7219 C   0  0  0  0  0  0  0  0  0  0  0  0
    2.5550    0.9566   -3.0089 H   0  0  0  0  0  0  0  0  0  0  0  0
    3.2990    2.4523   -3.6135 H   0  0  0  0  0  0  0  0  0  0  0  0
    3.7323    1.8325   -2.0053 H   0  0  0  0  0  0  0  0  0  0  0  0
    0.7739   -0.2661    1.3654 C   0  0  0  0  0  0  0  0  0  0  0  0
    1.9623   -0.3477    1.6482 O   0  0  0  0  0  0  0  0  0  0  0  0
   -0.1044    0.2642    2.2937 N   0  0  0  0  0  0  0  0  0  0  0  0
   -1.0894    0.2111    2.0569 H   0  0  0  0  0  0  0  0  0  0  0  0
    0.2704    0.5118    3.6802 C   0  0  0  0  0  0  0  0  0  0  0  0
    1.1048    1.2191    3.7315 H   0  0  0  0  0  0  0  0  0  0  0  0
   -0.5741    0.9366    4.2309 H   0  0  0  0  0  0  0  0  0  0  0  0
    0.5697   -0.4222    4.1674 H   0  0  0  0  0  0  0  0  0  0  0  0
  1  2  1  0  0  0  0
  2  3  1  0  0  0  0
  2  4  1  0  0  0  0
  2  5  1  0  0  0  0
  5  6  2  0  0  0  0
  5  7  1  0  0  0  0
  7  8  1  0  0  0  0
  7  9  1  0  0  0  0
  9 10  1  0  0  0  0
  9 11  1  0  0  0  0
  9 22  1  0  0  0  0
 11 12  1  0  0  0  0
 11 13  1  0  0  0  0
 11 14  1  0  0  0  0
 14 15  1  0  0  0  0
 14 16  1  0  0  0  0
 14 17  1  0  0  0  0
 17 18  1  0  0  0  0
 18 19  1  0  0  0  0
 18 20  1  0  0  0  0
 18 21  1  0  0  0  0
 22 23  2  0  0  0  0
 22 24  1  0  0  0  0
 24 25  1  0  0  0  0
 24 26  1  0  0  0  0
 26 27  1  0  0  0  0
 26 28  1  0  0  0  0
 26 29  1  0  0  0  0
M  END
$$$$

  -OEChem-04042216023D

 29 28  0     1  0  0  0  0  0999 V2000
   -2.7110   -4.0416    0.6804 H   0  0  0  0  0  0  0  0  0  0  0  0
   -2.6636   -3.0698    0.1803 C   0  0  0  0  0  0  0  0  0  0  0  0
   -3.4551   -2.4307    0.5790 H   0  0  0  0  0  0  0  0  0  0  0  0
   -2.8264   -3.2178   -0.8901 H   0  0  0  0  0  0  0  0  0  0  0  0
   -1.3092   -2.4278    0.4155 C   0  0  0  0  0  0  0  0  0  0  0  0
   -0.4747   -3.0020    1.0902 O   0  0  0  0  0  0  0  0  0  0  0  0
   -1.0317   -1.1935   -0.1391 N   0  0  0  0  0  0  0  0  0  0  0  0
   -1.7331   -0.8127   -0.7672 H   0  0  0  0  0  0  0  0  0  0  0  0
    0.2880   -0.5326   -0.0867 C   0  0  1  0  0  0  0  0  0  0  0  0
    1.0373   -1.1903   -0.5416 H   0  0  0  0  0  0  0  0  0  0  0  0
    0.1840    0.7548   -0.9407 C   0  0  0  0  0  0  0  0  0  0  0  0
    0.4154    0.4884   -1.9764 H   0  0  0  0  0  0  0  0  0  0  0  0
   -0.8437    1.1312   -0.9234 H   0  0  0  0  0  0  0  0  0  0  0  0
    1.0924    1.9114   -0.4958 C   0  0  0  0  0  0  0  0  0  0  0  0
    0.6985    2.3714    0.4166 H   0  0  0  0  0  0  0  0  0  0  0  0
    2.1031    1.5475   -0.2818 H   0  0  0  0  0  0  0  0  0  0  0  0
    1.1896    3.1695   -1.8313 S   0  0  0  0  0  0  0  0  0  0  0  0
    2.4513    2.4476   -2.9548 C   0  0  0  0  0  0  0  0  0  0  0  0
    2.1145    1.4818   -3.3418 H   0  0  0  0  0  0  0  0  0  0  0  0
    2.6272    3.1197   -3.7999 H   0  0  0  0  0  0  0  0  0  0  0  0
    3.3954    2.3029   -2.4209 H   0  0  0  0  0  0  0  0  0  0  0  0
    0.7725   -0.2671    1.3610 C   0  0  0  0  0  0  0  0  0  0  0  0
    1.9674   -0.3160    1.6228 O   0  0  0  0  0  0  0  0  0  0  0  0
   -0.1001    0.2561    2.2982 N   0  0  0  0  0  0  0  0  0  0  0  0
   -1.0876    0.1858    2.0766 H   0  0  0  0  0  0  0  0  0  0  0  0
    0.2929    0.5317    3.6742 C   0  0  0  0  0  0  0  0  0  0  0  0
    1.1142    1.2557    3.7013 H   0  0  0  0  0  0  0  0  0  0  0  0
   -0.5508    0.9483    4.2326 H   0  0  0  0  0  0  0  0  0  0  0  0
    0.6184   -0.3890    4.1700 H   0  0  0  0  0  0  0  0  0  0  0  0
  1  2  1  0  0  0  0
  2  3  1  0  0  0  0
  2  4  1  0  0  0  0
  2  5  1  0  0  0  0
  5  6  2  0  0  0  0
  5  7  1  0  0  0  0
  7  8  1  0  0  0  0
  7  9  1  0  0  0  0
  9 10  1  0  0  0  0
  9 11  1  0  0  0  0
  9 22  1  0  0  0  0
 11 12  1  0  0  0  0
 11 13  1  0  0  0  0
 11 14  1  0  0  0  0
 14 15  1  0  0  0  0
 14 16  1  0  0  0  0
 14 17  1  0  0  0  0
 17 18  1  0  0  0  0
 18 19  1  0  0  0  0
 18 20  1  0  0  0  0
 18 21  1  0  0  0  0
 22 23  2  0  0  0  0
 22 24  1  0  0  0  0
 24 25  1  0  0  0  0
 24 26  1  0  0  0  0
 26 27  1  0  0  0  0
 26 28  1  0  0  0  0
 26 29  1  0  0  0  0
M  END
$$$$

  -OEChem-04042216023D

 29 28  0     1  0  0  0  0  0999 V2000
   -2.7019   -4.0423    0.6624 H   0  0  0  0  0  0  0  0  0  0  0  0
   -2.6530   -3.0707    0.1624 C   0  0  0  0  0  0  0  0  0  0  0  0
   -3.4434   -2.4306    0.5611 H   0  0  0  0  0  0  0  0  0  0  0  0
   -2.8161   -3.2188   -0.9079 H   0  0  0  0  0  0  0  0  0  0  0  0
   -1.2974   -2.4318    0.3981 C   0  0  0  0  0  0  0  0  0  0  0  0
   -0.4624   -3.0108    1.0679 O   0  0  0  0  0  0  0  0  0  0  0  0
   -1.0178   -1.1952   -0.1500 N   0  0  0  0  0  0  0  0  0  0  0  0
   -1.7206   -0.8038   -0.7699 H   0  0  0  0  0  0  0  0  0  0  0  0
    0.2990   -0.5317   -0.0811 C   0  0  1  0  0  0  0  0  0  0  0  0
    1.0516   -1.1843   -0.5377 H   0  0  0  0  0  0  0  0  0  0  0  0
    0.1937    0.7574   -0.9247 C   0  0  0  0  0  0  0  0  0  0  0  0
    0.1634    0.4802   -1.9825 H   0  0  0  0  0  0  0  0  0  0  0  0
   -0.7471    1.2648   -0.6868 H   0  0  0  0  0  0  0  0  0  0  0  0
    1.3300    1.7642   -0.6942 C   0  0  0  0  0  0  0  0  0  0  0  0
    1.3420    2.0961    0.3491 H   0  0  0  0  0  0  0  0  0  0  0  0
    2.3000    1.3039   -0.9105 H   0  0  0  0  0  0  0  0  0  0  0  0
    1.0711    3.2373   -1.7616 S   0  0  0  0  0  0  0  0  0  0  0  0
    1.6579    2.6494   -3.4000 C   0  0  0  0  0  0  0  0  0  0  0  0
    1.0426    1.8174   -3.7535 H   0  0  0  0  0  0  0  0  0  0  0  0
    1.5988    3.4613   -4.1309 H   0  0  0  0  0  0  0  0  0  0  0  0
    2.6976    2.3154   -3.3317 H   0  0  0  0  0  0  0  0  0  0  0  0
    0.7785   -0.2635    1.3665 C   0  0  0  0  0  0  0  0  0  0  0  0
    1.9738   -0.3084    1.6280 O   0  0  0  0  0  0  0  0  0  0  0  0
   -0.0959    0.2590    2.3023 N   0  0  0  0  0  0  0  0  0  0  0  0
   -1.0832    0.2050    2.0756 H   0  0  0  0  0  0  0  0  0  0  0  0
    0.2972    0.5502    3.6750 C   0  0  0  0  0  0  0  0  0  0  0  0
    1.1111    1.2828    3.6935 H   0  0  0  0  0  0  0  0  0  0  0  0
   -0.5492    0.9627    4.2322 H   0  0  0  0  0  0  0  0  0  0  0  0
    0.6332   -0.3629    4.1775 H   0  0  0  0  0  0  0  0  0  0  0  0
  1  2  1  0  0  0  0
  2  3  1  0  0  0  0
  2  4  1  0  0  0  0
  2  5  1  0  0  0  0
  5  6  2  0  0  0  0
  5  7  1  0  0  0  0
  7  8  1  0  0  0  0
  7  9  1  0  0  0  0
  9 10  1  0  0  0  0
  9 11  1  0  0  0  0
  9 22  1  0  0  0  0
 11 12  1  0  0  0  0
 11 13  1  0  0  0  0
 11 14  1  0  0  0  0
 14 15  1  0  0  0  0
 14 16  1  0  0  0  0
 14 17  1  0  0  0  0
 17 18  1  0  0  0  0
 18 19  1  0  0  0  0
 18 20  1  0  0  0  0
 18 21  1  0  0  0  0
 22 23  2  0  0  0  0
 22 24  1  0  0  0  0
 24 25  1  0  0  0  0
 24 26  1  0  0  0  0
 26 27  1  0  0  0  0
 26 28  1  0  0  0  0
 26 29  1  0  0  0  0
M  END
$$$$

  -OEChem-04042216023D

 29 28  0     1  0  0  0  0  0999 V2000
   -2.6986   -4.0103    0.6058 H   0  0  0  0  0  0  0  0  0  0  0  0
   -2.6412   -3.0241    0.1362 C   0  0  0  0  0  0  0  0  0  0  0  0
   -3.4154   -2.3842    0.5661 H   0  0  0  0  0  0  0  0  0  0  0  0
   -2.8217   -3.1352   -0.9356 H   0  0  0  0  0  0  0  0  0  0  0  0
   -1.2728   -2.4138    0.3723 C   0  0  0  0  0  0  0  0  0  0  0  0
   -0.4451   -3.0167    1.0298 O   0  0  0  0  0  0  0  0  0  0  0  0
   -0.9742   -1.1753   -0.1612 N   0  0  0  0  0  0  0  0  0  0  0  0
   -1.6786   -0.7541   -0.7593 H   0  0  0  0  0  0  0  0  0  0  0  0
    0.3453   -0.5207   -0.0637 C   0  0  1  0  0  0  0  0  0  0  0  0
    1.1030   -1.1777   -0.5056 H   0  0  0  0  0  0  0  0  0  0  0  0
    0.2647    0.7674   -0.9139 C   0  0  0  0  0  0  0  0  0  0  0  0
    0.2395    0.4940   -1.9729 H   0  0  0  0  0  0  0  0  0  0  0  0
   -0.6786    1.2716   -0.6786 H   0  0  0  0  0  0  0  0  0  0  0  0
    1.3921    1.7867   -0.6795 C   0  0  0  0  0  0  0  0  0  0  0  0
    1.5595    1.9519    0.3886 H   0  0  0  0  0  0  0  0  0  0  0  0
    2.3309    1.4239   -1.1106 H   0  0  0  0  0  0  0  0  0  0  0  0
    0.9197    3.4060   -1.4106 S   0  0  0  0  0  0  0  0  0  0  0  0
    1.0821    3.0953   -3.2138 C   0  0  0  0  0  0  0  0  0  0  0  0
    0.3677    2.3335   -3.5382 H   0  0  0  0  0  0  0  0  0  0  0  0
    0.8854    4.0162   -3.7708 H   0  0  0  0  0  0  0  0  0  0  0  0
    2.0944    2.7537   -3.4494 H   0  0  0  0  0  0  0  0  0  0  0  0
    0.7913   -0.2700    1.3975 C   0  0  0  0  0  0  0  0  0  0  0  0
    1.9776   -0.3403    1.6921 O   0  0  0  0  0  0  0  0  0  0  0  0
   -0.1021    0.2487    2.3173 N   0  0  0  0  0  0  0  0  0  0  0  0
   -1.0829    0.2162    2.0609 H   0  0  0  0  0  0  0  0  0  0  0  0
    0.2549    0.5102    3.7058 C   0  0  0  0  0  0  0  0  0  0  0  0
    1.0701    1.2394    3.7618 H   0  0  0  0  0  0  0  0  0  0  0  0
   -0.6053    0.9137    4.2483 H   0  0  0  0  0  0  0  0  0  0  0  0
    0.5743   -0.4142    4.1983 H   0  0  0  0  0  0  0  0  0  0  0  0
  1  2  1  0  0  0  0
  2  3  1  0  0  0  0
  2  4  1  0  0  0  0
  2  5  1  0  0  0  0
  5  6  2  0  0  0  0
  5  7  1  0  0  0  0
  7  8  1  0  0  0  0
  7  9  1  0  0  0  0
  9 10  1  0  0  0  0
  9 11  1  0  0  0  0
  9 22  1  0  0  0  0
 11 12  1  0  0  0  0
 11 13  1  0  0  0  0
 11 14  1  0  0  0  0
 14 15  1  0  0  0  0
 14 16  1  0  0  0  0
 14 17  1  0  0  0  0
 17 18  1  0  0  0  0
 18 19  1  0  0  0  0
 18 20  1  0  0  0  0
 18 21  1  0  0  0  0
 22 23  2  0  0  0  0
 22 24  1  0  0  0  0
 24 25  1  0  0  0  0
 24 26  1  0  0  0  0
 26 27  1  0  0  0  0
 26 28  1  0  0  0  0
 26 29  1  0  0  0  0
M  END
$$$$

  -OEChem-04042216023D

 29 28  0     1  0  0  0  0  0999 V2000
   -2.7204   -3.9775    0.5923 H   0  0  0  0  0  0  0  0  0  0  0  0
   -2.6492   -2.9903    0.1266 C   0  0  0  0  0  0  0  0  0  0  0  0
   -3.4132   -2.3414    0.5615 H   0  0  0  0  0  0  0  0  0  0  0  0
   -2.8337   -3.0942   -0.9453 H   0  0  0  0  0  0  0  0  0  0  0  0
   -1.2710   -2.4012    0.3620 C   0  0  0  0  0  0  0  0  0  0  0  0
   -0.4501   -3.0217    1.0116 O   0  0  0  0  0  0  0  0  0  0  0  0
   -0.9546   -1.1644   -0.1663 N   0  0  0  0  0  0  0  0  0  0  0  0
   -1.6566   -0.7261   -0.7546 H   0  0  0  0  0  0  0  0  0  0  0  0
    0.3715   -0.5236   -0.0575 C   0  0  1  0  0  0  0  0  0  0  0  0
    1.1275   -1.1851   -0.4955 H   0  0  0  0  0  0  0  0  0  0  0  0
    0.3040    0.7676   -0.9072 C   0  0  0  0  0  0  0  0  0  0  0  0
    0.2700    0.5014   -1.9683 H   0  0  0  0  0  0  0  0  0  0  0  0
   -0.6390    1.2687   -0.6640 H   0  0  0  0  0  0  0  0  0  0  0  0
    1.4307    1.7948   -0.6814 C   0  0  0  0  0  0  0  0  0  0  0  0
    1.7906    1.7836    0.3501 H   0  0  0  0  0  0  0  0  0  0  0  0
    2.2854    1.5663   -1.3261 H   0  0  0  0  0  0  0  0  0  0  0  0
    0.8009    3.4917   -1.0058 S   0  0  0  0  0  0  0  0  0  0  0  0
    0.5862    3.4903   -2.8299 C   0  0  0  0  0  0  0  0  0  0  0  0
   -0.1455    2.7348   -3.1297 H   0  0  0  0  0  0  0  0  0  0  0  0
    0.2332    4.4700   -3.1655 H   0  0  0  0  0  0  0  0  0  0  0  0
    1.5390    3.2747   -3.3223 H   0  0  0  0  0  0  0  0  0  0  0  0
    0.8018   -0.2843    1.4107 C   0  0  0  0  0  0  0  0  0  0  0  0
    1.9793   -0.3952    1.7272 O   0  0  0  0  0  0  0  0  0  0  0  0
   -0.0959    0.2397    2.3231 N   0  0  0  0  0  0  0  0  0  0  0  0
   -1.0709    0.2522    2.0449 H   0  0  0  0  0  0  0  0  0  0  0  0
    0.2449    0.4869    3.7179 C   0  0  0  0  0  0  0  0  0  0  0  0
    1.0610    1.2135    3.7903 H   0  0  0  0  0  0  0  0  0  0  0  0
   -0.6207    0.8867    4.2544 H   0  0  0  0  0  0  0  0  0  0  0  0
    0.5565   -0.4432    4.2050 H   0  0  0  0  0  0  0  0  0  0  0  0
  1  2  1  0  0  0  0
  2  3  1  0  0  0  0
  2  4  1  0  0  0  0
  2  5  1  0  0  0  0
  5  6  2  0  0  0  0
  5  7  1  0  0  0  0
  7  8  1  0  0  0  0
  7  9  1  0  0  0  0
  9 10  1  0  0  0  0
  9 11  1  0  0  0  0
  9 22  1  0  0  0  0
 11 12  1  0  0  0  0
 11 13  1  0  0  0  0
 11 14  1  0  0  0  0
 14 15  1  0  0  0  0
 14 16  1  0  0  0  0
 14 17  1  0  0  0  0
 17 18  1  0  0  0  0
 18 19  1  0  0  0  0
 18 20  1  0  0  0  0
 18 21  1  0  0  0  0
 22 23  2  0  0  0  0
 22 24  1  0  0  0  0
 24 25  1  0  0  0  0
 24 26  1  0  0  0  0
 26 27  1  0  0  0  0
 26 28  1  0  0  0  0
 26 29  1  0  0  0  0
M  END
$$$$

  -OEChem-04042216023D

 29 28  0     1  0  0  0  0  0999 V2000
   -2.7331   -3.9630    0.6147 H   0  0  0  0  0  0  0  0  0  0  0  0
   -2.6555   -2.9785    0.1443 C   0  0  0  0  0  0  0  0  0  0  0  0
   -3.4072   -2.3188    0.5841 H   0  0  0  0  0  0  0  0  0  0  0  0
   -2.8519   -3.0847   -0.9252 H   0  0  0  0  0  0  0  0  0  0  0  0
   -1.2683   -2.4051    0.3633 C   0  0  0  0  0  0  0  0  0  0  0  0
   -0.4461   -3.0361    1.0011 O   0  0  0  0  0  0  0  0  0  0  0  0
   -0.9444   -1.1731   -0.1715 N   0  0  0  0  0  0  0  0  0  0  0  0
   -1.6498   -0.7257   -0.7484 H   0  0  0  0  0  0  0  0  0  0  0  0
    0.3853   -0.5392   -0.0651 C   0  0  1  0  0  0  0  0  0  0  0  0
    1.1406   -1.2017   -0.5026 H   0  0  0  0  0  0  0  0  0  0  0  0
    0.3141    0.7562   -0.9094 C   0  0  0  0  0  0  0  0  0  0  0  0
    0.2766    0.4923   -1.9709 H   0  0  0  0  0  0  0  0  0  0  0  0
   -0.6314    1.2516   -0.6653 H   0  0  0  0  0  0  0  0  0  0  0  0
    1.4432    1.7855   -0.6909 C   0  0  0  0  0  0  0  0  0  0  0  0
    2.0115    1.5882    0.2205 H   0  0  0  0  0  0  0  0  0  0  0  0
    2.1539    1.7360   -1.5217 H   0  0  0  0  0  0  0  0  0  0  0  0
    0.7436    3.4814   -0.5574 S   0  0  0  0  0  0  0  0  0  0  0  0
    0.1931    3.8128   -2.2780 C   0  0  0  0  0  0  0  0  0  0  0  0
   -0.5595    3.0821   -2.5871 H   0  0  0  0  0  0  0  0  0  0  0  0
   -0.2435    4.8138   -2.3446 H   0  0  0  0  0  0  0  0  0  0  0  0
    1.0428    3.7559   -2.9647 H   0  0  0  0  0  0  0  0  0  0  0  0
    0.8071   -0.2979    1.4065 C   0  0  0  0  0  0  0  0  0  0  0  0
    1.9760   -0.4444    1.7402 O   0  0  0  0  0  0  0  0  0  0  0  0
   -0.0921    0.2340    2.3131 N   0  0  0  0  0  0  0  0  0  0  0  0
   -1.0604    0.2920    2.0178 H   0  0  0  0  0  0  0  0  0  0  0  0
    0.2410    0.4890    3.7085 C   0  0  0  0  0  0  0  0  0  0  0  0
    1.0577    1.2150    3.7808 H   0  0  0  0  0  0  0  0  0  0  0  0
   -0.6273    0.8933    4.2373 H   0  0  0  0  0  0  0  0  0  0  0  0
    0.5483   -0.4382    4.2035 H   0  0  0  0  0  0  0  0  0  0  0  0
  1  2  1  0  0  0  0
  2  3  1  0  0  0  0
  2  4  1  0  0  0  0
  2  5  1  0  0  0  0
  5  6  2  0  0  0  0
  5  7  1  0  0  0  0
  7  8  1  0  0  0  0
  7  9  1  0  0  0  0
  9 10  1  0  0  0  0
  9 11  1  0  0  0  0
  9 22  1  0  0  0  0
 11 12  1  0  0  0  0
 11 13  1  0  0  0  0
 11 14  1  0  0  0  0
 14 15  1  0  0  0  0
 14 16  1  0  0  0  0
 14 17  1  0  0  0  0
 17 18  1  0  0  0  0
 18 19  1  0  0  0  0
 18 20  1  0  0  0  0
 18 21  1  0  0  0  0
 22 23  2  0  0  0  0
 22 24  1  0  0  0  0
 24 25  1  0  0  0  0
 24 26  1  0  0  0  0
 26 27  1  0  0  0  0
 26 28  1  0  0  0  0
 26 29  1  0  0  0  0
M  END
$$$$

  -OEChem-04042216023D

 29 28  0     1  0  0  0  0  0999 V2000
   -2.7272   -3.9829    0.6502 H   0  0  0  0  0  0  0  0  0  0  0  0
   -2.6549   -3.0026    0.1705 C   0  0  0  0  0  0  0  0  0  0  0  0
   -3.3918   -2.3352    0.6233 H   0  0  0  0  0  0  0  0  0  0  0  0
   -2.8778   -3.1153   -0.8931 H   0  0  0  0  0  0  0  0  0  0  0  0
   -1.2596   -2.4359    0.3525 C   0  0  0  0  0  0  0  0  0  0  0  0
   -0.4203   -3.0759    0.9580 O   0  0  0  0  0  0  0  0  0  0  0  0
   -0.9465   -1.2020   -0.1837 N   0  0  0  0  0  0  0  0  0  0  0  0
   -1.6703   -0.7402   -0.7251 H   0  0  0  0  0  0  0  0  0  0  0  0
    0.3776   -0.5572   -0.0779 C   0  0  1  0  0  0  0  0  0  0  0  0
    1.1388   -1.2109   -0.5188 H   0  0  0  0  0  0  0  0  0  0  0  0
    0.2899    0.7401   -0.9144 C   0  0  0  0  0  0  0  0  0  0  0  0
    0.2767    0.4690   -1.9749 H   0  0  0  0  0  0  0  0  0  0  0  0
   -0.6661    1.2258   -0.6939 H   0  0  0  0  0  0  0  0  0  0  0  0
    1.4163    1.7685   -0.6828 C   0  0  0  0  0  0  0  0  0  0  0  0
    2.1608    1.4101    0.0328 H   0  0  0  0  0  0  0  0  0  0  0  0
    1.9491    1.9404   -1.6234 H   0  0  0  0  0  0  0  0  0  0  0  0
    0.7196    3.3634   -0.0874 S   0  0  0  0  0  0  0  0  0  0  0  0
   -0.0630    4.0306   -1.6094 C   0  0  0  0  0  0  0  0  0  0  0  0
   -0.8385    3.3503   -1.9724 H   0  0  0  0  0  0  0  0  0  0  0  0
   -0.5205    5.0020   -1.3999 H   0  0  0  0  0  0  0  0  0  0  0  0
    0.6881    4.1601   -2.3945 H   0  0  0  0  0  0  0  0  0  0  0  0
    0.8018   -0.3085    1.3923 C   0  0  0  0  0  0  0  0  0  0  0  0
    1.9691   -0.4631    1.7279 O   0  0  0  0  0  0  0  0  0  0  0  0
   -0.0969    0.2188    2.3020 N   0  0  0  0  0  0  0  0  0  0  0  0
   -1.0572    0.3261    1.9957 H   0  0  0  0  0  0  0  0  0  0  0  0
    0.2491    0.5193    3.6851 C   0  0  0  0  0  0  0  0  0  0  0  0
    1.0570    1.2576    3.7255 H   0  0  0  0  0  0  0  0  0  0  0  0
   -0.6179    0.9274    4.2130 H   0  0  0  0  0  0  0  0  0  0  0  0
    0.5751   -0.3889    4.2031 H   0  0  0  0  0  0  0  0  0  0  0  0
  1  2  1  0  0  0  0
  2  3  1  0  0  0  0
  2  4  1  0  0  0  0
  2  5  1  0  0  0  0
  5  6  2  0  0  0  0
  5  7  1  0  0  0  0
  7  8  1  0  0  0  0
  7  9  1  0  0  0  0
  9 10  1  0  0  0  0
  9 11  1  0  0  0  0
  9 22  1  0  0  0  0
 11 12  1  0  0  0  0
 11 13  1  0  0  0  0
 11 14  1  0  0  0  0
 14 15  1  0  0  0  0
 14 16  1  0  0  0  0
 14 17  1  0  0  0  0
 17 18  1  0  0  0  0
 18 19  1  0  0  0  0
 18 20  1  0  0  0  0
 18 21  1  0  0  0  0
 22 23  2  0  0  0  0
 22 24  1  0  0  0  0
 24 25  1  0  0  0  0
 24 26  1  0  0  0  0
 26 27  1  0  0  0  0
 26 28  1  0  0  0  0
 26 29  1  0  0  0  0
M  END
$$$$

  -OEChem-04042216023D

 29 28  0     1  0  0  0  0  0999 V2000
   -2.7056   -4.0419    0.6405 H   0  0  0  0  0  0  0  0  0  0  0  0
   -2.6466   -3.0578    0.1666 C   0  0  0  0  0  0  0  0  0  0  0  0
   -3.3939   -2.4036    0.6218 H   0  0  0  0  0  0  0  0  0  0  0  0
   -2.8656   -3.1674   -0.8983 H   0  0  0  0  0  0  0  0  0  0  0  0
   -1.2599   -2.4718    0.3540 C   0  0  0  0  0  0  0  0  0  0  0  0
   -0.4124   -3.1014    0.9593 O   0  0  0  0  0  0  0  0  0  0  0  0
   -0.9643   -1.2331   -0.1807 N   0  0  0  0  0  0  0  0  0  0  0  0
   -1.6951   -0.7808   -0.7205 H   0  0  0  0  0  0  0  0  0  0  0  0
    0.3516   -0.5724   -0.0796 C   0  0  1  0  0  0  0  0  0  0  0  0
    1.1166   -1.2189   -0.5248 H   0  0  0  0  0  0  0  0  0  0  0  0
    0.2496    0.7230   -0.9154 C   0  0  0  0  0  0  0  0  0  0  0  0
    0.2617    0.4429   -1.9735 H   0  0  0  0  0  0  0  0  0  0  0  0
   -0.7127    1.2060   -0.7196 H   0  0  0  0  0  0  0  0  0  0  0  0
    1.3736    1.7458   -0.6689 C   0  0  0  0  0  0  0  0  0  0  0  0
    2.2379    1.2810   -0.1839 H   0  0  0  0  0  0  0  0  0  0  0  0
    1.7253    2.1362   -1.6290 H   0  0  0  0  0  0  0  0  0  0  0  0
    0.7551    3.1533    0.3421 S   0  0  0  0  0  0  0  0  0  0  0  0
   -0.1909    4.1338   -0.8898 C   0  0  0  0  0  0  0  0  0  0  0  0
   -1.0086    3.5403   -1.3082 H   0  0  0  0  0  0  0  0  0  0  0  0
   -0.6130    5.0242   -0.4142 H   0  0  0  0  0  0  0  0  0  0  0  0
    0.4664    4.4514   -1.7046 H   0  0  0  0  0  0  0  0  0  0  0  0
    0.7908   -0.3161    1.3848 C   0  0  0  0  0  0  0  0  0  0  0  0
    1.9649   -0.4554    1.7039 O   0  0  0  0  0  0  0  0  0  0  0  0
   -0.1023    0.2014    2.3055 N   0  0  0  0  0  0  0  0  0  0  0  0
   -1.0582    0.3402    1.9987 H   0  0  0  0  0  0  0  0  0  0  0  0
    0.2715    0.5582    3.6675 C   0  0  0  0  0  0  0  0  0  0  0  0
    1.0503    1.3281    3.6606 H   0  0  0  0  0  0  0  0  0  0  0  0
   -0.5956    0.9481    4.2089 H   0  0  0  0  0  0  0  0  0  0  0  0
    0.6481   -0.3202    4.2024 H   0  0  0  0  0  0  0  0  0  0  0  0
  1  2  1  0  0  0  0
  2  3  1  0  0  0  0
  2  4  1  0  0  0  0
  2  5  1  0  0  0  0
  5  6  2  0  0  0  0
  5  7  1  0  0  0  0
  7  8  1  0  0  0  0
  7  9  1  0  0  0  0
  9 10  1  0  0  0  0
  9 11  1  0  0  0  0
  9 22  1  0  0  0  0
 11 12  1  0  0  0  0
 11 13  1  0  0  0  0
 11 14  1  0  0  0  0
 14 15  1  0  0  0  0
 14 16  1  0  0  0  0
 14 17  1  0  0  0  0
 17 18  1  0  0  0  0
 18 19  1  0  0  0  0
 18 20  1  0  0  0  0
 18 21  1  0  0  0  0
 22 23  2  0  0  0  0
 22 24  1  0  0  0  0
 24 25  1  0  0  0  0
 24 26  1  0  0  0  0
 26 27  1  0  0  0  0
 26 28  1  0  0  0  0
 26 29  1  0  0  0  0
M  END
$$$$

  -OEChem-04042216023D

 29 28  0     1  0  0  0  0  0999 V2000
   -2.6898   -4.0742    0.6170 H   0  0  0  0  0  0  0  0  0  0  0  0
   -2.6425   -3.0850    0.1524 C   0  0  0  0  0  0  0  0  0  0  0  0
   -3.3930   -2.4422    0.6184 H   0  0  0  0  0  0  0  0  0  0  0  0
   -2.8668   -3.1862   -0.9123 H   0  0  0  0  0  0  0  0  0  0  0  0
   -1.2598   -2.4886    0.3378 C   0  0  0  0  0  0  0  0  0  0  0  0
   -0.4015   -3.1219    0.9237 O   0  0  0  0  0  0  0  0  0  0  0  0
   -0.9798   -1.2364   -0.1739 N   0  0  0  0  0  0  0  0  0  0  0  0
   -1.7177   -0.7806   -0.7006 H   0  0  0  0  0  0  0  0  0  0  0  0
    0.3301   -0.5651   -0.0648 C   0  0  1  0  0  0  0  0  0  0  0  0
    1.0938   -1.2135   -0.5094 H   0  0  0  0  0  0  0  0  0  0  0  0
    0.2441    0.7221   -0.9173 C   0  0  0  0  0  0  0  0  0  0  0  0
    0.2801    0.4262   -1.9705 H   0  0  0  0  0  0  0  0  0  0  0  0
   -0.7202    1.2105   -0.7493 H   0  0  0  0  0  0  0  0  0  0  0  0
    1.3603    1.7495   -0.6651 C   0  0  0  0  0  0  0  0  0  0  0  0
    2.2921    1.2389   -0.3977 H   0  0  0  0  0  0  0  0  0  0  0  0
    1.5522    2.3110   -1.5847 H   0  0  0  0  0  0  0  0  0  0  0  0
    0.8953    2.9417    0.6590 S   0  0  0  0  0  0  0  0  0  0  0  0
   -0.2371    4.0958   -0.2123 C   0  0  0  0  0  0  0  0  0  0  0  0
   -1.1204    3.5650   -0.5776 H   0  0  0  0  0  0  0  0  0  0  0  0
   -0.5627    4.8860    0.4708 H   0  0  0  0  0  0  0  0  0  0  0  0
    0.2738    4.5580   -1.0622 H   0  0  0  0  0  0  0  0  0  0  0  0
    0.7813   -0.3297    1.3987 C   0  0  0  0  0  0  0  0  0  0  0  0
    1.9616   -0.4592    1.6986 O   0  0  0  0  0  0  0  0  0  0  0  0
   -0.1060    0.1627    2.3392 N   0  0  0  0  0  0  0  0  0  0  0  0
   -1.0622    0.3143    2.0400 H   0  0  0  0  0  0  0  0  0  0  0  0
    0.2866    0.5296    3.6934 C   0  0  0  0  0  0  0  0  0  0  0  0
    1.0328    1.3309    3.6713 H   0  0  0  0  0  0  0  0  0  0  0  0
   -0.5824    0.8812    4.2574 H   0  0  0  0  0  0  0  0  0  0  0  0
    0.7119   -0.3338    4.2159 H   0  0  0  0  0  0  0  0  0  0  0  0
  1  2  1  0  0  0  0
  2  3  1  0  0  0  0
  2  4  1  0  0  0  0
  2  5  1  0  0  0  0
  5  6  2  0  0  0  0
  5  7  1  0  0  0  0
  7  8  1  0  0  0  0
  7  9  1  0  0  0  0
  9 10  1  0  0  0  0
  9 11  1  0  0  0  0
  9 22  1  0  0  0  0
 11 12  1  0  0  0  0
 11 13  1  0  0  0  0
 11 14  1  0  0  0  0
 14 15  1  0  0  0  0
 14 16  1  0  0  0  0
 14 17  1  0  0  0  0
 17 18  1  0  0  0  0
 18 19  1  0  0  0  0
 18 20  1  0  0  0  0
 18 21  1  0  0  0  0
 22 23  2  0  0  0  0
 22 24  1  0  0  0  0
 24 25  1  0  0  0  0
 24 26  1  0  0  0  0
 26 27  1  0  0  0  0
 26 28  1  0  0  0  0
 26 29  1  0  0  0  0
M  END
$$$$

  -OEChem-04042216023D

 29 28  0     1  0  0  0  0  0999 V2000
   -2.7232   -4.0117    0.5947 H   0  0  0  0  0  0  0  0  0  0  0  0
   -2.6582   -3.0202    0.1372 C   0  0  0  0  0  0  0  0  0  0  0  0
   -3.4029   -2.3696    0.6018 H   0  0  0  0  0  0  0  0  0  0  0  0
   -2.8753   -3.1108   -0.9298 H   0  0  0  0  0  0  0  0  0  0  0  0
   -1.2692   -2.4444    0.3375 C   0  0  0  0  0  0  0  0  0  0  0  0
   -0.4271   -3.0897    0.9333 O   0  0  0  0  0  0  0  0  0  0  0  0
   -0.9694   -1.1925   -0.1634 N   0  0  0  0  0  0  0  0  0  0  0  0
   -1.6938   -0.7300   -0.7029 H   0  0  0  0  0  0  0  0  0  0  0  0
    0.3499   -0.5402   -0.0457 C   0  0  1  0  0  0  0  0  0  0  0  0
    1.1031   -1.2102   -0.4763 H   0  0  0  0  0  0  0  0  0  0  0  0
    0.3040    0.7275   -0.9343 C   0  0  0  0  0  0  0  0  0  0  0  0
    0.3436    0.4010   -1.9784 H   0  0  0  0  0  0  0  0  0  0  0  0
   -0.6559    1.2301   -0.7895 H   0  0  0  0  0  0  0  0  0  0  0  0
    1.4166    1.7702   -0.7185 C   0  0  0  0  0  0  0  0  0  0  0  0
    2.3833    1.2560   -0.6769 H   0  0  0  0  0  0  0  0  0  0  0  0
    1.4428    2.4469   -1.5781 H   0  0  0  0  0  0  0  0  0  0  0  0
    1.2184    2.7837    0.8072 S   0  0  0  0  0  0  0  0  0  0  0  0
   -0.2582    3.8158    0.4528 C   0  0  0  0  0  0  0  0  0  0  0  0
   -1.1520    3.1922    0.3664 H   0  0  0  0  0  0  0  0  0  0  0  0
   -0.4133    4.5335    1.2640 H   0  0  0  0  0  0  0  0  0  0  0  0
   -0.1189    4.3684   -0.4811 H   0  0  0  0  0  0  0  0  0  0  0  0
    0.7973   -0.3241    1.4204 C   0  0  0  0  0  0  0  0  0  0  0  0
    1.9722   -0.4851    1.7260 O   0  0  0  0  0  0  0  0  0  0  0  0
   -0.0885    0.1718    2.3610 N   0  0  0  0  0  0  0  0  0  0  0  0
   -1.0541    0.2827    2.0758 H   0  0  0  0  0  0  0  0  0  0  0  0
    0.2907    0.4610    3.7375 C   0  0  0  0  0  0  0  0  0  0  0  0
    1.0837    1.2160    3.7647 H   0  0  0  0  0  0  0  0  0  0  0  0
   -0.5691    0.8430    4.2957 H   0  0  0  0  0  0  0  0  0  0  0  0
    0.6509   -0.4467    4.2329 H   0  0  0  0  0  0  0  0  0  0  0  0
  1  2  1  0  0  0  0
  2  3  1  0  0  0  0
  2  4  1  0  0  0  0
  2  5  1  0  0  0  0
  5  6  2  0  0  0  0
  5  7  1  0  0  0  0
  7  8  1  0  0  0  0
  7  9  1  0  0  0  0
  9 10  1  0  0  0  0
  9 11  1  0  0  0  0
  9 22  1  0  0  0  0
 11 12  1  0  0  0  0
 11 13  1  0  0  0  0
 11 14  1  0  0  0  0
 14 15  1  0  0  0  0
 14 16  1  0  0  0  0
 14 17  1  0  0  0  0
 17 18  1  0  0  0  0
 18 19  1  0  0  0  0
 18 20  1  0  0  0  0
 18 21  1  0  0  0  0
 22 23  2  0  0  0  0
 22 24  1  0  0  0  0
 24 25  1  0  0  0  0
 24 26  1  0  0  0  0
 26 27  1  0  0  0  0
 26 28  1  0  0  0  0
 26 29  1  0  0  0  0
M  END
$$$$

  -OEChem-04042216023D

 29 28  0     1  0  0  0  0  0999 V2000
   -2.7394   -3.9787    0.5860 H   0  0  0  0  0  0  0  0  0  0  0  0
   -2.6618   -2.9862    0.1325 C   0  0  0  0  0  0  0  0  0  0  0  0
   -3.4123   -2.3338    0.5849 H   0  0  0  0  0  0  0  0  0  0  0  0
   -2.8599   -3.0737   -0.9384 H   0  0  0  0  0  0  0  0  0  0  0  0
   -1.2736   -2.4178    0.3598 C   0  0  0  0  0  0  0  0  0  0  0  0
   -0.4493   -3.0666    0.9759 O   0  0  0  0  0  0  0  0  0  0  0  0
   -0.9565   -1.1694   -0.1402 N   0  0  0  0  0  0  0  0  0  0  0  0
   -1.6644   -0.7139   -0.7069 H   0  0  0  0  0  0  0  0  0  0  0  0
    0.3709   -0.5308   -0.0241 C   0  0  1  0  0  0  0  0  0  0  0  0
    1.1195   -1.2103   -0.4477 H   0  0  0  0  0  0  0  0  0  0  0  0
    0.3272    0.7228   -0.9390 C   0  0  0  0  0  0  0  0  0  0  0  0
    0.3388    0.3748   -1.9769 H   0  0  0  0  0  0  0  0  0  0  0  0
   -0.6311    1.2250   -0.7785 H   0  0  0  0  0  0  0  0  0  0  0  0
    1.4162    1.8077   -0.7957 C   0  0  0  0  0  0  0  0  0  0  0  0
    2.3853    1.3459   -1.0130 H   0  0  0  0  0  0  0  0  0  0  0  0
    1.2453    2.5766   -1.5557 H   0  0  0  0  0  0  0  0  0  0  0  0
    1.5522    2.6395    0.8414 S   0  0  0  0  0  0  0  0  0  0  0  0
   -0.0697    3.4786    1.0297 C   0  0  0  0  0  0  0  0  0  0  0  0
   -0.8777    2.7439    1.0759 H   0  0  0  0  0  0  0  0  0  0  0  0
   -0.0799    4.0643    1.9537 H   0  0  0  0  0  0  0  0  0  0  0  0
   -0.2487    4.1518    0.1862 H   0  0  0  0  0  0  0  0  0  0  0  0
    0.8098   -0.3252    1.4457 C   0  0  0  0  0  0  0  0  0  0  0  0
    1.9716   -0.5350    1.7706 O   0  0  0  0  0  0  0  0  0  0  0  0
   -0.0805    0.1771    2.3793 N   0  0  0  0  0  0  0  0  0  0  0  0
   -1.0520    0.2366    2.0990 H   0  0  0  0  0  0  0  0  0  0  0  0
    0.2717    0.3827    3.7776 C   0  0  0  0  0  0  0  0  0  0  0  0
    1.0990    1.0955    3.8615 H   0  0  0  0  0  0  0  0  0  0  0  0
   -0.5844    0.7817    4.3296 H   0  0  0  0  0  0  0  0  0  0  0  0
    0.5729   -0.5638    4.2390 H   0  0  0  0  0  0  0  0  0  0  0  0
  1  2  1  0  0  0  0
  2  3  1  0  0  0  0
  2  4  1  0  0  0  0
  2  5  1  0  0  0  0
  5  6  2  0  0  0  0
  5  7  1  0  0  0  0
  7  8  1  0  0  0  0
  7  9  1  0  0  0  0
  9 10  1  0  0  0  0
  9 11  1  0  0  0  0
  9 22  1  0  0  0  0
 11 12  1  0  0  0  0
 11 13  1  0  0  0  0
 11 14  1  0  0  0  0
 14 15  1  0  0  0  0
 14 16  1  0  0  0  0
 14 17  1  0  0  0  0
 17 18  1  0  0  0  0
 18 19  1  0  0  0  0
 18 20  1  0  0  0  0
 18 21  1  0  0  0  0
 22 23  2  0  0  0  0
 22 24  1  0  0  0  0
 24 25  1  0  0  0  0
 24 26  1  0  0  0  0
 26 27  1  0  0  0  0
 26 28  1  0  0  0  0
 26 29  1  0  0  0  0
M  END
$$$$

  -OEChem-04042216023D

 29 28  0     1  0  0  0  0  0999 V2000
   -2.7176   -4.0359    0.5653 H   0  0  0  0  0  0  0  0  0  0  0  0
   -2.6440   -3.0370    0.1259 C   0  0  0  0  0  0  0  0  0  0  0  0
   -3.3971   -2.3944    0.5878 H   0  0  0  0  0  0  0  0  0  0  0  0
   -2.8422   -3.1101   -0.9461 H   0  0  0  0  0  0  0  0  0  0  0  0
   -1.2584   -2.4655    0.3610 C   0  0  0  0  0  0  0  0  0  0  0  0
   -0.4315   -3.1209    0.9662 O   0  0  0  0  0  0  0  0  0  0  0  0
   -0.9467   -1.2093   -0.1234 N   0  0  0  0  0  0  0  0  0  0  0  0
   -1.6558   -0.7524   -0.6875 H   0  0  0  0  0  0  0  0  0  0  0  0
    0.3795   -0.5661   -0.0029 C   0  0  1  0  0  0  0  0  0  0  0  0
    1.1362   -1.2281   -0.4392 H   0  0  0  0  0  0  0  0  0  0  0  0
    0.3032    0.7006   -0.9031 C   0  0  0  0  0  0  0  0  0  0  0  0
    0.2728    0.3673   -1.9455 H   0  0  0  0  0  0  0  0  0  0  0  0
   -0.6566    1.1819   -0.6903 H   0  0  0  0  0  0  0  0  0  0  0  0
    1.3508    1.8349   -0.8055 C   0  0  0  0  0  0  0  0  0  0  0  0
    2.2645    1.4696   -1.2859 H   0  0  0  0  0  0  0  0  0  0  0  0
    0.9990    2.6890   -1.3924 H   0  0  0  0  0  0  0  0  0  0  0  0
    1.8471    2.4378    0.8582 S   0  0  0  0  0  0  0  0  0  0  0  0
    0.3545    3.3544    1.4069 C   0  0  0  0  0  0  0  0  0  0  0  0
   -0.5171    2.6950    1.4179 H   0  0  0  0  0  0  0  0  0  0  0  0
    0.5088    3.7468    2.4163 H   0  0  0  0  0  0  0  0  0  0  0  0
    0.1554    4.1915    0.7319 H   0  0  0  0  0  0  0  0  0  0  0  0
    0.8002   -0.3881    1.4760 C   0  0  0  0  0  0  0  0  0  0  0  0
    1.9409   -0.6592    1.8289 O   0  0  0  0  0  0  0  0  0  0  0  0
   -0.1052    0.0933    2.4064 N   0  0  0  0  0  0  0  0  0  0  0  0
   -1.0706    0.1605    2.1068 H   0  0  0  0  0  0  0  0  0  0  0  0
    0.2060    0.1998    3.8254 C   0  0  0  0  0  0  0  0  0  0  0  0
    1.0656    0.8609    3.9791 H   0  0  0  0  0  0  0  0  0  0  0  0
   -0.6480    0.6119    4.3710 H   0  0  0  0  0  0  0  0  0  0  0  0
    0.4410   -0.7863    4.2397 H   0  0  0  0  0  0  0  0  0  0  0  0
  1  2  1  0  0  0  0
  2  3  1  0  0  0  0
  2  4  1  0  0  0  0
  2  5  1  0  0  0  0
  5  6  2  0  0  0  0
  5  7  1  0  0  0  0
  7  8  1  0  0  0  0
  7  9  1  0  0  0  0
  9 10  1  0  0  0  0
  9 11  1  0  0  0  0
  9 22  1  0  0  0  0
 11 12  1  0  0  0  0
 11 13  1  0  0  0  0
 11 14  1  0  0  0  0
 14 15  1  0  0  0  0
 14 16  1  0  0  0  0
 14 17  1  0  0  0  0
 17 18  1  0  0  0  0
 18 19  1  0  0  0  0
 18 20  1  0  0  0  0
 18 21  1  0  0  0  0
 22 23  2  0  0  0  0
 22 24  1  0  0  0  0
 24 25  1  0  0  0  0
 24 26  1  0  0  0  0
 26 27  1  0  0  0  0
 26 28  1  0  0  0  0
 26 29  1  0  0  0  0
M  END
$$$$

  -OEChem-04042216023D

 29 28  0     1  0  0  0  0  0999 V2000
   -2.7398   -4.0908    0.5146 H   0  0  0  0  0  0  0  0  0  0  0  0
   -2.6552   -3.0882    0.0854 C   0  0  0  0  0  0  0  0  0  0  0  0
   -3.4150   -2.4472    0.5386 H   0  0  0  0  0  0  0  0  0  0  0  0
   -2.8337   -3.1518   -0.9907 H   0  0  0  0  0  0  0  0  0  0  0  0
   -1.2723   -2.5233    0.3508 C   0  0  0  0  0  0  0  0  0  0  0  0
   -0.4600   -3.1872    0.9658 O   0  0  0  0  0  0  0  0  0  0  0  0
   -0.9479   -1.2656   -0.1222 N   0  0  0  0  0  0  0  0  0  0  0  0
   -1.6436   -0.8105   -0.7040 H   0  0  0  0  0  0  0  0  0  0  0  0
    0.3815   -0.6285    0.0093 C   0  0  1  0  0  0  0  0  0  0  0  0
    1.1450   -1.2755   -0.4374 H   0  0  0  0  0  0  0  0  0  0  0  0
    0.2775    0.6585   -0.8619 C   0  0  0  0  0  0  0  0  0  0  0  0
    0.2141    0.3475   -1.9098 H   0  0  0  0  0  0  0  0  0  0  0  0
   -0.6819    1.1201   -0.6063 H   0  0  0  0  0  0  0  0  0  0  0  0
    1.2958    1.8243   -0.7835 C   0  0  0  0  0  0  0  0  0  0  0  0
    2.0884    1.5901   -1.5016 H   0  0  0  0  0  0  0  0  0  0  0  0
    0.8117    2.7409   -1.1352 H   0  0  0  0  0  0  0  0  0  0  0  0
    2.1565    2.1852    0.7973 S   0  0  0  0  0  0  0  0  0  0  0  0
    0.9262    3.2228    1.6795 C   0  0  0  0  0  0  0  0  0  0  0  0
   -0.0269    2.6949    1.7669 H   0  0  0  0  0  0  0  0  0  0  0  0
    1.2897    3.4581    2.6842 H   0  0  0  0  0  0  0  0  0  0  0  0
    0.7626    4.1588    1.1376 H   0  0  0  0  0  0  0  0  0  0  0  0
    0.7799   -0.4694    1.4980 C   0  0  0  0  0  0  0  0  0  0  0  0
    1.8945   -0.8015    1.8808 O   0  0  0  0  0  0  0  0  0  0  0  0
   -0.1391    0.0067    2.4183 N   0  0  0  0  0  0  0  0  0  0  0  0
   -1.0961    0.0869    2.0955 H   0  0  0  0  0  0  0  0  0  0  0  0
    0.1268    0.0290    3.8509 C   0  0  0  0  0  0  0  0  0  0  0  0
    1.0247    0.6190    4.0640 H   0  0  0  0  0  0  0  0  0  0  0  0
   -0.7150    0.4783    4.3857 H   0  0  0  0  0  0  0  0  0  0  0  0
    0.2766   -0.9885    4.2275 H   0  0  0  0  0  0  0  0  0  0  0  0
  1  2  1  0  0  0  0
  2  3  1  0  0  0  0
  2  4  1  0  0  0  0
  2  5  1  0  0  0  0
  5  6  2  0  0  0  0
  5  7  1  0  0  0  0
  7  8  1  0  0  0  0
  7  9  1  0  0  0  0
  9 10  1  0  0  0  0
  9 11  1  0  0  0  0
  9 22  1  0  0  0  0
 11 12  1  0  0  0  0
 11 13  1  0  0  0  0
 11 14  1  0  0  0  0
 14 15  1  0  0  0  0
 14 16  1  0  0  0  0
 14 17  1  0  0  0  0
 17 18  1  0  0  0  0
 18 19  1  0  0  0  0
 18 20  1  0  0  0  0
 18 21  1  0  0  0  0
 22 23  2  0  0  0  0
 22 24  1  0  0  0  0
 24 25  1  0  0  0  0
 24 26  1  0  0  0  0
 26 27  1  0  0  0  0
 26 28  1  0  0  0  0
 26 29  1  0  0  0  0
M  END
$$$$

  -OEChem-04042216023D

 29 28  0     1  0  0  0  0  0999 V2000
   -2.5516   -4.4614    0.1846 H   0  0  0  0  0  0  0  0  0  0  0  0
   -2.5414   -3.4238   -0.1613 C   0  0  0  0  0  0  0  0  0  0  0  0
   -3.3739   -2.8911    0.3043 H   0  0  0  0  0  0  0  0  0  0  0  0
   -2.6698   -3.4137   -1.2463 H   0  0  0  0  0  0  0  0  0  0  0  0
   -1.2273   -2.7638    0.2116 C   0  0  0  0  0  0  0  0  0  0  0  0
   -0.3657   -3.4151    0.7708 O   0  0  0  0  0  0  0  0  0  0  0  0
   -1.0176   -1.4364   -0.1116 N   0  0  0  0  0  0  0  0  0  0  0  0
   -1.7496   -0.9796   -0.6453 H   0  0  0  0  0  0  0  0  0  0  0  0
    0.2151   -0.6749    0.1914 C   0  0  1  0  0  0  0  0  0  0  0  0
    1.0847   -1.1658   -0.2603 H   0  0  0  0  0  0  0  0  0  0  0  0
   -0.0170    0.6890   -0.5251 C   0  0  0  0  0  0  0  0  0  0  0  0
    0.0162    0.5032   -1.6038 H   0  0  0  0  0  0  0  0  0  0  0  0
   -1.0428    0.9893   -0.2860 H   0  0  0  0  0  0  0  0  0  0  0  0
    0.8285    1.9600   -0.2486 C   0  0  0  0  0  0  0  0  0  0  0  0
    1.4961    2.0943   -1.1060 H   0  0  0  0  0  0  0  0  0  0  0  0
    0.1558    2.8236   -0.2307 H   0  0  0  0  0  0  0  0  0  0  0  0
    1.8903    2.0371    1.2451 S   0  0  0  0  0  0  0  0  0  0  0  0
    2.7018    3.6717    1.0527 C   0  0  0  0  0  0  0  0  0  0  0  0
    3.2885    3.6979    0.1298 H   0  0  0  0  0  0  0  0  0  0  0  0
    3.3711    3.8573    1.8981 H   0  0  0  0  0  0  0  0  0  0  0  0
    1.9520    4.4674    1.0186 H   0  0  0  0  0  0  0  0  0  0  0  0
    0.4714   -0.6336    1.7202 C   0  0  0  0  0  0  0  0  0  0  0  0
    1.5629   -0.9505    2.1765 O   0  0  0  0  0  0  0  0  0  0  0  0
   -0.5668   -0.3588    2.5943 N   0  0  0  0  0  0  0  0  0  0  0  0
   -1.4889   -0.2476    2.1903 H   0  0  0  0  0  0  0  0  0  0  0  0
   -0.4323   -0.4697    4.0407 C   0  0  0  0  0  0  0  0  0  0  0  0
    0.3615    0.1927    4.4024 H   0  0  0  0  0  0  0  0  0  0  0  0
   -1.3681   -0.1865    4.5313 H   0  0  0  0  0  0  0  0  0  0  0  0
   -0.1879   -1.4992    4.3234 H   0  0  0  0  0  0  0  0  0  0  0  0
  1  2  1  0  0  0  0
  2  3  1  0  0  0  0
  2  4  1  0  0  0  0
  2  5  1  0  0  0  0
  5  6  2  0  0  0  0
  5  7  1  0  0  0  0
  7  8  1  0  0  0  0
  7  9  1  0  0  0  0
  9 10  1  0  0  0  0
  9 11  1  0  0  0  0
  9 22  1  0  0  0  0
 11 12  1  0  0  0  0
 11 13  1  0  0  0  0
 11 14  1  0  0  0  0
 14 15  1  0  0  0  0
 14 16  1  0  0  0  0
 14 17  1  0  0  0  0
 17 18  1  0  0  0  0
 18 19  1  0  0  0  0
 18 20  1  0  0  0  0
 18 21  1  0  0  0  0
 22 23  2  0  0  0  0
 22 24  1  0  0  0  0
 24 25  1  0  0  0  0
 24 26  1  0  0  0  0
 26 27  1  0  0  0  0
 26 28  1  0  0  0  0
 26 29  1  0  0  0  0
M  END
$$$$

  -OEChem-04042216023D

 29 28  0     1  0  0  0  0  0999 V2000
   -3.1843   -3.8525    0.5082 H   0  0  0  0  0  0  0  0  0  0  0  0
   -2.9732   -2.8833    0.0471 C   0  0  0  0  0  0  0  0  0  0  0  0
   -3.6735   -2.1455    0.4452 H   0  0  0  0  0  0  0  0  0  0  0  0
   -3.1173   -2.9702   -1.0325 H   0  0  0  0  0  0  0  0  0  0  0  0
   -1.5471   -2.4627    0.3491 C   0  0  0  0  0  0  0  0  0  0  0  0
   -0.8366   -3.1911    1.0148 O   0  0  0  0  0  0  0  0  0  0  0  0
   -1.0714   -1.2653   -0.1529 N   0  0  0  0  0  0  0  0  0  0  0  0
   -1.6878   -0.7744   -0.7921 H   0  0  0  0  0  0  0  0  0  0  0  0
    0.3200   -0.7767   -0.0114 C   0  0  1  0  0  0  0  0  0  0  0  0
    1.0331   -1.4837   -0.4502 H   0  0  0  0  0  0  0  0  0  0  0  0
    0.3195    0.5446   -0.8348 C   0  0  0  0  0  0  0  0  0  0  0  0
    0.2384    0.2614   -1.8895 H   0  0  0  0  0  0  0  0  0  0  0  0
   -0.5998    1.0830   -0.5803 H   0  0  0  0  0  0  0  0  0  0  0  0
    1.4474    1.6048   -0.7354 C   0  0  0  0  0  0  0  0  0  0  0  0
    1.8707    1.7256   -1.7378 H   0  0  0  0  0  0  0  0  0  0  0  0
    0.9979    2.5665   -0.4682 H   0  0  0  0  0  0  0  0  0  0  0  0
    2.8608    1.3058    0.3963 S   0  0  0  0  0  0  0  0  0  0  0  0
    2.4865    2.3992    1.8231 C   0  0  0  0  0  0  0  0  0  0  0  0
    2.5011    3.4477    1.5123 H   0  0  0  0  0  0  0  0  0  0  0  0
    3.2352    2.2547    2.6077 H   0  0  0  0  0  0  0  0  0  0  0  0
    1.5014    2.1670    2.2358 H   0  0  0  0  0  0  0  0  0  0  0  0
    0.6737   -0.6268    1.4931 C   0  0  0  0  0  0  0  0  0  0  0  0
    1.6916   -1.1226    1.9580 O   0  0  0  0  0  0  0  0  0  0  0  0
   -0.2283   -0.0257    2.3563 N   0  0  0  0  0  0  0  0  0  0  0  0
   -1.1453    0.1686    1.9708 H   0  0  0  0  0  0  0  0  0  0  0  0
   -0.0790   -0.0842    3.8054 C   0  0  0  0  0  0  0  0  0  0  0  0
    0.8769    0.3541    4.1113 H   0  0  0  0  0  0  0  0  0  0  0  0
   -0.8842    0.4736    4.2924 H   0  0  0  0  0  0  0  0  0  0  0  0
   -0.1152   -1.1227    4.1509 H   0  0  0  0  0  0  0  0  0  0  0  0
  1  2  1  0  0  0  0
  2  3  1  0  0  0  0
  2  4  1  0  0  0  0
  2  5  1  0  0  0  0
  5  6  2  0  0  0  0
  5  7  1  0  0  0  0
  7  8  1  0  0  0  0
  7  9  1  0  0  0  0
  9 10  1  0  0  0  0
  9 11  1  0  0  0  0
  9 22  1  0  0  0  0
 11 12  1  0  0  0  0
 11 13  1  0  0  0  0
 11 14  1  0  0  0  0
 14 15  1  0  0  0  0
 14 16  1  0  0  0  0
 14 17  1  0  0  0  0
 17 18  1  0  0  0  0
 18 19  1  0  0  0  0
 18 20  1  0  0  0  0
 18 21  1  0  0  0  0
 22 23  2  0  0  0  0
 22 24  1  0  0  0  0
 24 25  1  0  0  0  0
 24 26  1  0  0  0  0
 26 27  1  0  0  0  0
 26 28  1  0  0  0  0
 26 29  1  0  0  0  0
M  END
$$$$

  -OEChem-04042216023D

 29 28  0     1  0  0  0  0  0999 V2000
   -2.7484   -4.0369    1.0820 H   0  0  0  0  0  0  0  0  0  0  0  0
   -2.6588   -3.0780    0.5632 C   0  0  0  0  0  0  0  0  0  0  0  0
   -3.4593   -2.4179    0.9056 H   0  0  0  0  0  0  0  0  0  0  0  0
   -2.7680   -3.2489   -0.5103 H   0  0  0  0  0  0  0  0  0  0  0  0
   -1.3079   -2.4522    0.8554 C   0  0  0  0  0  0  0  0  0  0  0  0
   -0.5205   -3.0332    1.5773 O   0  0  0  0  0  0  0  0  0  0  0  0
   -0.9819   -1.2370    0.2835 N   0  0  0  0  0  0  0  0  0  0  0  0
   -1.6449   -0.8631   -0.3877 H   0  0  0  0  0  0  0  0  0  0  0  0
    0.3179   -0.5490    0.4443 C   0  0  1  0  0  0  0  0  0  0  0  0
    1.1372   -1.1738    0.0733 H   0  0  0  0  0  0  0  0  0  0  0  0
    0.1771    0.7291   -0.4232 C   0  0  0  0  0  0  0  0  0  0  0  0
    0.2235    0.4075   -1.4685 H   0  0  0  0  0  0  0  0  0  0  0  0
   -0.8154    1.1630   -0.2619 H   0  0  0  0  0  0  0  0  0  0  0  0
    1.1931    1.8773   -0.2511 C   0  0  0  0  0  0  0  0  0  0  0  0
    1.2488    2.4535   -1.1802 H   0  0  0  0  0  0  0  0  0  0  0  0
    0.8142    2.5500    0.5255 H   0  0  0  0  0  0  0  0  0  0  0  0
    2.8882    1.3817    0.2567 S   0  0  0  0  0  0  0  0  0  0  0  0
    3.4954    0.4403   -1.1985 C   0  0  0  0  0  0  0  0  0  0  0  0
    3.4922    1.0754   -2.0891 H   0  0  0  0  0  0  0  0  0  0  0  0
    4.5178    0.0952   -1.0177 H   0  0  0  0  0  0  0  0  0  0  0  0
    2.8628   -0.4319   -1.3841 H   0  0  0  0  0  0  0  0  0  0  0  0
    0.5991   -0.2348    1.9392 C   0  0  0  0  0  0  0  0  0  0  0  0
    1.6743   -0.5049    2.4563 O   0  0  0  0  0  0  0  0  0  0  0  0
   -0.4054    0.2991    2.7292 N   0  0  0  0  0  0  0  0  0  0  0  0
   -1.3311    0.3275    2.3178 H   0  0  0  0  0  0  0  0  0  0  0  0
   -0.2741    0.4471    4.1732 C   0  0  0  0  0  0  0  0  0  0  0  0
    0.5924    1.0709    4.4171 H   0  0  0  0  0  0  0  0  0  0  0  0
   -1.1676    0.9225    4.5885 H   0  0  0  0  0  0  0  0  0  0  0  0
   -0.1475   -0.5321    4.6472 H   0  0  0  0  0  0  0  0  0  0  0  0
  1  2  1  0  0  0  0
  2  3  1  0  0  0  0
  2  4  1  0  0  0  0
  2  5  1  0  0  0  0
  5  6  2  0  0  0  0
  5  7  1  0  0  0  0
  7  8  1  0  0  0  0
  7  9  1  0  0  0  0
  9 10  1  0  0  0  0
  9 11  1  0  0  0  0
  9 22  1  0  0  0  0
 11 12  1  0  0  0  0
 11 13  1  0  0  0  0
 11 14  1  0  0  0  0
 14 15  1  0  0  0  0
 14 16  1  0  0  0  0
 14 17  1  0  0  0  0
 17 18  1  0  0  0  0
 18 19  1  0  0  0  0
 18 20  1  0  0  0  0
 18 21  1  0  0  0  0
 22 23  2  0  0  0  0
 22 24  1  0  0  0  0
 24 25  1  0  0  0  0
 24 26  1  0  0  0  0
 26 27  1  0  0  0  0
 26 28  1  0  0  0  0
 26 29  1  0  0  0  0
M  END
$$$$

  -OEChem-04042216023D

 29 28  0     1  0  0  0  0  0999 V2000
   -2.8892   -3.9258    0.9879 H   0  0  0  0  0  0  0  0  0  0  0  0
   -2.6771   -3.0276    0.4008 C   0  0  0  0  0  0  0  0  0  0  0  0
   -3.5010   -2.3214    0.5284 H   0  0  0  0  0  0  0  0  0  0  0  0
   -2.6036   -3.3080   -0.6525 H   0  0  0  0  0  0  0  0  0  0  0  0
   -1.3762   -2.3986    0.8634 C   0  0  0  0  0  0  0  0  0  0  0  0
   -0.7668   -2.8919    1.7932 O   0  0  0  0  0  0  0  0  0  0  0  0
   -0.8938   -1.2765    0.2168 N   0  0  0  0  0  0  0  0  0  0  0  0
   -1.3997   -0.9851   -0.6134 H   0  0  0  0  0  0  0  0  0  0  0  0
    0.4096   -0.6378    0.4993 C   0  0  1  0  0  0  0  0  0  0  0  0
    1.2279   -1.3459    0.3289 H   0  0  0  0  0  0  0  0  0  0  0  0
    0.5048    0.5366   -0.5057 C   0  0  0  0  0  0  0  0  0  0  0  0
    0.6813    0.1128   -1.4991 H   0  0  0  0  0  0  0  0  0  0  0  0
   -0.4575    1.0581   -0.5393 H   0  0  0  0  0  0  0  0  0  0  0  0
    1.5823    1.6025   -0.2390 C   0  0  0  0  0  0  0  0  0  0  0  0
    1.6868    2.2423   -1.1208 H   0  0  0  0  0  0  0  0  0  0  0  0
    1.2564    2.2388    0.5906 H   0  0  0  0  0  0  0  0  0  0  0  0
    3.2251    0.9009    0.2006 S   0  0  0  0  0  0  0  0  0  0  0  0
    3.6841   -0.0738   -1.2862 C   0  0  0  0  0  0  0  0  0  0  0  0
    3.6940    0.5669   -2.1728 H   0  0  0  0  0  0  0  0  0  0  0  0
    4.6810   -0.5044   -1.1540 H   0  0  0  0  0  0  0  0  0  0  0  0
    2.9727   -0.8888   -1.4449 H   0  0  0  0  0  0  0  0  0  0  0  0
    0.5056   -0.1567    1.9725 C   0  0  0  0  0  0  0  0  0  0  0  0
    1.5184   -0.3308    2.6355 O   0  0  0  0  0  0  0  0  0  0  0  0
   -0.5588    0.5195    2.5444 N   0  0  0  0  0  0  0  0  0  0  0  0
   -1.4327    0.4882    2.0316 H   0  0  0  0  0  0  0  0  0  0  0  0
   -0.5868    0.8899    3.9540 C   0  0  0  0  0  0  0  0  0  0  0  0
    0.2630    1.5364    4.1978 H   0  0  0  0  0  0  0  0  0  0  0  0
   -1.5085    1.4322    4.1851 H   0  0  0  0  0  0  0  0  0  0  0  0
   -0.5406   -0.0042    4.5847 H   0  0  0  0  0  0  0  0  0  0  0  0
  1  2  1  0  0  0  0
  2  3  1  0  0  0  0
  2  4  1  0  0  0  0
  2  5  1  0  0  0  0
  5  6  2  0  0  0  0
  5  7  1  0  0  0  0
  7  8  1  0  0  0  0
  7  9  1  0  0  0  0
  9 10  1  0  0  0  0
  9 11  1  0  0  0  0
  9 22  1  0  0  0  0
 11 12  1  0  0  0  0
 11 13  1  0  0  0  0
 11 14  1  0  0  0  0
 14 15  1  0  0  0  0
 14 16  1  0  0  0  0
 14 17  1  0  0  0  0
 17 18  1  0  0  0  0
 18 19  1  0  0  0  0
 18 20  1  0  0  0  0
 18 21  1  0  0  0  0
 22 23  2  0  0  0  0
 22 24  1  0  0  0  0
 24 25  1  0  0  0  0
 24 26  1  0  0  0  0
 26 27  1  0  0  0  0
 26 28  1  0  0  0  0
 26 29  1  0  0  0  0
M  END
$$$$

  -OEChem-04042216023D

 29 28  0     1  0  0  0  0  0999 V2000
   -3.4733   -3.7328    0.6880 H   0  0  0  0  0  0  0  0  0  0  0  0
   -3.2266   -2.8152    0.1462 C   0  0  0  0  0  0  0  0  0  0  0  0
   -3.9202   -2.0290    0.4532 H   0  0  0  0  0  0  0  0  0  0  0  0
   -3.3428   -2.9984   -0.9246 H   0  0  0  0  0  0  0  0  0  0  0  0
   -1.7996   -2.3986    0.4493 C   0  0  0  0  0  0  0  0  0  0  0  0
   -1.1177   -3.0794    1.1923 O   0  0  0  0  0  0  0  0  0  0  0  0
   -1.2921   -1.2454   -0.1181 N   0  0  0  0  0  0  0  0  0  0  0  0
   -1.8788   -0.8001   -0.8166 H   0  0  0  0  0  0  0  0  0  0  0  0
    0.1263   -0.8357   -0.0517 C   0  0  1  0  0  0  0  0  0  0  0  0
    0.7610   -1.6054   -0.5050 H   0  0  0  0  0  0  0  0  0  0  0  0
    0.2296    0.4721   -0.8748 C   0  0  0  0  0  0  0  0  0  0  0  0
    0.1358    0.2260   -1.9375 H   0  0  0  0  0  0  0  0  0  0  0  0
   -0.6076    1.1263   -0.6104 H   0  0  0  0  0  0  0  0  0  0  0  0
    1.5207    1.2764   -0.6662 C   0  0  0  0  0  0  0  0  0  0  0  0
    1.4987    2.1825   -1.2796 H   0  0  0  0  0  0  0  0  0  0  0  0
    1.6093    1.5901    0.3788 H   0  0  0  0  0  0  0  0  0  0  0  0
    2.9754    0.2582   -1.1398 S   0  0  0  0  0  0  0  0  0  0  0  0
    4.2690    0.9274   -0.0236 C   0  0  0  0  0  0  0  0  0  0  0  0
    3.9859    0.7622    1.0209 H   0  0  0  0  0  0  0  0  0  0  0  0
    5.2218    0.4235   -0.2099 H   0  0  0  0  0  0  0  0  0  0  0  0
    4.3997    2.0005   -0.1899 H   0  0  0  0  0  0  0  0  0  0  0  0
    0.6098   -0.6435    1.4108 C   0  0  0  0  0  0  0  0  0  0  0  0
    1.7479   -0.9419    1.7485 O   0  0  0  0  0  0  0  0  0  0  0  0
   -0.1896    0.0451    2.3069 N   0  0  0  0  0  0  0  0  0  0  0  0
   -1.1623    0.1452    2.0376 H   0  0  0  0  0  0  0  0  0  0  0  0
    0.1629    0.1989    3.7128 C   0  0  0  0  0  0  0  0  0  0  0  0
    1.1123    0.7349    3.8144 H   0  0  0  0  0  0  0  0  0  0  0  0
   -0.6108    0.7675    4.2371 H   0  0  0  0  0  0  0  0  0  0  0  0
    0.2595   -0.7813    4.1916 H   0  0  0  0  0  0  0  0  0  0  0  0
  1  2  1  0  0  0  0
  2  3  1  0  0  0  0
  2  4  1  0  0  0  0
  2  5  1  0  0  0  0
  5  6  2  0  0  0  0
  5  7  1  0  0  0  0
  7  8  1  0  0  0  0
  7  9  1  0  0  0  0
  9 10  1  0  0  0  0
  9 11  1  0  0  0  0
  9 22  1  0  0  0  0
 11 12  1  0  0  0  0
 11 13  1  0  0  0  0
 11 14  1  0  0  0  0
 14 15  1  0  0  0  0
 14 16  1  0  0  0  0
 14 17  1  0  0  0  0
 17 18  1  0  0  0  0
 18 19  1  0  0  0  0
 18 20  1  0  0  0  0
 18 21  1  0  0  0  0
 22 23  2  0  0  0  0
 22 24  1  0  0  0  0
 24 25  1  0  0  0  0
 24 26  1  0  0  0  0
 26 27  1  0  0  0  0
 26 28  1  0  0  0  0
 26 29  1  0  0  0  0
M  END
$$$$

  -OEChem-04042216023D

 29 28  0     1  0  0  0  0  0999 V2000
   -2.9849   -3.9037    0.7622 H   0  0  0  0  0  0  0  0  0  0  0  0
   -2.8658   -2.9540    0.2328 C   0  0  0  0  0  0  0  0  0  0  0  0
   -3.6150   -2.2497    0.6020 H   0  0  0  0  0  0  0  0  0  0  0  0
   -3.0282   -3.1247   -0.8340 H   0  0  0  0  0  0  0  0  0  0  0  0
   -1.4725   -2.4002    0.4640 C   0  0  0  0  0  0  0  0  0  0  0  0
   -0.6912   -3.0091    1.1707 O   0  0  0  0  0  0  0  0  0  0  0  0
   -1.1033   -1.2107   -0.1354 N   0  0  0  0  0  0  0  0  0  0  0  0
   -1.7625   -0.8269   -0.8056 H   0  0  0  0  0  0  0  0  0  0  0  0
    0.2640   -0.6483   -0.1125 C   0  0  1  0  0  0  0  0  0  0  0  0
    0.9754   -1.3401   -0.5772 H   0  0  0  0  0  0  0  0  0  0  0  0
    0.1881    0.6607   -0.9331 C   0  0  0  0  0  0  0  0  0  0  0  0
    0.0605    0.4094   -1.9911 H   0  0  0  0  0  0  0  0  0  0  0  0
   -0.7052    1.2092   -0.6165 H   0  0  0  0  0  0  0  0  0  0  0  0
    1.3713    1.6340   -0.7959 C   0  0  0  0  0  0  0  0  0  0  0  0
    1.0794    2.5977   -1.2246 H   0  0  0  0  0  0  0  0  0  0  0  0
    1.6352    1.8143    0.2509 H   0  0  0  0  0  0  0  0  0  0  0  0
    2.8339    1.0146   -1.7305 S   0  0  0  0  0  0  0  0  0  0  0  0
    3.8876    0.1280   -0.5169 C   0  0  0  0  0  0  0  0  0  0  0  0
    3.4671   -0.8561   -0.2937 H   0  0  0  0  0  0  0  0  0  0  0  0
    4.8915   -0.0143   -0.9268 H   0  0  0  0  0  0  0  0  0  0  0  0
    3.9675    0.6999    0.4123 H   0  0  0  0  0  0  0  0  0  0  0  0
    0.7281   -0.3862    1.3461 C   0  0  0  0  0  0  0  0  0  0  0  0
    1.8845   -0.5818    1.6923 O   0  0  0  0  0  0  0  0  0  0  0  0
   -0.1360    0.2223    2.2403 N   0  0  0  0  0  0  0  0  0  0  0  0
   -1.1130    0.2394    1.9685 H   0  0  0  0  0  0  0  0  0  0  0  0
    0.2024    0.4377    3.6417 C   0  0  0  0  0  0  0  0  0  0  0  0
    1.0937    1.0679    3.7285 H   0  0  0  0  0  0  0  0  0  0  0  0
   -0.6230    0.9369    4.1580 H   0  0  0  0  0  0  0  0  0  0  0  0
    0.3971   -0.5183    4.1394 H   0  0  0  0  0  0  0  0  0  0  0  0
  1  2  1  0  0  0  0
  2  3  1  0  0  0  0
  2  4  1  0  0  0  0
  2  5  1  0  0  0  0
  5  6  2  0  0  0  0
  5  7  1  0  0  0  0
  7  8  1  0  0  0  0
  7  9  1  0  0  0  0
  9 10  1  0  0  0  0
  9 11  1  0  0  0  0
  9 22  1  0  0  0  0
 11 12  1  0  0  0  0
 11 13  1  0  0  0  0
 11 14  1  0  0  0  0
 14 15  1  0  0  0  0
 14 16  1  0  0  0  0
 14 17  1  0  0  0  0
 17 18  1  0  0  0  0
 18 19  1  0  0  0  0
 18 20  1  0  0  0  0
 18 21  1  0  0  0  0
 22 23  2  0  0  0  0
 22 24  1  0  0  0  0
 24 25  1  0  0  0  0
 24 26  1  0  0  0  0
 26 27  1  0  0  0  0
 26 28  1  0  0  0  0
 26 29  1  0  0  0  0
M  END
$$$$

  -OEChem-04042216023D

 29 28  0     1  0  0  0  0  0999 V2000
   -2.8994   -3.9566    0.7217 H   0  0  0  0  0  0  0  0  0  0  0  0
   -2.8058   -3.0055    0.1896 C   0  0  0  0  0  0  0  0  0  0  0  0
   -3.5805   -2.3242    0.5492 H   0  0  0  0  0  0  0  0  0  0  0  0
   -2.9535   -3.1853   -0.8781 H   0  0  0  0  0  0  0  0  0  0  0  0
   -1.4326   -2.4069    0.4308 C   0  0  0  0  0  0  0  0  0  0  0  0
   -0.6286   -2.9989    1.1267 O   0  0  0  0  0  0  0  0  0  0  0  0
   -1.1049   -1.1935   -0.1432 N   0  0  0  0  0  0  0  0  0  0  0  0
   -1.7764   -0.8174   -0.8056 H   0  0  0  0  0  0  0  0  0  0  0  0
    0.2473   -0.5990   -0.1181 C   0  0  1  0  0  0  0  0  0  0  0  0
    0.9540   -1.2904   -0.5894 H   0  0  0  0  0  0  0  0  0  0  0  0
    0.1693    0.6897   -0.9707 C   0  0  0  0  0  0  0  0  0  0  0  0
    0.0500    0.4215   -2.0257 H   0  0  0  0  0  0  0  0  0  0  0  0
   -0.7336    1.2310   -0.6694 H   0  0  0  0  0  0  0  0  0  0  0  0
    1.3384    1.6811   -0.8252 C   0  0  0  0  0  0  0  0  0  0  0  0
    0.9663    2.6846   -1.0540 H   0  0  0  0  0  0  0  0  0  0  0  0
    1.7471    1.7211    0.1879 H   0  0  0  0  0  0  0  0  0  0  0  0
    2.6556    1.2878   -2.0453 S   0  0  0  0  0  0  0  0  0  0  0  0
    3.7473    0.1518   -1.0993 C   0  0  0  0  0  0  0  0  0  0  0  0
    3.2263   -0.7814   -0.8697 H   0  0  0  0  0  0  0  0  0  0  0  0
    4.6403   -0.0847   -1.6848 H   0  0  0  0  0  0  0  0  0  0  0  0
    4.0581    0.6178   -0.1593 H   0  0  0  0  0  0  0  0  0  0  0  0
    0.7612   -0.3451    1.3215 C   0  0  0  0  0  0  0  0  0  0  0  0
    1.9492   -0.4795    1.5861 O   0  0  0  0  0  0  0  0  0  0  0  0
   -0.0751    0.2303    2.2615 N   0  0  0  0  0  0  0  0  0  0  0  0
   -1.0660    0.2083    2.0455 H   0  0  0  0  0  0  0  0  0  0  0  0
    0.3350    0.4669    3.6400 C   0  0  0  0  0  0  0  0  0  0  0  0
    1.2056    1.1305    3.6726 H   0  0  0  0  0  0  0  0  0  0  0  0
   -0.4776    0.9382    4.2009 H   0  0  0  0  0  0  0  0  0  0  0  0
    0.5937   -0.4782    4.1295 H   0  0  0  0  0  0  0  0  0  0  0  0
  1  2  1  0  0  0  0
  2  3  1  0  0  0  0
  2  4  1  0  0  0  0
  2  5  1  0  0  0  0
  5  6  2  0  0  0  0
  5  7  1  0  0  0  0
  7  8  1  0  0  0  0
  7  9  1  0  0  0  0
  9 10  1  0  0  0  0
  9 11  1  0  0  0  0
  9 22  1  0  0  0  0
 11 12  1  0  0  0  0
 11 13  1  0  0  0  0
 11 14  1  0  0  0  0
 14 15  1  0  0  0  0
 14 16  1  0  0  0  0
 14 17  1  0  0  0  0
 17 18  1  0  0  0  0
 18 19  1  0  0  0  0
 18 20  1  0  0  0  0
 18 21  1  0  0  0  0
 22 23  2  0  0  0  0
 22 24  1  0  0  0  0
 24 25  1  0  0  0  0
 24 26  1  0  0  0  0
 26 27  1  0  0  0  0
 26 28  1  0  0  0  0
 26 29  1  0  0  0  0
M  END
$$$$

  -OEChem-04042216023D

 29 28  0     1  0  0  0  0  0999 V2000
   -2.7679   -3.9922    0.6796 H   0  0  0  0  0  0  0  0  0  0  0  0
   -2.6904   -3.0369    0.1523 C   0  0  0  0  0  0  0  0  0  0  0  0
   -3.4891   -2.3780    0.5006 H   0  0  0  0  0  0  0  0  0  0  0  0
   -2.8143   -3.2165   -0.9183 H   0  0  0  0  0  0  0  0  0  0  0  0
   -1.3386   -2.4023    0.4195 C   0  0  0  0  0  0  0  0  0  0  0  0
   -0.5297   -2.9765    1.1244 O   0  0  0  0  0  0  0  0  0  0  0  0
   -1.0332   -1.1785   -0.1446 N   0  0  0  0  0  0  0  0  0  0  0  0
   -1.7061   -0.8119   -0.8110 H   0  0  0  0  0  0  0  0  0  0  0  0
    0.3006   -0.5466   -0.0885 C   0  0  1  0  0  0  0  0  0  0  0  0
    1.0354   -1.2209   -0.5405 H   0  0  0  0  0  0  0  0  0  0  0  0
    0.2058    0.7357   -0.9501 C   0  0  0  0  0  0  0  0  0  0  0  0
    0.1154    0.4555   -2.0047 H   0  0  0  0  0  0  0  0  0  0  0  0
   -0.7209    1.2501   -0.6751 H   0  0  0  0  0  0  0  0  0  0  0  0
    1.3402    1.7683   -0.7856 C   0  0  0  0  0  0  0  0  0  0  0  0
    0.8975    2.7689   -0.7515 H   0  0  0  0  0  0  0  0  0  0  0  0
    1.9097    1.6446    0.1381 H   0  0  0  0  0  0  0  0  0  0  0  0
    2.4750    1.7058   -2.2291 S   0  0  0  0  0  0  0  0  0  0  0  0
    3.4802    0.2169   -1.8443 C   0  0  0  0  0  0  0  0  0  0  0  0
    2.8653   -0.6851   -1.9018 H   0  0  0  0  0  0  0  0  0  0  0  0
    4.3021    0.1236   -2.5603 H   0  0  0  0  0  0  0  0  0  0  0  0
    3.9003    0.2923   -0.8363 H   0  0  0  0  0  0  0  0  0  0  0  0
    0.7818   -0.2798    1.3588 C   0  0  0  0  0  0  0  0  0  0  0  0
    1.9678   -0.3960    1.6405 O   0  0  0  0  0  0  0  0  0  0  0  0
   -0.0830    0.2714    2.2869 N   0  0  0  0  0  0  0  0  0  0  0  0
   -1.0697    0.2303    2.0549 H   0  0  0  0  0  0  0  0  0  0  0  0
    0.3016    0.5148    3.6714 C   0  0  0  0  0  0  0  0  0  0  0  0
    1.1594    1.1941    3.7181 H   0  0  0  0  0  0  0  0  0  0  0  0
   -0.5277    0.9710    4.2203 H   0  0  0  0  0  0  0  0  0  0  0  0
    0.5701   -0.4259    4.1639 H   0  0  0  0  0  0  0  0  0  0  0  0
  1  2  1  0  0  0  0
  2  3  1  0  0  0  0
  2  4  1  0  0  0  0
  2  5  1  0  0  0  0
  5  6  2  0  0  0  0
  5  7  1  0  0  0  0
  7  8  1  0  0  0  0
  7  9  1  0  0  0  0
  9 10  1  0  0  0  0
  9 11  1  0  0  0  0
  9 22  1  0  0  0  0
 11 12  1  0  0  0  0
 11 13  1  0  0  0  0
 11 14  1  0  0  0  0
 14 15  1  0  0  0  0
 14 16  1  0  0  0  0
 14 17  1  0  0  0  0
 17 18  1  0  0  0  0
 18 19  1  0  0  0  0
 18 20  1  0  0  0  0
 18 21  1  0  0  0  0
 22 23  2  0  0  0  0
 22 24  1  0  0  0  0
 24 25  1  0  0  0  0
 24 26  1  0  0  0  0
 26 27  1  0  0  0  0
 26 28  1  0  0  0  0
 26 29  1  0  0  0  0
M  END
$$$$

  -OEChem-04042216023D

 29 28  0     1  0  0  0  0  0999 V2000
   -2.6952   -4.0139    0.6431 H   0  0  0  0  0  0  0  0  0  0  0  0
   -2.6423   -3.0362    0.1553 C   0  0  0  0  0  0  0  0  0  0  0  0
   -3.4383   -2.4018    0.5520 H   0  0  0  0  0  0  0  0  0  0  0  0
   -2.7927   -3.1721   -0.9183 H   0  0  0  0  0  0  0  0  0  0  0  0
   -1.2908   -2.3975    0.4147 C   0  0  0  0  0  0  0  0  0  0  0  0
   -0.4761   -2.9708    1.1135 O   0  0  0  0  0  0  0  0  0  0  0  0
   -0.9910   -1.1730   -0.1511 N   0  0  0  0  0  0  0  0  0  0  0  0
   -1.6706   -0.8026   -0.8087 H   0  0  0  0  0  0  0  0  0  0  0  0
    0.3352   -0.5258   -0.0836 C   0  0  1  0  0  0  0  0  0  0  0  0
    1.0885   -1.1856   -0.5282 H   0  0  0  0  0  0  0  0  0  0  0  0
    0.2311    0.7592   -0.9377 C   0  0  0  0  0  0  0  0  0  0  0  0
    0.1650    0.4715   -1.9917 H   0  0  0  0  0  0  0  0  0  0  0  0
   -0.7063    1.2665   -0.6872 H   0  0  0  0  0  0  0  0  0  0  0  0
    1.3602    1.7941   -0.7511 C   0  0  0  0  0  0  0  0  0  0  0  0
    0.9319    2.7412   -0.4073 H   0  0  0  0  0  0  0  0  0  0  0  0
    2.0991    1.4829   -0.0087 H   0  0  0  0  0  0  0  0  0  0  0  0
    2.2291    2.0703   -2.3468 S   0  0  0  0  0  0  0  0  0  0  0  0
    3.2146    0.5259   -2.4887 C   0  0  0  0  0  0  0  0  0  0  0  0
    2.5559   -0.3447   -2.5537 H   0  0  0  0  0  0  0  0  0  0  0  0
    3.8385    0.5596   -3.3867 H   0  0  0  0  0  0  0  0  0  0  0  0
    3.8638    0.4103   -1.6152 H   0  0  0  0  0  0  0  0  0  0  0  0
    0.7858   -0.2520    1.3736 C   0  0  0  0  0  0  0  0  0  0  0  0
    1.9642   -0.3681    1.6848 O   0  0  0  0  0  0  0  0  0  0  0  0
   -0.1031    0.2899    2.2846 N   0  0  0  0  0  0  0  0  0  0  0  0
   -1.0838    0.2465    2.0288 H   0  0  0  0  0  0  0  0  0  0  0  0
    0.2460    0.5167    3.6814 C   0  0  0  0  0  0  0  0  0  0  0  0
    1.0916    1.2084    3.7586 H   0  0  0  0  0  0  0  0  0  0  0  0
   -0.6028    0.9505    4.2186 H   0  0  0  0  0  0  0  0  0  0  0  0
    0.5182   -0.4276    4.1648 H   0  0  0  0  0  0  0  0  0  0  0  0
  1  2  1  0  0  0  0
  2  3  1  0  0  0  0
  2  4  1  0  0  0  0
  2  5  1  0  0  0  0
  5  6  2  0  0  0  0
  5  7  1  0  0  0  0
  7  8  1  0  0  0  0
  7  9  1  0  0  0  0
  9 10  1  0  0  0  0
  9 11  1  0  0  0  0
  9 22  1  0  0  0  0
 11 12  1  0  0  0  0
 11 13  1  0  0  0  0
 11 14  1  0  0  0  0
 14 15  1  0  0  0  0
 14 16  1  0  0  0  0
 14 17  1  0  0  0  0
 17 18  1  0  0  0  0
 18 19  1  0  0  0  0
 18 20  1  0  0  0  0
 18 21  1  0  0  0  0
 22 23  2  0  0  0  0
 22 24  1  0  0  0  0
 24 25  1  0  0  0  0
 24 26  1  0  0  0  0
 26 27  1  0  0  0  0
 26 28  1  0  0  0  0
 26 29  1  0  0  0  0
M  END
$$$$

  -OEChem-04042216023D

 29 28  0     1  0  0  0  0  0999 V2000
   -2.7055   -4.0217    0.6610 H   0  0  0  0  0  0  0  0  0  0  0  0
   -2.6569   -3.0452    0.1705 C   0  0  0  0  0  0  0  0  0  0  0  0
   -3.4507   -2.4106    0.5715 H   0  0  0  0  0  0  0  0  0  0  0  0
   -2.8152   -3.1836   -0.9017 H   0  0  0  0  0  0  0  0  0  0  0  0
   -1.3036   -2.4058    0.4179 C   0  0  0  0  0  0  0  0  0  0  0  0
   -0.4832   -2.9764    1.1124 O   0  0  0  0  0  0  0  0  0  0  0  0
   -1.0093   -1.1817   -0.1512 N   0  0  0  0  0  0  0  0  0  0  0  0
   -1.6972   -0.8086   -0.7986 H   0  0  0  0  0  0  0  0  0  0  0  0
    0.3161   -0.5327   -0.0938 C   0  0  1  0  0  0  0  0  0  0  0  0
    1.0665   -1.1894   -0.5478 H   0  0  0  0  0  0  0  0  0  0  0  0
    0.2042    0.7580   -0.9348 C   0  0  0  0  0  0  0  0  0  0  0  0
    0.1534    0.4671   -1.9888 H   0  0  0  0  0  0  0  0  0  0  0  0
   -0.7342    1.2696   -0.6969 H   0  0  0  0  0  0  0  0  0  0  0  0
    1.3451    1.7734   -0.7331 C   0  0  0  0  0  0  0  0  0  0  0  0
    1.0003    2.6004   -0.1040 H   0  0  0  0  0  0  0  0  0  0  0  0
    2.2066    1.3166   -0.2372 H   0  0  0  0  0  0  0  0  0  0  0  0
    1.9181    2.4101   -2.3591 S   0  0  0  0  0  0  0  0  0  0  0  0
    2.9551    1.0152   -2.9554 C   0  0  0  0  0  0  0  0  0  0  0  0
    2.3533    0.1083   -3.0629 H   0  0  0  0  0  0  0  0  0  0  0  0
    3.3929    1.2613   -3.9274 H   0  0  0  0  0  0  0  0  0  0  0  0
    3.7654    0.8171   -2.2472 H   0  0  0  0  0  0  0  0  0  0  0  0
    0.7813   -0.2544    1.3582 C   0  0  0  0  0  0  0  0  0  0  0  0
    1.9648   -0.3554    1.6549 O   0  0  0  0  0  0  0  0  0  0  0  0
   -0.0995    0.2886    2.2763 N   0  0  0  0  0  0  0  0  0  0  0  0
   -1.0830    0.2395    2.0327 H   0  0  0  0  0  0  0  0  0  0  0  0
    0.2659    0.5314    3.6662 C   0  0  0  0  0  0  0  0  0  0  0  0
    1.1079    1.2292    3.7256 H   0  0  0  0  0  0  0  0  0  0  0  0
   -0.5787    0.9650    4.2099 H   0  0  0  0  0  0  0  0  0  0  0  0
    0.5503   -0.4062    4.1553 H   0  0  0  0  0  0  0  0  0  0  0  0
  1  2  1  0  0  0  0
  2  3  1  0  0  0  0
  2  4  1  0  0  0  0
  2  5  1  0  0  0  0
  5  6  2  0  0  0  0
  5  7  1  0  0  0  0
  7  8  1  0  0  0  0
  7  9  1  0  0  0  0
  9 10  1  0  0  0  0
  9 11  1  0  0  0  0
  9 22  1  0  0  0  0
 11 12  1  0  0  0  0
 11 13  1  0  0  0  0
 11 14  1  0  0  0  0
 14 15  1  0  0  0  0
 14 16  1  0  0  0  0
 14 17  1  0  0  0  0
 17 18  1  0  0  0  0
 18 19  1  0  0  0  0
 18 20  1  0  0  0  0
 18 21  1  0  0  0  0
 22 23  2  0  0  0  0
 22 24  1  0  0  0  0
 24 25  1  0  0  0  0
 24 26  1  0  0  0  0
 26 27  1  0  0  0  0
 26 28  1  0  0  0  0
 26 29  1  0  0  0  0
M  END
$$$$

  -OEChem-04042216023D

 29 28  0     1  0  0  0  0  0999 V2000
   -2.7133   -4.0333    0.6838 H   0  0  0  0  0  0  0  0  0  0  0  0
   -2.6662   -3.0613    0.1842 C   0  0  0  0  0  0  0  0  0  0  0  0
   -3.4557   -2.4213    0.5851 H   0  0  0  0  0  0  0  0  0  0  0  0
   -2.8318   -3.2084   -0.8859 H   0  0  0  0  0  0  0  0  0  0  0  0
   -1.3106   -2.4216    0.4161 C   0  0  0  0  0  0  0  0  0  0  0  0
   -0.4775   -2.9948    1.0932 O   0  0  0  0  0  0  0  0  0  0  0  0
   -1.0276   -1.1937   -0.1499 N   0  0  0  0  0  0  0  0  0  0  0  0
   -1.7287   -0.8134   -0.7785 H   0  0  0  0  0  0  0  0  0  0  0  0
    0.2940   -0.5378   -0.1010 C   0  0  1  0  0  0  0  0  0  0  0  0
    1.0420   -1.1913   -0.5637 H   0  0  0  0  0  0  0  0  0  0  0  0
    0.1772    0.7553   -0.9354 C   0  0  0  0  0  0  0  0  0  0  0  0
    0.1355    0.4690   -1.9907 H   0  0  0  0  0  0  0  0  0  0  0  0
   -0.7596    1.2703   -0.6985 H   0  0  0  0  0  0  0  0  0  0  0  0
    1.3260    1.7533   -0.7187 C   0  0  0  0  0  0  0  0  0  0  0  0
    1.0911    2.4197    0.1179 H   0  0  0  0  0  0  0  0  0  0  0  0
    2.2557    1.2278   -0.4761 H   0  0  0  0  0  0  0  0  0  0  0  0
    1.6071    2.7278   -2.2514 S   0  0  0  0  0  0  0  0  0  0  0  0
    2.6064    1.5644   -3.2636 C   0  0  0  0  0  0  0  0  0  0  0  0
    2.0439    0.6480   -3.4633 H   0  0  0  0  0  0  0  0  0  0  0  0
    2.8679    2.0285   -4.2191 H   0  0  0  0  0  0  0  0  0  0  0  0
    3.5299    1.3029   -2.7380 H   0  0  0  0  0  0  0  0  0  0  0  0
    0.7776   -0.2595    1.3447 C   0  0  0  0  0  0  0  0  0  0  0  0
    1.9696   -0.3267    1.6158 O   0  0  0  0  0  0  0  0  0  0  0  0
   -0.0950    0.2768    2.2747 N   0  0  0  0  0  0  0  0  0  0  0  0
   -1.0818    0.2192    2.0465 H   0  0  0  0  0  0  0  0  0  0  0  0
    0.2915    0.5521    3.6528 C   0  0  0  0  0  0  0  0  0  0  0  0
    1.1226    1.2647    3.6835 H   0  0  0  0  0  0  0  0  0  0  0  0
   -0.5504    0.9827    4.2032 H   0  0  0  0  0  0  0  0  0  0  0  0
    0.6001   -0.3708    4.1553 H   0  0  0  0  0  0  0  0  0  0  0  0
  1  2  1  0  0  0  0
  2  3  1  0  0  0  0
  2  4  1  0  0  0  0
  2  5  1  0  0  0  0
  5  6  2  0  0  0  0
  5  7  1  0  0  0  0
  7  8  1  0  0  0  0
  7  9  1  0  0  0  0
  9 10  1  0  0  0  0
  9 11  1  0  0  0  0
  9 22  1  0  0  0  0
 11 12  1  0  0  0  0
 11 13  1  0  0  0  0
 11 14  1  0  0  0  0
 14 15  1  0  0  0  0
 14 16  1  0  0  0  0
 14 17  1  0  0  0  0
 17 18  1  0  0  0  0
 18 19  1  0  0  0  0
 18 20  1  0  0  0  0
 18 21  1  0  0  0  0
 22 23  2  0  0  0  0
 22 24  1  0  0  0  0
 24 25  1  0  0  0  0
 24 26  1  0  0  0  0
 26 27  1  0  0  0  0
 26 28  1  0  0  0  0
 26 29  1  0  0  0  0
M  END
$$$$

  -OEChem-04042216023D

 29 28  0     1  0  0  0  0  0999 V2000
   -2.7056   -4.0482    0.6824 H   0  0  0  0  0  0  0  0  0  0  0  0
   -2.6626   -3.0756    0.1835 C   0  0  0  0  0  0  0  0  0  0  0  0
   -3.4533   -2.4386    0.5866 H   0  0  0  0  0  0  0  0  0  0  0  0
   -2.8302   -3.2225   -0.8862 H   0  0  0  0  0  0  0  0  0  0  0  0
   -1.3085   -2.4315    0.4125 C   0  0  0  0  0  0  0  0  0  0  0  0
   -0.4712   -3.0033    1.0856 O   0  0  0  0  0  0  0  0  0  0  0  0
   -1.0325   -1.1994   -0.1479 N   0  0  0  0  0  0  0  0  0  0  0  0
   -1.7377   -0.8167   -0.7706 H   0  0  0  0  0  0  0  0  0  0  0  0
    0.2857   -0.5372   -0.0966 C   0  0  1  0  0  0  0  0  0  0  0  0
    1.0346   -1.1899   -0.5593 H   0  0  0  0  0  0  0  0  0  0  0  0
    0.1710    0.7545   -0.9331 C   0  0  0  0  0  0  0  0  0  0  0  0
    0.1342    0.4738   -1.9899 H   0  0  0  0  0  0  0  0  0  0  0  0
   -0.7657    1.2690   -0.6945 H   0  0  0  0  0  0  0  0  0  0  0  0
    1.3186    1.7490   -0.7068 C   0  0  0  0  0  0  0  0  0  0  0  0
    1.2020    2.2459    0.2622 H   0  0  0  0  0  0  0  0  0  0  0  0
    2.2816    1.2268   -0.7012 H   0  0  0  0  0  0  0  0  0  0  0  0
    1.3214    3.0080   -2.0453 S   0  0  0  0  0  0  0  0  0  0  0  0
    2.1689    2.1244   -3.4156 C   0  0  0  0  0  0  0  0  0  0  0  0
    1.6005    1.2383   -3.7112 H   0  0  0  0  0  0  0  0  0  0  0  0
    2.2628    2.7837   -4.2836 H   0  0  0  0  0  0  0  0  0  0  0  0
    3.1703    1.8128   -3.1035 H   0  0  0  0  0  0  0  0  0  0  0  0
    0.7751   -0.2606    1.3467 C   0  0  0  0  0  0  0  0  0  0  0  0
    1.9713   -0.3043    1.6036 O   0  0  0  0  0  0  0  0  0  0  0  0
   -0.0949    0.2689    2.2829 N   0  0  0  0  0  0  0  0  0  0  0  0
   -1.0831    0.2026    2.0636 H   0  0  0  0  0  0  0  0  0  0  0  0
    0.3026    0.5614    3.6544 C   0  0  0  0  0  0  0  0  0  0  0  0
    1.1222    1.2877    3.6704 H   0  0  0  0  0  0  0  0  0  0  0  0
   -0.5400    0.9824    4.2111 H   0  0  0  0  0  0  0  0  0  0  0  0
    0.6321   -0.3525    4.1601 H   0  0  0  0  0  0  0  0  0  0  0  0
  1  2  1  0  0  0  0
  2  3  1  0  0  0  0
  2  4  1  0  0  0  0
  2  5  1  0  0  0  0
  5  6  2  0  0  0  0
  5  7  1  0  0  0  0
  7  8  1  0  0  0  0
  7  9  1  0  0  0  0
  9 10  1  0  0  0  0
  9 11  1  0  0  0  0
  9 22  1  0  0  0  0
 11 12  1  0  0  0  0
 11 13  1  0  0  0  0
 11 14  1  0  0  0  0
 14 15  1  0  0  0  0
 14 16  1  0  0  0  0
 14 17  1  0  0  0  0
 17 18  1  0  0  0  0
 18 19  1  0  0  0  0
 18 20  1  0  0  0  0
 18 21  1  0  0  0  0
 22 23  2  0  0  0  0
 22 24  1  0  0  0  0
 24 25  1  0  0  0  0
 24 26  1  0  0  0  0
 26 27  1  0  0  0  0
 26 28  1  0  0  0  0
 26 29  1  0  0  0  0
M  END
$$$$
