default_name
  -OEChem-01062215323D

 24 23  0     1  0  0  0  0  0999 V2000
   -2.8347   -3.7166    0.8034 H   0  0  0  0  0  0  0  0  0  0  0  0
   -2.7728   -2.7096    0.3954 C   0  0  0  0  0  0  0  0  0  0  0  0
   -3.4267   -2.0426    0.9524 H   0  0  0  0  0  0  0  0  0  0  0  0
   -3.0538   -2.7186   -0.6556 H   0  0  0  0  0  0  0  0  0  0  0  0
   -1.3498   -2.2206    0.5184 C   0  0  0  0  0  0  0  0  0  0  0  0
   -0.4997   -2.9426    1.0194 O   0  0  0  0  0  0  0  0  0  0  0  0
   -1.1198   -0.9926    0.0674 N   0  0  0  0  0  0  0  0  0  0  0  0
   -1.8978   -0.4486   -0.2716 H   0  0  0  0  0  0  0  0  0  0  0  0
    0.1693   -0.2866    0.0854 C   0  0  1  0  0  0  0  0  0  0  0  0
    0.4964   -0.1671    1.1198 H   0  0  0  0  0  0  0  0  0  0  0  0
    1.2237   -1.1320   -0.6615 C   0  0  0  0  0  0  0  0  0  0  0  0
    0.8243   -1.4057   -1.6397 H   0  0  0  0  0  0  0  0  0  0  0  0
    2.1138   -0.5204   -0.8246 H   0  0  0  0  0  0  0  0  0  0  0  0
    1.6252   -2.4301    0.0562 C   0  0  0  0  0  0  0  0  0  0  0  0
    1.5635   -2.4663    1.3078 O   0  5  0  0  0  0  0  0  0  0  0  0
    2.0127   -3.3780   -0.6603 O   0  0  0  0  0  0  0  0  0  0  0  0
    0.0024    1.1202   -0.5344 C   0  0  0  0  0  0  0  0  0  0  0  0
   -1.1029    1.4995   -0.9393 O   0  0  0  0  0  0  0  0  0  0  0  0
    1.0819    1.9058   -0.5994 N   0  0  0  0  0  0  0  0  0  0  0  0
    1.9644    1.4725   -0.3211 H   0  0  0  0  0  0  0  0  0  0  0  0
    1.1112    3.2505   -1.1648 C   0  0  0  0  0  0  0  0  0  0  0  0
    0.2475    3.8164   -0.8131 H   0  0  0  0  0  0  0  0  0  0  0  0
    2.0282    3.7548   -0.8614 H   0  0  0  0  0  0  0  0  0  0  0  0
    1.0758    3.1839   -2.2524 H   0  0  0  0  0  0  0  0  0  0  0  0
  5  6  2  0  0  0  0
  5  7  1  0  0  0  0
  2  3  1  0  0  0  0
  2  4  1  0  0  0  0
  2  5  1  0  0  0  0
  1  2  1  0  0  0  0
 17 18  2  0  0  0  0
 17 19  1  0  0  0  0
 14 15  1  0  0  0  0
 14 16  2  0  0  0  0
 11 12  1  0  0  0  0
 11 13  1  0  0  0  0
 11 14  1  0  0  0  0
  9 10  1  0  0  0  0
  9 11  1  0  0  0  0
  9 17  1  0  0  0  0
  7  8  1  0  0  0  0
  7  9  1  0  0  0  0
 21 22  1  0  0  0  0
 21 23  1  0  0  0  0
 21 24  1  0  0  0  0
 19 20  1  0  0  0  0
 19 21  1  0  0  0  0
M  CHG  1  15  -1
M  END
$$$$
default_name
  -OEChem-01062215323D

 24 23  0     1  0  0  0  0  0999 V2000
   -2.8347   -3.7166    0.8034 H   0  0  0  0  0  0  0  0  0  0  0  0
   -2.7728   -2.7096    0.3954 C   0  0  0  0  0  0  0  0  0  0  0  0
   -3.4267   -2.0426    0.9524 H   0  0  0  0  0  0  0  0  0  0  0  0
   -3.0538   -2.7186   -0.6556 H   0  0  0  0  0  0  0  0  0  0  0  0
   -1.3498   -2.2206    0.5184 C   0  0  0  0  0  0  0  0  0  0  0  0
   -0.4997   -2.9426    1.0194 O   0  0  0  0  0  0  0  0  0  0  0  0
   -1.1198   -0.9926    0.0674 N   0  0  0  0  0  0  0  0  0  0  0  0
   -1.8978   -0.4486   -0.2716 H   0  0  0  0  0  0  0  0  0  0  0  0
    0.1693   -0.2866    0.0854 C   0  0  1  0  0  0  0  0  0  0  0  0
    0.4964   -0.1671    1.1198 H   0  0  0  0  0  0  0  0  0  0  0  0
    1.2237   -1.1320   -0.6615 C   0  0  0  0  0  0  0  0  0  0  0  0
    0.8243   -1.4057   -1.6397 H   0  0  0  0  0  0  0  0  0  0  0  0
    2.1138   -0.5204   -0.8246 H   0  0  0  0  0  0  0  0  0  0  0  0
    1.6252   -2.4301    0.0562 C   0  0  0  0  0  0  0  0  0  0  0  0
    1.5635   -2.4663    1.3078 O   0  5  0  0  0  0  0  0  0  0  0  0
    2.0127   -3.3780   -0.6603 O   0  0  0  0  0  0  0  0  0  0  0  0
    0.0024    1.1202   -0.5344 C   0  0  0  0  0  0  0  0  0  0  0  0
   -1.1235    1.6094   -0.6844 O   0  0  0  0  0  0  0  0  0  0  0  0
    1.1090    1.7846   -0.8819 N   0  0  0  0  0  0  0  0  0  0  0  0
    1.9842    1.2636   -0.8005 H   0  0  0  0  0  0  0  0  0  0  0  0
    1.1383    3.1095   -1.4922 C   0  0  0  0  0  0  0  0  0  0  0  0
    0.4439    3.7700   -0.9713 H   0  0  0  0  0  0  0  0  0  0  0  0
    2.1470    3.5174   -1.4323 H   0  0  0  0  0  0  0  0  0  0  0  0
    0.8398    3.0302   -2.5377 H   0  0  0  0  0  0  0  0  0  0  0  0
  5  6  2  0  0  0  0
  5  7  1  0  0  0  0
  2  3  1  0  0  0  0
  2  4  1  0  0  0  0
  2  5  1  0  0  0  0
  1  2  1  0  0  0  0
 17 18  2  0  0  0  0
 17 19  1  0  0  0  0
 14 15  1  0  0  0  0
 14 16  2  0  0  0  0
 11 12  1  0  0  0  0
 11 13  1  0  0  0  0
 11 14  1  0  0  0  0
  9 10  1  0  0  0  0
  9 11  1  0  0  0  0
  9 17  1  0  0  0  0
  7  8  1  0  0  0  0
  7  9  1  0  0  0  0
 21 22  1  0  0  0  0
 21 23  1  0  0  0  0
 21 24  1  0  0  0  0
 19 20  1  0  0  0  0
 19 21  1  0  0  0  0
M  CHG  1  15  -1
M  END
$$$$
default_name
  -OEChem-01062215323D

 24 23  0     1  0  0  0  0  0999 V2000
   -2.8347   -3.7166    0.8034 H   0  0  0  0  0  0  0  0  0  0  0  0
   -2.7728   -2.7096    0.3954 C   0  0  0  0  0  0  0  0  0  0  0  0
   -3.4267   -2.0426    0.9524 H   0  0  0  0  0  0  0  0  0  0  0  0
   -3.0538   -2.7186   -0.6556 H   0  0  0  0  0  0  0  0  0  0  0  0
   -1.3498   -2.2206    0.5184 C   0  0  0  0  0  0  0  0  0  0  0  0
   -0.4997   -2.9426    1.0194 O   0  0  0  0  0  0  0  0  0  0  0  0
   -1.1198   -0.9926    0.0674 N   0  0  0  0  0  0  0  0  0  0  0  0
   -1.8978   -0.4486   -0.2716 H   0  0  0  0  0  0  0  0  0  0  0  0
    0.1693   -0.2866    0.0854 C   0  0  1  0  0  0  0  0  0  0  0  0
    0.4964   -0.1671    1.1198 H   0  0  0  0  0  0  0  0  0  0  0  0
    1.2237   -1.1320   -0.6615 C   0  0  0  0  0  0  0  0  0  0  0  0
    0.8243   -1.4057   -1.6397 H   0  0  0  0  0  0  0  0  0  0  0  0
    2.1138   -0.5204   -0.8246 H   0  0  0  0  0  0  0  0  0  0  0  0
    1.6252   -2.4301    0.0562 C   0  0  0  0  0  0  0  0  0  0  0  0
    1.5635   -2.4663    1.3078 O   0  5  0  0  0  0  0  0  0  0  0  0
    2.0127   -3.3780   -0.6603 O   0  0  0  0  0  0  0  0  0  0  0  0
    0.0024    1.1202   -0.5344 C   0  0  0  0  0  0  0  0  0  0  0  0
   -1.0720    1.7247   -0.4364 O   0  0  0  0  0  0  0  0  0  0  0  0
    1.0561    1.6568   -1.1577 N   0  0  0  0  0  0  0  0  0  0  0  0
    1.8688    1.0464   -1.2624 H   0  0  0  0  0  0  0  0  0  0  0  0
    1.0729    2.9614   -1.8108 C   0  0  0  0  0  0  0  0  0  0  0  0
    0.5915    3.7004   -1.1690 H   0  0  0  0  0  0  0  0  0  0  0  0
    2.1027    3.2597   -2.0052 H   0  0  0  0  0  0  0  0  0  0  0  0
    0.5287    2.8983   -2.7534 H   0  0  0  0  0  0  0  0  0  0  0  0
  5  6  2  0  0  0  0
  5  7  1  0  0  0  0
  2  3  1  0  0  0  0
  2  4  1  0  0  0  0
  2  5  1  0  0  0  0
  1  2  1  0  0  0  0
 17 18  2  0  0  0  0
 17 19  1  0  0  0  0
 14 15  1  0  0  0  0
 14 16  2  0  0  0  0
 11 12  1  0  0  0  0
 11 13  1  0  0  0  0
 11 14  1  0  0  0  0
  9 10  1  0  0  0  0
  9 11  1  0  0  0  0
  9 17  1  0  0  0  0
  7  8  1  0  0  0  0
  7  9  1  0  0  0  0
 21 22  1  0  0  0  0
 21 23  1  0  0  0  0
 21 24  1  0  0  0  0
 19 20  1  0  0  0  0
 19 21  1  0  0  0  0
M  CHG  1  15  -1
M  END
$$$$
default_name
  -OEChem-01062215323D

 24 23  0     1  0  0  0  0  0999 V2000
   -2.8347   -3.7166    0.8034 H   0  0  0  0  0  0  0  0  0  0  0  0
   -2.7728   -2.7096    0.3954 C   0  0  0  0  0  0  0  0  0  0  0  0
   -3.4267   -2.0426    0.9524 H   0  0  0  0  0  0  0  0  0  0  0  0
   -3.0538   -2.7186   -0.6556 H   0  0  0  0  0  0  0  0  0  0  0  0
   -1.3498   -2.2206    0.5184 C   0  0  0  0  0  0  0  0  0  0  0  0
   -0.4997   -2.9426    1.0194 O   0  0  0  0  0  0  0  0  0  0  0  0
   -1.1198   -0.9926    0.0674 N   0  0  0  0  0  0  0  0  0  0  0  0
   -1.8978   -0.4486   -0.2716 H   0  0  0  0  0  0  0  0  0  0  0  0
    0.1693   -0.2866    0.0854 C   0  0  1  0  0  0  0  0  0  0  0  0
    0.4964   -0.1671    1.1198 H   0  0  0  0  0  0  0  0  0  0  0  0
    1.2237   -1.1320   -0.6615 C   0  0  0  0  0  0  0  0  0  0  0  0
    0.8243   -1.4057   -1.6397 H   0  0  0  0  0  0  0  0  0  0  0  0
    2.1138   -0.5204   -0.8246 H   0  0  0  0  0  0  0  0  0  0  0  0
    1.6252   -2.4301    0.0562 C   0  0  0  0  0  0  0  0  0  0  0  0
    1.5635   -2.4663    1.3078 O   0  5  0  0  0  0  0  0  0  0  0  0
    2.0127   -3.3780   -0.6603 O   0  0  0  0  0  0  0  0  0  0  0  0
    0.0024    1.1202   -0.5344 C   0  0  0  0  0  0  0  0  0  0  0  0
   -0.9519    1.8378   -0.2122 O   0  0  0  0  0  0  0  0  0  0  0  0
    0.9269    1.5312   -1.4081 N   0  0  0  0  0  0  0  0  0  0  0  0
    1.6261    0.8357   -1.6753 H   0  0  0  0  0  0  0  0  0  0  0  0
    0.9192    2.8161   -2.0991 C   0  0  0  0  0  0  0  0  0  0  0  0
    0.6804    3.6123   -1.3928 H   0  0  0  0  0  0  0  0  0  0  0  0
    1.8983    2.9994   -2.5409 H   0  0  0  0  0  0  0  0  0  0  0  0
    0.1637    2.7971   -2.8848 H   0  0  0  0  0  0  0  0  0  0  0  0
  5  6  2  0  0  0  0
  5  7  1  0  0  0  0
  2  3  1  0  0  0  0
  2  4  1  0  0  0  0
  2  5  1  0  0  0  0
  1  2  1  0  0  0  0
 17 18  2  0  0  0  0
 17 19  1  0  0  0  0
 14 15  1  0  0  0  0
 14 16  2  0  0  0  0
 11 12  1  0  0  0  0
 11 13  1  0  0  0  0
 11 14  1  0  0  0  0
  9 10  1  0  0  0  0
  9 11  1  0  0  0  0
  9 17  1  0  0  0  0
  7  8  1  0  0  0  0
  7  9  1  0  0  0  0
 21 22  1  0  0  0  0
 21 23  1  0  0  0  0
 21 24  1  0  0  0  0
 19 20  1  0  0  0  0
 19 21  1  0  0  0  0
M  CHG  1  15  -1
M  END
$$$$
default_name
  -OEChem-01062215323D

 24 23  0     1  0  0  0  0  0999 V2000
   -2.8347   -3.7166    0.8034 H   0  0  0  0  0  0  0  0  0  0  0  0
   -2.7728   -2.7096    0.3954 C   0  0  0  0  0  0  0  0  0  0  0  0
   -3.4267   -2.0426    0.9524 H   0  0  0  0  0  0  0  0  0  0  0  0
   -3.0538   -2.7186   -0.6556 H   0  0  0  0  0  0  0  0  0  0  0  0
   -1.3498   -2.2206    0.5184 C   0  0  0  0  0  0  0  0  0  0  0  0
   -0.4997   -2.9426    1.0194 O   0  0  0  0  0  0  0  0  0  0  0  0
   -1.1198   -0.9926    0.0674 N   0  0  0  0  0  0  0  0  0  0  0  0
   -1.8978   -0.4486   -0.2716 H   0  0  0  0  0  0  0  0  0  0  0  0
    0.1693   -0.2866    0.0854 C   0  0  1  0  0  0  0  0  0  0  0  0
    0.4964   -0.1671    1.1198 H   0  0  0  0  0  0  0  0  0  0  0  0
    1.2237   -1.1320   -0.6615 C   0  0  0  0  0  0  0  0  0  0  0  0
    0.8243   -1.4057   -1.6397 H   0  0  0  0  0  0  0  0  0  0  0  0
    2.1138   -0.5204   -0.8246 H   0  0  0  0  0  0  0  0  0  0  0  0
    1.6252   -2.4301    0.0562 C   0  0  0  0  0  0  0  0  0  0  0  0
    1.5635   -2.4663    1.3078 O   0  5  0  0  0  0  0  0  0  0  0  0
    2.0127   -3.3780   -0.6603 O   0  0  0  0  0  0  0  0  0  0  0  0
    0.0024    1.1202   -0.5344 C   0  0  0  0  0  0  0  0  0  0  0  0
   -0.7714    1.9407   -0.0270 O   0  0  0  0  0  0  0  0  0  0  0  0
    0.7300    1.4162   -1.6160 N   0  0  0  0  0  0  0  0  0  0  0  0
    1.2725    0.6458   -2.0111 H   0  0  0  0  0  0  0  0  0  0  0  0
    0.6879    2.6837   -2.3373 C   0  0  0  0  0  0  0  0  0  0  0  0
    0.7044    3.5118   -1.6275 H   0  0  0  0  0  0  0  0  0  0  0  0
    1.5477    2.7543   -3.0030 H   0  0  0  0  0  0  0  0  0  0  0  0
   -0.2302    2.7335   -2.9230 H   0  0  0  0  0  0  0  0  0  0  0  0
  5  6  2  0  0  0  0
  5  7  1  0  0  0  0
  2  3  1  0  0  0  0
  2  4  1  0  0  0  0
  2  5  1  0  0  0  0
  1  2  1  0  0  0  0
 17 18  2  0  0  0  0
 17 19  1  0  0  0  0
 14 15  1  0  0  0  0
 14 16  2  0  0  0  0
 11 12  1  0  0  0  0
 11 13  1  0  0  0  0
 11 14  1  0  0  0  0
  9 10  1  0  0  0  0
  9 11  1  0  0  0  0
  9 17  1  0  0  0  0
  7  8  1  0  0  0  0
  7  9  1  0  0  0  0
 21 22  1  0  0  0  0
 21 23  1  0  0  0  0
 21 24  1  0  0  0  0
 19 20  1  0  0  0  0
 19 21  1  0  0  0  0
M  CHG  1  15  -1
M  END
$$$$
default_name
  -OEChem-01062215323D

 24 23  0     1  0  0  0  0  0999 V2000
   -2.8347   -3.7166    0.8034 H   0  0  0  0  0  0  0  0  0  0  0  0
   -2.7728   -2.7096    0.3954 C   0  0  0  0  0  0  0  0  0  0  0  0
   -3.4267   -2.0426    0.9524 H   0  0  0  0  0  0  0  0  0  0  0  0
   -3.0538   -2.7186   -0.6556 H   0  0  0  0  0  0  0  0  0  0  0  0
   -1.3498   -2.2206    0.5184 C   0  0  0  0  0  0  0  0  0  0  0  0
   -0.4997   -2.9426    1.0194 O   0  0  0  0  0  0  0  0  0  0  0  0
   -1.1198   -0.9926    0.0674 N   0  0  0  0  0  0  0  0  0  0  0  0
   -1.8978   -0.4486   -0.2716 H   0  0  0  0  0  0  0  0  0  0  0  0
    0.1693   -0.2866    0.0854 C   0  0  1  0  0  0  0  0  0  0  0  0
    0.4964   -0.1671    1.1198 H   0  0  0  0  0  0  0  0  0  0  0  0
    1.2237   -1.1320   -0.6615 C   0  0  0  0  0  0  0  0  0  0  0  0
    0.8243   -1.4057   -1.6397 H   0  0  0  0  0  0  0  0  0  0  0  0
    2.1138   -0.5204   -0.8246 H   0  0  0  0  0  0  0  0  0  0  0  0
    1.6252   -2.4301    0.0562 C   0  0  0  0  0  0  0  0  0  0  0  0
    1.5635   -2.4663    1.3078 O   0  5  0  0  0  0  0  0  0  0  0  0
    2.0127   -3.3780   -0.6603 O   0  0  0  0  0  0  0  0  0  0  0  0
    0.0024    1.1202   -0.5344 C   0  0  0  0  0  0  0  0  0  0  0  0
   -0.5427    2.0267    0.1064 O   0  0  0  0  0  0  0  0  0  0  0  0
    0.4789    1.3198   -1.7672 N   0  0  0  0  0  0  0  0  0  0  0  0
    0.8322    0.4897   -2.2470 H   0  0  0  0  0  0  0  0  0  0  0  0
    0.3946    2.5732   -2.5092 C   0  0  0  0  0  0  0  0  0  0  0  0
    0.6619    3.4056   -1.8569 H   0  0  0  0  0  0  0  0  0  0  0  0
    1.0748    2.5410   -3.3599 H   0  0  0  0  0  0  0  0  0  0  0  0
   -0.6264    2.7120   -2.8654 H   0  0  0  0  0  0  0  0  0  0  0  0
  5  6  2  0  0  0  0
  5  7  1  0  0  0  0
  2  3  1  0  0  0  0
  2  4  1  0  0  0  0
  2  5  1  0  0  0  0
  1  2  1  0  0  0  0
 17 18  2  0  0  0  0
 17 19  1  0  0  0  0
 14 15  1  0  0  0  0
 14 16  2  0  0  0  0
 11 12  1  0  0  0  0
 11 13  1  0  0  0  0
 11 14  1  0  0  0  0
  9 10  1  0  0  0  0
  9 11  1  0  0  0  0
  9 17  1  0  0  0  0
  7  8  1  0  0  0  0
  7  9  1  0  0  0  0
 21 22  1  0  0  0  0
 21 23  1  0  0  0  0
 21 24  1  0  0  0  0
 19 20  1  0  0  0  0
 19 21  1  0  0  0  0
M  CHG  1  15  -1
M  END
$$$$
default_name
  -OEChem-01062215323D

 24 23  0     1  0  0  0  0  0999 V2000
   -2.8347   -3.7166    0.8034 H   0  0  0  0  0  0  0  0  0  0  0  0
   -2.7728   -2.7096    0.3954 C   0  0  0  0  0  0  0  0  0  0  0  0
   -3.4267   -2.0426    0.9524 H   0  0  0  0  0  0  0  0  0  0  0  0
   -3.0538   -2.7186   -0.6556 H   0  0  0  0  0  0  0  0  0  0  0  0
   -1.3498   -2.2206    0.5184 C   0  0  0  0  0  0  0  0  0  0  0  0
   -0.4997   -2.9426    1.0194 O   0  0  0  0  0  0  0  0  0  0  0  0
   -1.1198   -0.9926    0.0674 N   0  0  0  0  0  0  0  0  0  0  0  0
   -1.8978   -0.4486   -0.2716 H   0  0  0  0  0  0  0  0  0  0  0  0
    0.1693   -0.2866    0.0854 C   0  0  1  0  0  0  0  0  0  0  0  0
    0.4964   -0.1671    1.1198 H   0  0  0  0  0  0  0  0  0  0  0  0
    1.2237   -1.1320   -0.6615 C   0  0  0  0  0  0  0  0  0  0  0  0
    0.8243   -1.4057   -1.6397 H   0  0  0  0  0  0  0  0  0  0  0  0
    2.1138   -0.5204   -0.8246 H   0  0  0  0  0  0  0  0  0  0  0  0
    1.6252   -2.4301    0.0562 C   0  0  0  0  0  0  0  0  0  0  0  0
    1.5635   -2.4663    1.3078 O   0  5  0  0  0  0  0  0  0  0  0  0
    2.0127   -3.3780   -0.6603 O   0  0  0  0  0  0  0  0  0  0  0  0
    0.0024    1.1202   -0.5344 C   0  0  0  0  0  0  0  0  0  0  0  0
   -0.2815    2.0896    0.1791 O   0  0  0  0  0  0  0  0  0  0  0  0
    0.1908    1.2485   -1.8515 N   0  0  0  0  0  0  0  0  0  0  0  0
    0.3352    0.3780   -2.3667 H   0  0  0  0  0  0  0  0  0  0  0  0
    0.0594    2.4921   -2.6032 C   0  0  0  0  0  0  0  0  0  0  0  0
    0.5557    3.3011   -2.0656 H   0  0  0  0  0  0  0  0  0  0  0  0
    0.5119    2.3740   -3.5874 H   0  0  0  0  0  0  0  0  0  0  0  0
   -0.9977    2.7338   -2.7158 H   0  0  0  0  0  0  0  0  0  0  0  0
  5  6  2  0  0  0  0
  5  7  1  0  0  0  0
  2  3  1  0  0  0  0
  2  4  1  0  0  0  0
  2  5  1  0  0  0  0
  1  2  1  0  0  0  0
 17 18  2  0  0  0  0
 17 19  1  0  0  0  0
 14 15  1  0  0  0  0
 14 16  2  0  0  0  0
 11 12  1  0  0  0  0
 11 13  1  0  0  0  0
 11 14  1  0  0  0  0
  9 10  1  0  0  0  0
  9 11  1  0  0  0  0
  9 17  1  0  0  0  0
  7  8  1  0  0  0  0
  7  9  1  0  0  0  0
 21 22  1  0  0  0  0
 21 23  1  0  0  0  0
 21 24  1  0  0  0  0
 19 20  1  0  0  0  0
 19 21  1  0  0  0  0
M  CHG  1  15  -1
M  END
$$$$
default_name
  -OEChem-01062215323D

 24 23  0     1  0  0  0  0  0999 V2000
   -2.8347   -3.7166    0.8034 H   0  0  0  0  0  0  0  0  0  0  0  0
   -2.7728   -2.7096    0.3954 C   0  0  0  0  0  0  0  0  0  0  0  0
   -3.4267   -2.0426    0.9524 H   0  0  0  0  0  0  0  0  0  0  0  0
   -3.0538   -2.7186   -0.6556 H   0  0  0  0  0  0  0  0  0  0  0  0
   -1.3498   -2.2206    0.5184 C   0  0  0  0  0  0  0  0  0  0  0  0
   -0.4997   -2.9426    1.0194 O   0  0  0  0  0  0  0  0  0  0  0  0
   -1.1198   -0.9926    0.0674 N   0  0  0  0  0  0  0  0  0  0  0  0
   -1.8978   -0.4486   -0.2716 H   0  0  0  0  0  0  0  0  0  0  0  0
    0.1693   -0.2866    0.0854 C   0  0  1  0  0  0  0  0  0  0  0  0
    0.4964   -0.1671    1.1198 H   0  0  0  0  0  0  0  0  0  0  0  0
    1.2237   -1.1320   -0.6615 C   0  0  0  0  0  0  0  0  0  0  0  0
    0.8243   -1.4057   -1.6397 H   0  0  0  0  0  0  0  0  0  0  0  0
    2.1138   -0.5204   -0.8246 H   0  0  0  0  0  0  0  0  0  0  0  0
    1.6252   -2.4301    0.0562 C   0  0  0  0  0  0  0  0  0  0  0  0
    1.5635   -2.4663    1.3078 O   0  5  0  0  0  0  0  0  0  0  0  0
    2.0127   -3.3780   -0.6603 O   0  0  0  0  0  0  0  0  0  0  0  0
    0.0024    1.1202   -0.5344 C   0  0  0  0  0  0  0  0  0  0  0  0
   -0.0056    2.1254    0.1860 O   0  0  0  0  0  0  0  0  0  0  0  0
   -0.1147    1.2071   -1.8631 N   0  0  0  0  0  0  0  0  0  0  0  0
   -0.1847    0.3183   -2.3622 H   0  0  0  0  0  0  0  0  0  0  0  0
   -0.2950    2.4459   -2.6127 C   0  0  0  0  0  0  0  0  0  0  0  0
    0.3933    3.2053   -2.2393 H   0  0  0  0  0  0  0  0  0  0  0  0
   -0.1028    2.2648   -3.6699 H   0  0  0  0  0  0  0  0  0  0  0  0
   -1.3189    2.7976   -2.4845 H   0  0  0  0  0  0  0  0  0  0  0  0
  5  6  2  0  0  0  0
  5  7  1  0  0  0  0
  2  3  1  0  0  0  0
  2  4  1  0  0  0  0
  2  5  1  0  0  0  0
  1  2  1  0  0  0  0
 17 18  2  0  0  0  0
 17 19  1  0  0  0  0
 14 15  1  0  0  0  0
 14 16  2  0  0  0  0
 11 12  1  0  0  0  0
 11 13  1  0  0  0  0
 11 14  1  0  0  0  0
  9 10  1  0  0  0  0
  9 11  1  0  0  0  0
  9 17  1  0  0  0  0
  7  8  1  0  0  0  0
  7  9  1  0  0  0  0
 21 22  1  0  0  0  0
 21 23  1  0  0  0  0
 21 24  1  0  0  0  0
 19 20  1  0  0  0  0
 19 21  1  0  0  0  0
M  CHG  1  15  -1
M  END
$$$$
default_name
  -OEChem-01062215323D

 24 23  0     1  0  0  0  0  0999 V2000
   -2.8347   -3.7166    0.8034 H   0  0  0  0  0  0  0  0  0  0  0  0
   -2.7728   -2.7096    0.3954 C   0  0  0  0  0  0  0  0  0  0  0  0
   -3.4267   -2.0426    0.9524 H   0  0  0  0  0  0  0  0  0  0  0  0
   -3.0538   -2.7186   -0.6556 H   0  0  0  0  0  0  0  0  0  0  0  0
   -1.3498   -2.2206    0.5184 C   0  0  0  0  0  0  0  0  0  0  0  0
   -0.4997   -2.9426    1.0194 O   0  0  0  0  0  0  0  0  0  0  0  0
   -1.1198   -0.9926    0.0674 N   0  0  0  0  0  0  0  0  0  0  0  0
   -1.8978   -0.4486   -0.2716 H   0  0  0  0  0  0  0  0  0  0  0  0
    0.1693   -0.2866    0.0854 C   0  0  1  0  0  0  0  0  0  0  0  0
    0.4964   -0.1671    1.1198 H   0  0  0  0  0  0  0  0  0  0  0  0
    1.2237   -1.1320   -0.6615 C   0  0  0  0  0  0  0  0  0  0  0  0
    0.8243   -1.4057   -1.6397 H   0  0  0  0  0  0  0  0  0  0  0  0
    2.1138   -0.5204   -0.8246 H   0  0  0  0  0  0  0  0  0  0  0  0
    1.6252   -2.4301    0.0562 C   0  0  0  0  0  0  0  0  0  0  0  0
    1.5635   -2.4663    1.3078 O   0  5  0  0  0  0  0  0  0  0  0  0
    2.0127   -3.3780   -0.6603 O   0  0  0  0  0  0  0  0  0  0  0  0
    0.0024    1.1202   -0.5344 C   0  0  0  0  0  0  0  0  0  0  0  0
    0.2663    2.1315    0.1267 O   0  0  0  0  0  0  0  0  0  0  0  0
   -0.4169    1.1986   -1.8012 N   0  0  0  0  0  0  0  0  0  0  0  0
   -0.6920    0.3147   -2.2338 H   0  0  0  0  0  0  0  0  0  0  0  0
   -0.6443    2.4377   -2.5371 C   0  0  0  0  0  0  0  0  0  0  0  0
    0.1855    3.1248   -2.3661 H   0  0  0  0  0  0  0  0  0  0  0  0
   -0.7272    2.2207   -3.6017 H   0  0  0  0  0  0  0  0  0  0  0  0
   -1.5680    2.8991   -2.1872 H   0  0  0  0  0  0  0  0  0  0  0  0
  5  6  2  0  0  0  0
  5  7  1  0  0  0  0
  2  3  1  0  0  0  0
  2  4  1  0  0  0  0
  2  5  1  0  0  0  0
  1  2  1  0  0  0  0
 17 18  2  0  0  0  0
 17 19  1  0  0  0  0
 14 15  1  0  0  0  0
 14 16  2  0  0  0  0
 11 12  1  0  0  0  0
 11 13  1  0  0  0  0
 11 14  1  0  0  0  0
  9 10  1  0  0  0  0
  9 11  1  0  0  0  0
  9 17  1  0  0  0  0
  7  8  1  0  0  0  0
  7  9  1  0  0  0  0
 21 22  1  0  0  0  0
 21 23  1  0  0  0  0
 21 24  1  0  0  0  0
 19 20  1  0  0  0  0
 19 21  1  0  0  0  0
M  CHG  1  15  -1
M  END
$$$$
default_name
  -OEChem-01062215323D

 24 23  0     1  0  0  0  0  0999 V2000
   -2.8347   -3.7166    0.8034 H   0  0  0  0  0  0  0  0  0  0  0  0
   -2.7728   -2.7096    0.3954 C   0  0  0  0  0  0  0  0  0  0  0  0
   -3.4267   -2.0426    0.9524 H   0  0  0  0  0  0  0  0  0  0  0  0
   -3.0538   -2.7186   -0.6556 H   0  0  0  0  0  0  0  0  0  0  0  0
   -1.3498   -2.2206    0.5184 C   0  0  0  0  0  0  0  0  0  0  0  0
   -0.4997   -2.9426    1.0194 O   0  0  0  0  0  0  0  0  0  0  0  0
   -1.1198   -0.9926    0.0674 N   0  0  0  0  0  0  0  0  0  0  0  0
   -1.8978   -0.4486   -0.2716 H   0  0  0  0  0  0  0  0  0  0  0  0
    0.1693   -0.2866    0.0854 C   0  0  1  0  0  0  0  0  0  0  0  0
    0.4964   -0.1671    1.1198 H   0  0  0  0  0  0  0  0  0  0  0  0
    1.2237   -1.1320   -0.6615 C   0  0  0  0  0  0  0  0  0  0  0  0
    0.8243   -1.4057   -1.6397 H   0  0  0  0  0  0  0  0  0  0  0  0
    2.1138   -0.5204   -0.8246 H   0  0  0  0  0  0  0  0  0  0  0  0
    1.6252   -2.4301    0.0562 C   0  0  0  0  0  0  0  0  0  0  0  0
    1.5635   -2.4663    1.3078 O   0  5  0  0  0  0  0  0  0  0  0  0
    2.0127   -3.3780   -0.6603 O   0  0  0  0  0  0  0  0  0  0  0  0
    0.0024    1.1202   -0.5344 C   0  0  0  0  0  0  0  0  0  0  0  0
    0.5156    2.1076    0.0052 O   0  0  0  0  0  0  0  0  0  0  0  0
   -0.6951    1.2234   -1.6700 N   0  0  0  0  0  0  0  0  0  0  0  0
   -1.1521    0.3675   -1.9902 H   0  0  0  0  0  0  0  0  0  0  0  0
   -0.9648    2.4682   -2.3817 C   0  0  0  0  0  0  0  0  0  0  0  0
   -0.0534    3.0650   -2.4375 H   0  0  0  0  0  0  0  0  0  0  0  0
   -1.3189    2.2449   -3.3877 H   0  0  0  0  0  0  0  0  0  0  0  0
   -1.7281    3.0312   -1.8443 H   0  0  0  0  0  0  0  0  0  0  0  0
  5  6  2  0  0  0  0
  5  7  1  0  0  0  0
  2  3  1  0  0  0  0
  2  4  1  0  0  0  0
  2  5  1  0  0  0  0
  1  2  1  0  0  0  0
 17 18  2  0  0  0  0
 17 19  1  0  0  0  0
 14 15  1  0  0  0  0
 14 16  2  0  0  0  0
 11 12  1  0  0  0  0
 11 13  1  0  0  0  0
 11 14  1  0  0  0  0
  9 10  1  0  0  0  0
  9 11  1  0  0  0  0
  9 17  1  0  0  0  0
  7  8  1  0  0  0  0
  7  9  1  0  0  0  0
 21 22  1  0  0  0  0
 21 23  1  0  0  0  0
 21 24  1  0  0  0  0
 19 20  1  0  0  0  0
 19 21  1  0  0  0  0
M  CHG  1  15  -1
M  END
$$$$
default_name
  -OEChem-01062215323D

 24 23  0     1  0  0  0  0  0999 V2000
   -2.8347   -3.7166    0.8034 H   0  0  0  0  0  0  0  0  0  0  0  0
   -2.7728   -2.7096    0.3954 C   0  0  0  0  0  0  0  0  0  0  0  0
   -3.4267   -2.0426    0.9524 H   0  0  0  0  0  0  0  0  0  0  0  0
   -3.0538   -2.7186   -0.6556 H   0  0  0  0  0  0  0  0  0  0  0  0
   -1.3498   -2.2206    0.5184 C   0  0  0  0  0  0  0  0  0  0  0  0
   -0.4997   -2.9426    1.0194 O   0  0  0  0  0  0  0  0  0  0  0  0
   -1.1198   -0.9926    0.0674 N   0  0  0  0  0  0  0  0  0  0  0  0
   -1.8978   -0.4486   -0.2716 H   0  0  0  0  0  0  0  0  0  0  0  0
    0.1693   -0.2866    0.0854 C   0  0  1  0  0  0  0  0  0  0  0  0
    0.4964   -0.1671    1.1198 H   0  0  0  0  0  0  0  0  0  0  0  0
    1.2237   -1.1320   -0.6615 C   0  0  0  0  0  0  0  0  0  0  0  0
    0.8243   -1.4057   -1.6397 H   0  0  0  0  0  0  0  0  0  0  0  0
    2.1138   -0.5204   -0.8246 H   0  0  0  0  0  0  0  0  0  0  0  0
    1.6252   -2.4301    0.0562 C   0  0  0  0  0  0  0  0  0  0  0  0
    1.5635   -2.4663    1.3078 O   0  5  0  0  0  0  0  0  0  0  0  0
    2.0127   -3.3780   -0.6603 O   0  0  0  0  0  0  0  0  0  0  0  0
    0.0024    1.1202   -0.5344 C   0  0  0  0  0  0  0  0  0  0  0  0
    0.7253    2.0552   -0.1701 O   0  0  0  0  0  0  0  0  0  0  0  0
   -0.9303    1.2799   -1.4785 N   0  0  0  0  0  0  0  0  0  0  0  0
   -1.5337    0.4730   -1.6481 H   0  0  0  0  0  0  0  0  0  0  0  0
   -1.2345    2.5352   -2.1569 C   0  0  0  0  0  0  0  0  0  0  0  0
   -0.3072    3.0301   -2.4485 H   0  0  0  0  0  0  0  0  0  0  0  0
   -1.8376    2.3355   -3.0423 H   0  0  0  0  0  0  0  0  0  0  0  0
   -1.7883    3.1850   -1.4790 H   0  0  0  0  0  0  0  0  0  0  0  0
  5  6  2  0  0  0  0
  5  7  1  0  0  0  0
  2  3  1  0  0  0  0
  2  4  1  0  0  0  0
  2  5  1  0  0  0  0
  1  2  1  0  0  0  0
 17 18  2  0  0  0  0
 17 19  1  0  0  0  0
 14 15  1  0  0  0  0
 14 16  2  0  0  0  0
 11 12  1  0  0  0  0
 11 13  1  0  0  0  0
 11 14  1  0  0  0  0
  9 10  1  0  0  0  0
  9 11  1  0  0  0  0
  9 17  1  0  0  0  0
  7  8  1  0  0  0  0
  7  9  1  0  0  0  0
 21 22  1  0  0  0  0
 21 23  1  0  0  0  0
 21 24  1  0  0  0  0
 19 20  1  0  0  0  0
 19 21  1  0  0  0  0
M  CHG  1  15  -1
M  END
$$$$
default_name
  -OEChem-01062215323D

 24 23  0     1  0  0  0  0  0999 V2000
   -2.8347   -3.7166    0.8034 H   0  0  0  0  0  0  0  0  0  0  0  0
   -2.7728   -2.7096    0.3954 C   0  0  0  0  0  0  0  0  0  0  0  0
   -3.4267   -2.0426    0.9524 H   0  0  0  0  0  0  0  0  0  0  0  0
   -3.0538   -2.7186   -0.6556 H   0  0  0  0  0  0  0  0  0  0  0  0
   -1.3498   -2.2206    0.5184 C   0  0  0  0  0  0  0  0  0  0  0  0
   -0.4997   -2.9426    1.0194 O   0  0  0  0  0  0  0  0  0  0  0  0
   -1.1198   -0.9926    0.0674 N   0  0  0  0  0  0  0  0  0  0  0  0
   -1.8978   -0.4486   -0.2716 H   0  0  0  0  0  0  0  0  0  0  0  0
    0.1693   -0.2866    0.0854 C   0  0  1  0  0  0  0  0  0  0  0  0
    0.4964   -0.1671    1.1198 H   0  0  0  0  0  0  0  0  0  0  0  0
    1.2237   -1.1320   -0.6615 C   0  0  0  0  0  0  0  0  0  0  0  0
    0.8243   -1.4057   -1.6397 H   0  0  0  0  0  0  0  0  0  0  0  0
    2.1138   -0.5204   -0.8246 H   0  0  0  0  0  0  0  0  0  0  0  0
    1.6252   -2.4301    0.0562 C   0  0  0  0  0  0  0  0  0  0  0  0
    1.5635   -2.4663    1.3078 O   0  5  0  0  0  0  0  0  0  0  0  0
    2.0127   -3.3780   -0.6603 O   0  0  0  0  0  0  0  0  0  0  0  0
    0.0024    1.1202   -0.5344 C   0  0  0  0  0  0  0  0  0  0  0  0
    0.8812    1.9779   -0.3874 O   0  0  0  0  0  0  0  0  0  0  0  0
   -1.1065    1.3642   -1.2397 N   0  0  0  0  0  0  0  0  0  0  0  0
   -1.8109    0.6240   -1.2307 H   0  0  0  0  0  0  0  0  0  0  0  0
   -1.4353    2.6343   -1.8782 C   0  0  0  0  0  0  0  0  0  0  0  0
   -0.5585    3.0224   -2.3983 H   0  0  0  0  0  0  0  0  0  0  0  0
   -2.2478    2.4866   -2.5890 H   0  0  0  0  0  0  0  0  0  0  0  0
   -1.7445    3.3500   -1.1162 H   0  0  0  0  0  0  0  0  0  0  0  0
  5  6  2  0  0  0  0
  5  7  1  0  0  0  0
  2  3  1  0  0  0  0
  2  4  1  0  0  0  0
  2  5  1  0  0  0  0
  1  2  1  0  0  0  0
 17 18  2  0  0  0  0
 17 19  1  0  0  0  0
 14 15  1  0  0  0  0
 14 16  2  0  0  0  0
 11 12  1  0  0  0  0
 11 13  1  0  0  0  0
 11 14  1  0  0  0  0
  9 10  1  0  0  0  0
  9 11  1  0  0  0  0
  9 17  1  0  0  0  0
  7  8  1  0  0  0  0
  7  9  1  0  0  0  0
 21 22  1  0  0  0  0
 21 23  1  0  0  0  0
 21 24  1  0  0  0  0
 19 20  1  0  0  0  0
 19 21  1  0  0  0  0
M  CHG  1  15  -1
M  END
$$$$
default_name
  -OEChem-01062215323D

 24 23  0     1  0  0  0  0  0999 V2000
   -2.8347   -3.7166    0.8034 H   0  0  0  0  0  0  0  0  0  0  0  0
   -2.7728   -2.7096    0.3954 C   0  0  0  0  0  0  0  0  0  0  0  0
   -3.4267   -2.0426    0.9524 H   0  0  0  0  0  0  0  0  0  0  0  0
   -3.0538   -2.7186   -0.6556 H   0  0  0  0  0  0  0  0  0  0  0  0
   -1.3498   -2.2206    0.5184 C   0  0  0  0  0  0  0  0  0  0  0  0
   -0.4997   -2.9426    1.0194 O   0  0  0  0  0  0  0  0  0  0  0  0
   -1.1198   -0.9926    0.0674 N   0  0  0  0  0  0  0  0  0  0  0  0
   -1.8978   -0.4486   -0.2716 H   0  0  0  0  0  0  0  0  0  0  0  0
    0.1693   -0.2866    0.0854 C   0  0  1  0  0  0  0  0  0  0  0  0
    0.4964   -0.1671    1.1198 H   0  0  0  0  0  0  0  0  0  0  0  0
    1.2237   -1.1320   -0.6615 C   0  0  0  0  0  0  0  0  0  0  0  0
    0.8243   -1.4057   -1.6397 H   0  0  0  0  0  0  0  0  0  0  0  0
    2.1138   -0.5204   -0.8246 H   0  0  0  0  0  0  0  0  0  0  0  0
    1.6252   -2.4301    0.0562 C   0  0  0  0  0  0  0  0  0  0  0  0
    1.5635   -2.4663    1.3078 O   0  5  0  0  0  0  0  0  0  0  0  0
    2.0127   -3.3780   -0.6603 O   0  0  0  0  0  0  0  0  0  0  0  0
    0.0024    1.1202   -0.5344 C   0  0  0  0  0  0  0  0  0  0  0  0
    0.9725    1.8811   -0.6318 O   0  0  0  0  0  0  0  0  0  0  0  0
   -1.2118    1.4706   -0.9699 N   0  0  0  0  0  0  0  0  0  0  0  0
   -1.9646    0.8103   -0.7664 H   0  0  0  0  0  0  0  0  0  0  0  0
   -1.5532    2.7585   -1.5644 C   0  0  0  0  0  0  0  0  0  0  0  0
   -0.7903    3.0424   -2.2905 H   0  0  0  0  0  0  0  0  0  0  0  0
   -2.5217    2.6877   -2.0589 H   0  0  0  0  0  0  0  0  0  0  0  0
   -1.5997    3.5150   -0.7808 H   0  0  0  0  0  0  0  0  0  0  0  0
  5  6  2  0  0  0  0
  5  7  1  0  0  0  0
  2  3  1  0  0  0  0
  2  4  1  0  0  0  0
  2  5  1  0  0  0  0
  1  2  1  0  0  0  0
 17 18  2  0  0  0  0
 17 19  1  0  0  0  0
 14 15  1  0  0  0  0
 14 16  2  0  0  0  0
 11 12  1  0  0  0  0
 11 13  1  0  0  0  0
 11 14  1  0  0  0  0
  9 10  1  0  0  0  0
  9 11  1  0  0  0  0
  9 17  1  0  0  0  0
  7  8  1  0  0  0  0
  7  9  1  0  0  0  0
 21 22  1  0  0  0  0
 21 23  1  0  0  0  0
 21 24  1  0  0  0  0
 19 20  1  0  0  0  0
 19 21  1  0  0  0  0
M  CHG  1  15  -1
M  END
$$$$
default_name
  -OEChem-01062215323D

 24 23  0     1  0  0  0  0  0999 V2000
   -2.8347   -3.7166    0.8034 H   0  0  0  0  0  0  0  0  0  0  0  0
   -2.7728   -2.7096    0.3954 C   0  0  0  0  0  0  0  0  0  0  0  0
   -3.4267   -2.0426    0.9524 H   0  0  0  0  0  0  0  0  0  0  0  0
   -3.0538   -2.7186   -0.6556 H   0  0  0  0  0  0  0  0  0  0  0  0
   -1.3498   -2.2206    0.5184 C   0  0  0  0  0  0  0  0  0  0  0  0
   -0.4997   -2.9426    1.0194 O   0  0  0  0  0  0  0  0  0  0  0  0
   -1.1198   -0.9926    0.0674 N   0  0  0  0  0  0  0  0  0  0  0  0
   -1.8978   -0.4486   -0.2716 H   0  0  0  0  0  0  0  0  0  0  0  0
    0.1693   -0.2866    0.0854 C   0  0  1  0  0  0  0  0  0  0  0  0
    0.4964   -0.1671    1.1198 H   0  0  0  0  0  0  0  0  0  0  0  0
    1.2237   -1.1320   -0.6615 C   0  0  0  0  0  0  0  0  0  0  0  0
    0.8243   -1.4057   -1.6397 H   0  0  0  0  0  0  0  0  0  0  0  0
    2.1138   -0.5204   -0.8246 H   0  0  0  0  0  0  0  0  0  0  0  0
    1.6252   -2.4301    0.0562 C   0  0  0  0  0  0  0  0  0  0  0  0
    1.5635   -2.4663    1.3078 O   0  5  0  0  0  0  0  0  0  0  0  0
    2.0127   -3.3780   -0.6603 O   0  0  0  0  0  0  0  0  0  0  0  0
    0.0024    1.1202   -0.5344 C   0  0  0  0  0  0  0  0  0  0  0  0
    0.9931    1.7712   -0.8868 O   0  0  0  0  0  0  0  0  0  0  0  0
   -1.2389    1.5918   -0.6875 N   0  0  0  0  0  0  0  0  0  0  0  0
   -1.9844    1.0192   -0.2870 H   0  0  0  0  0  0  0  0  0  0  0  0
   -1.5804    2.8995   -1.2371 C   0  0  0  0  0  0  0  0  0  0  0  0
   -0.9867    3.0888   -2.1323 H   0  0  0  0  0  0  0  0  0  0  0  0
   -2.6405    2.9252   -1.4879 H   0  0  0  0  0  0  0  0  0  0  0  0
   -1.3637    3.6687   -0.4955 H   0  0  0  0  0  0  0  0  0  0  0  0
  5  6  2  0  0  0  0
  5  7  1  0  0  0  0
  2  3  1  0  0  0  0
  2  4  1  0  0  0  0
  2  5  1  0  0  0  0
  1  2  1  0  0  0  0
 17 18  2  0  0  0  0
 17 19  1  0  0  0  0
 14 15  1  0  0  0  0
 14 16  2  0  0  0  0
 11 12  1  0  0  0  0
 11 13  1  0  0  0  0
 11 14  1  0  0  0  0
  9 10  1  0  0  0  0
  9 11  1  0  0  0  0
  9 17  1  0  0  0  0
  7  8  1  0  0  0  0
  7  9  1  0  0  0  0
 21 22  1  0  0  0  0
 21 23  1  0  0  0  0
 21 24  1  0  0  0  0
 19 20  1  0  0  0  0
 19 21  1  0  0  0  0
M  CHG  1  15  -1
M  END
$$$$
default_name
  -OEChem-01062215323D

 24 23  0     1  0  0  0  0  0999 V2000
   -2.8347   -3.7166    0.8034 H   0  0  0  0  0  0  0  0  0  0  0  0
   -2.7728   -2.7096    0.3954 C   0  0  0  0  0  0  0  0  0  0  0  0
   -3.4267   -2.0426    0.9524 H   0  0  0  0  0  0  0  0  0  0  0  0
   -3.0538   -2.7186   -0.6556 H   0  0  0  0  0  0  0  0  0  0  0  0
   -1.3498   -2.2206    0.5184 C   0  0  0  0  0  0  0  0  0  0  0  0
   -0.4997   -2.9426    1.0194 O   0  0  0  0  0  0  0  0  0  0  0  0
   -1.1198   -0.9926    0.0674 N   0  0  0  0  0  0  0  0  0  0  0  0
   -1.8978   -0.4486   -0.2716 H   0  0  0  0  0  0  0  0  0  0  0  0
    0.1693   -0.2866    0.0854 C   0  0  1  0  0  0  0  0  0  0  0  0
    0.4964   -0.1671    1.1198 H   0  0  0  0  0  0  0  0  0  0  0  0
    1.2237   -1.1320   -0.6615 C   0  0  0  0  0  0  0  0  0  0  0  0
    0.8243   -1.4057   -1.6397 H   0  0  0  0  0  0  0  0  0  0  0  0
    2.1138   -0.5204   -0.8246 H   0  0  0  0  0  0  0  0  0  0  0  0
    1.6252   -2.4301    0.0562 C   0  0  0  0  0  0  0  0  0  0  0  0
    1.5635   -2.4663    1.3078 O   0  5  0  0  0  0  0  0  0  0  0  0
    2.0127   -3.3780   -0.6603 O   0  0  0  0  0  0  0  0  0  0  0  0
    0.0024    1.1202   -0.5344 C   0  0  0  0  0  0  0  0  0  0  0  0
    0.9417    1.6558   -1.1348 O   0  0  0  0  0  0  0  0  0  0  0  0
   -1.1860    1.7196   -0.4116 N   0  0  0  0  0  0  0  0  0  0  0  0
   -1.8690    1.2364    0.1749 H   0  0  0  0  0  0  0  0  0  0  0  0
   -1.5149    3.0477   -0.9184 C   0  0  0  0  0  0  0  0  0  0  0  0
   -1.1344    3.1584   -1.9346 H   0  0  0  0  0  0  0  0  0  0  0  0
   -2.5962    3.1828   -0.9150 H   0  0  0  0  0  0  0  0  0  0  0  0
   -1.0526    3.8006   -0.2798 H   0  0  0  0  0  0  0  0  0  0  0  0
  5  6  2  0  0  0  0
  5  7  1  0  0  0  0
  2  3  1  0  0  0  0
  2  4  1  0  0  0  0
  2  5  1  0  0  0  0
  1  2  1  0  0  0  0
 17 18  2  0  0  0  0
 17 19  1  0  0  0  0
 14 15  1  0  0  0  0
 14 16  2  0  0  0  0
 11 12  1  0  0  0  0
 11 13  1  0  0  0  0
 11 14  1  0  0  0  0
  9 10  1  0  0  0  0
  9 11  1  0  0  0  0
  9 17  1  0  0  0  0
  7  8  1  0  0  0  0
  7  9  1  0  0  0  0
 21 22  1  0  0  0  0
 21 23  1  0  0  0  0
 21 24  1  0  0  0  0
 19 20  1  0  0  0  0
 19 21  1  0  0  0  0
M  CHG  1  15  -1
M  END
$$$$
default_name
  -OEChem-01062215323D

 24 23  0     1  0  0  0  0  0999 V2000
   -2.8347   -3.7166    0.8034 H   0  0  0  0  0  0  0  0  0  0  0  0
   -2.7728   -2.7096    0.3954 C   0  0  0  0  0  0  0  0  0  0  0  0
   -3.4267   -2.0426    0.9524 H   0  0  0  0  0  0  0  0  0  0  0  0
   -3.0538   -2.7186   -0.6556 H   0  0  0  0  0  0  0  0  0  0  0  0
   -1.3498   -2.2206    0.5184 C   0  0  0  0  0  0  0  0  0  0  0  0
   -0.4997   -2.9426    1.0194 O   0  0  0  0  0  0  0  0  0  0  0  0
   -1.1198   -0.9926    0.0674 N   0  0  0  0  0  0  0  0  0  0  0  0
   -1.8978   -0.4486   -0.2716 H   0  0  0  0  0  0  0  0  0  0  0  0
    0.1693   -0.2866    0.0854 C   0  0  1  0  0  0  0  0  0  0  0  0
    0.4964   -0.1671    1.1198 H   0  0  0  0  0  0  0  0  0  0  0  0
    1.2237   -1.1320   -0.6615 C   0  0  0  0  0  0  0  0  0  0  0  0
    0.8243   -1.4057   -1.6397 H   0  0  0  0  0  0  0  0  0  0  0  0
    2.1138   -0.5204   -0.8246 H   0  0  0  0  0  0  0  0  0  0  0  0
    1.6252   -2.4301    0.0562 C   0  0  0  0  0  0  0  0  0  0  0  0
    1.5635   -2.4663    1.3078 O   0  5  0  0  0  0  0  0  0  0  0  0
    2.0127   -3.3780   -0.6603 O   0  0  0  0  0  0  0  0  0  0  0  0
    0.0024    1.1202   -0.5344 C   0  0  0  0  0  0  0  0  0  0  0  0
    0.8216    1.5428   -1.3590 O   0  0  0  0  0  0  0  0  0  0  0  0
   -1.0567    1.8453   -0.1613 N   0  0  0  0  0  0  0  0  0  0  0  0
   -1.6263    1.4471    0.5878 H   0  0  0  0  0  0  0  0  0  0  0  0
   -1.3613    3.1929   -0.6301 C   0  0  0  0  0  0  0  0  0  0  0  0
   -1.2232    3.2465   -1.7108 H   0  0  0  0  0  0  0  0  0  0  0  0
   -2.3918    3.4431   -0.3793 H   0  0  0  0  0  0  0  0  0  0  0  0
   -0.6876    3.9018   -0.1483 H   0  0  0  0  0  0  0  0  0  0  0  0
  5  6  2  0  0  0  0
  5  7  1  0  0  0  0
  2  3  1  0  0  0  0
  2  4  1  0  0  0  0
  2  5  1  0  0  0  0
  1  2  1  0  0  0  0
 17 18  2  0  0  0  0
 17 19  1  0  0  0  0
 14 15  1  0  0  0  0
 14 16  2  0  0  0  0
 11 12  1  0  0  0  0
 11 13  1  0  0  0  0
 11 14  1  0  0  0  0
  9 10  1  0  0  0  0
  9 11  1  0  0  0  0
  9 17  1  0  0  0  0
  7  8  1  0  0  0  0
  7  9  1  0  0  0  0
 21 22  1  0  0  0  0
 21 23  1  0  0  0  0
 21 24  1  0  0  0  0
 19 20  1  0  0  0  0
 19 21  1  0  0  0  0
M  CHG  1  15  -1
M  END
$$$$
default_name
  -OEChem-01062215323D

 24 23  0     1  0  0  0  0  0999 V2000
   -2.8347   -3.7166    0.8034 H   0  0  0  0  0  0  0  0  0  0  0  0
   -2.7728   -2.7096    0.3954 C   0  0  0  0  0  0  0  0  0  0  0  0
   -3.4267   -2.0426    0.9524 H   0  0  0  0  0  0  0  0  0  0  0  0
   -3.0538   -2.7186   -0.6556 H   0  0  0  0  0  0  0  0  0  0  0  0
   -1.3498   -2.2206    0.5184 C   0  0  0  0  0  0  0  0  0  0  0  0
   -0.4997   -2.9426    1.0194 O   0  0  0  0  0  0  0  0  0  0  0  0
   -1.1198   -0.9926    0.0674 N   0  0  0  0  0  0  0  0  0  0  0  0
   -1.8978   -0.4486   -0.2716 H   0  0  0  0  0  0  0  0  0  0  0  0
    0.1693   -0.2866    0.0854 C   0  0  1  0  0  0  0  0  0  0  0  0
    0.4964   -0.1671    1.1198 H   0  0  0  0  0  0  0  0  0  0  0  0
    1.2237   -1.1320   -0.6615 C   0  0  0  0  0  0  0  0  0  0  0  0
    0.8243   -1.4057   -1.6397 H   0  0  0  0  0  0  0  0  0  0  0  0
    2.1138   -0.5204   -0.8246 H   0  0  0  0  0  0  0  0  0  0  0  0
    1.6252   -2.4301    0.0562 C   0  0  0  0  0  0  0  0  0  0  0  0
    1.5635   -2.4663    1.3078 O   0  5  0  0  0  0  0  0  0  0  0  0
    2.0127   -3.3780   -0.6603 O   0  0  0  0  0  0  0  0  0  0  0  0
    0.0024    1.1202   -0.5344 C   0  0  0  0  0  0  0  0  0  0  0  0
    0.6410    1.4398   -1.5441 O   0  0  0  0  0  0  0  0  0  0  0  0
   -0.8598    1.9602    0.0467 N   0  0  0  0  0  0  0  0  0  0  0  0
   -1.2727    1.6370    0.9236 H   0  0  0  0  0  0  0  0  0  0  0  0
   -1.1300    3.3253   -0.3919 C   0  0  0  0  0  0  0  0  0  0  0  0
   -1.2472    3.3470   -1.4762 H   0  0  0  0  0  0  0  0  0  0  0  0
   -2.0412    3.6882    0.0828 H   0  0  0  0  0  0  0  0  0  0  0  0
   -0.2936    3.9653   -0.1101 H   0  0  0  0  0  0  0  0  0  0  0  0
  5  6  2  0  0  0  0
  5  7  1  0  0  0  0
  2  3  1  0  0  0  0
  2  4  1  0  0  0  0
  2  5  1  0  0  0  0
  1  2  1  0  0  0  0
 17 18  2  0  0  0  0
 17 19  1  0  0  0  0
 14 15  1  0  0  0  0
 14 16  2  0  0  0  0
 11 12  1  0  0  0  0
 11 13  1  0  0  0  0
 11 14  1  0  0  0  0
  9 10  1  0  0  0  0
  9 11  1  0  0  0  0
  9 17  1  0  0  0  0
  7  8  1  0  0  0  0
  7  9  1  0  0  0  0
 21 22  1  0  0  0  0
 21 23  1  0  0  0  0
 21 24  1  0  0  0  0
 19 20  1  0  0  0  0
 19 21  1  0  0  0  0
M  CHG  1  15  -1
M  END
$$$$
default_name
  -OEChem-01062215323D

 24 23  0     1  0  0  0  0  0999 V2000
   -2.8347   -3.7166    0.8034 H   0  0  0  0  0  0  0  0  0  0  0  0
   -2.7728   -2.7096    0.3954 C   0  0  0  0  0  0  0  0  0  0  0  0
   -3.4267   -2.0426    0.9524 H   0  0  0  0  0  0  0  0  0  0  0  0
   -3.0538   -2.7186   -0.6556 H   0  0  0  0  0  0  0  0  0  0  0  0
   -1.3498   -2.2206    0.5184 C   0  0  0  0  0  0  0  0  0  0  0  0
   -0.4997   -2.9426    1.0194 O   0  0  0  0  0  0  0  0  0  0  0  0
   -1.1198   -0.9926    0.0674 N   0  0  0  0  0  0  0  0  0  0  0  0
   -1.8978   -0.4486   -0.2716 H   0  0  0  0  0  0  0  0  0  0  0  0
    0.1693   -0.2866    0.0854 C   0  0  1  0  0  0  0  0  0  0  0  0
    0.4964   -0.1671    1.1198 H   0  0  0  0  0  0  0  0  0  0  0  0
    1.2237   -1.1320   -0.6615 C   0  0  0  0  0  0  0  0  0  0  0  0
    0.8243   -1.4057   -1.6397 H   0  0  0  0  0  0  0  0  0  0  0  0
    2.1138   -0.5204   -0.8246 H   0  0  0  0  0  0  0  0  0  0  0  0
    1.6252   -2.4301    0.0562 C   0  0  0  0  0  0  0  0  0  0  0  0
    1.5635   -2.4663    1.3078 O   0  5  0  0  0  0  0  0  0  0  0  0
    2.0127   -3.3780   -0.6603 O   0  0  0  0  0  0  0  0  0  0  0  0
    0.0024    1.1202   -0.5344 C   0  0  0  0  0  0  0  0  0  0  0  0
    0.4124    1.3539   -1.6776 O   0  0  0  0  0  0  0  0  0  0  0  0
   -0.6088    2.0566    0.1979 N   0  0  0  0  0  0  0  0  0  0  0  0
   -0.8324    1.7931    1.1595 H   0  0  0  0  0  0  0  0  0  0  0  0
   -0.8367    3.4358   -0.2200 C   0  0  0  0  0  0  0  0  0  0  0  0
   -1.2047    3.4532   -1.2467 H   0  0  0  0  0  0  0  0  0  0  0  0
   -1.5683    3.9016    0.4397 H   0  0  0  0  0  0  0  0  0  0  0  0
    0.1025    3.9869   -0.1678 H   0  0  0  0  0  0  0  0  0  0  0  0
  5  6  2  0  0  0  0
  5  7  1  0  0  0  0
  2  3  1  0  0  0  0
  2  4  1  0  0  0  0
  2  5  1  0  0  0  0
  1  2  1  0  0  0  0
 17 18  2  0  0  0  0
 17 19  1  0  0  0  0
 14 15  1  0  0  0  0
 14 16  2  0  0  0  0
 11 12  1  0  0  0  0
 11 13  1  0  0  0  0
 11 14  1  0  0  0  0
  9 10  1  0  0  0  0
  9 11  1  0  0  0  0
  9 17  1  0  0  0  0
  7  8  1  0  0  0  0
  7  9  1  0  0  0  0
 21 22  1  0  0  0  0
 21 23  1  0  0  0  0
 21 24  1  0  0  0  0
 19 20  1  0  0  0  0
 19 21  1  0  0  0  0
M  CHG  1  15  -1
M  END
$$$$
default_name
  -OEChem-01062215323D

 24 23  0     1  0  0  0  0  0999 V2000
   -2.8347   -3.7166    0.8034 H   0  0  0  0  0  0  0  0  0  0  0  0
   -2.7728   -2.7096    0.3954 C   0  0  0  0  0  0  0  0  0  0  0  0
   -3.4267   -2.0426    0.9524 H   0  0  0  0  0  0  0  0  0  0  0  0
   -3.0538   -2.7186   -0.6556 H   0  0  0  0  0  0  0  0  0  0  0  0
   -1.3498   -2.2206    0.5184 C   0  0  0  0  0  0  0  0  0  0  0  0
   -0.4997   -2.9426    1.0194 O   0  0  0  0  0  0  0  0  0  0  0  0
   -1.1198   -0.9926    0.0674 N   0  0  0  0  0  0  0  0  0  0  0  0
   -1.8978   -0.4486   -0.2716 H   0  0  0  0  0  0  0  0  0  0  0  0
    0.1693   -0.2866    0.0854 C   0  0  1  0  0  0  0  0  0  0  0  0
    0.4964   -0.1671    1.1198 H   0  0  0  0  0  0  0  0  0  0  0  0
    1.2237   -1.1320   -0.6615 C   0  0  0  0  0  0  0  0  0  0  0  0
    0.8243   -1.4057   -1.6397 H   0  0  0  0  0  0  0  0  0  0  0  0
    2.1138   -0.5204   -0.8246 H   0  0  0  0  0  0  0  0  0  0  0  0
    1.6252   -2.4301    0.0562 C   0  0  0  0  0  0  0  0  0  0  0  0
    1.5635   -2.4663    1.3078 O   0  5  0  0  0  0  0  0  0  0  0  0
    2.0127   -3.3780   -0.6603 O   0  0  0  0  0  0  0  0  0  0  0  0
    0.0024    1.1202   -0.5344 C   0  0  0  0  0  0  0  0  0  0  0  0
    0.1512    1.2909   -1.7502 O   0  0  0  0  0  0  0  0  0  0  0  0
   -0.3207    2.1279    0.2822 N   0  0  0  0  0  0  0  0  0  0  0  0
   -0.3354    1.9048    1.2792 H   0  0  0  0  0  0  0  0  0  0  0  0
   -0.5014    3.5170   -0.1261 C   0  0  0  0  0  0  0  0  0  0  0  0
   -1.0986    3.5577   -1.0380 H   0  0  0  0  0  0  0  0  0  0  0  0
   -1.0053    4.0685    0.6671 H   0  0  0  0  0  0  0  0  0  0  0  0
    0.4738    3.9650   -0.3174 H   0  0  0  0  0  0  0  0  0  0  0  0
  5  6  2  0  0  0  0
  5  7  1  0  0  0  0
  2  3  1  0  0  0  0
  2  4  1  0  0  0  0
  2  5  1  0  0  0  0
  1  2  1  0  0  0  0
 17 18  2  0  0  0  0
 17 19  1  0  0  0  0
 14 15  1  0  0  0  0
 14 16  2  0  0  0  0
 11 12  1  0  0  0  0
 11 13  1  0  0  0  0
 11 14  1  0  0  0  0
  9 10  1  0  0  0  0
  9 11  1  0  0  0  0
  9 17  1  0  0  0  0
  7  8  1  0  0  0  0
  7  9  1  0  0  0  0
 21 22  1  0  0  0  0
 21 23  1  0  0  0  0
 21 24  1  0  0  0  0
 19 20  1  0  0  0  0
 19 21  1  0  0  0  0
M  CHG  1  15  -1
M  END
$$$$
default_name
  -OEChem-01062215323D

 24 23  0     1  0  0  0  0  0999 V2000
   -2.8347   -3.7166    0.8034 H   0  0  0  0  0  0  0  0  0  0  0  0
   -2.7728   -2.7096    0.3954 C   0  0  0  0  0  0  0  0  0  0  0  0
   -3.4267   -2.0426    0.9524 H   0  0  0  0  0  0  0  0  0  0  0  0
   -3.0538   -2.7186   -0.6556 H   0  0  0  0  0  0  0  0  0  0  0  0
   -1.3498   -2.2206    0.5184 C   0  0  0  0  0  0  0  0  0  0  0  0
   -0.4997   -2.9426    1.0194 O   0  0  0  0  0  0  0  0  0  0  0  0
   -1.1198   -0.9926    0.0674 N   0  0  0  0  0  0  0  0  0  0  0  0
   -1.8978   -0.4486   -0.2716 H   0  0  0  0  0  0  0  0  0  0  0  0
    0.1693   -0.2866    0.0854 C   0  0  1  0  0  0  0  0  0  0  0  0
    0.4964   -0.1671    1.1198 H   0  0  0  0  0  0  0  0  0  0  0  0
    1.2237   -1.1320   -0.6615 C   0  0  0  0  0  0  0  0  0  0  0  0
    0.8243   -1.4057   -1.6397 H   0  0  0  0  0  0  0  0  0  0  0  0
    2.1138   -0.5204   -0.8246 H   0  0  0  0  0  0  0  0  0  0  0  0
    1.6252   -2.4301    0.0562 C   0  0  0  0  0  0  0  0  0  0  0  0
    1.5635   -2.4663    1.3078 O   0  5  0  0  0  0  0  0  0  0  0  0
    2.0127   -3.3780   -0.6603 O   0  0  0  0  0  0  0  0  0  0  0  0
    0.0024    1.1202   -0.5344 C   0  0  0  0  0  0  0  0  0  0  0  0
   -0.1248    1.2552   -1.7572 O   0  0  0  0  0  0  0  0  0  0  0  0
   -0.0151    2.1693    0.2938 N   0  0  0  0  0  0  0  0  0  0  0  0
    0.1845    1.9645    1.2747 H   0  0  0  0  0  0  0  0  0  0  0  0
   -0.1471    3.5632   -0.1166 C   0  0  0  0  0  0  0  0  0  0  0  0
   -0.9361    3.6535   -0.8643 H   0  0  0  0  0  0  0  0  0  0  0  0
   -0.3907    4.1778    0.7496 H   0  0  0  0  0  0  0  0  0  0  0  0
    0.7950    3.9012   -0.5487 H   0  0  0  0  0  0  0  0  0  0  0  0
  5  6  2  0  0  0  0
  5  7  1  0  0  0  0
  2  3  1  0  0  0  0
  2  4  1  0  0  0  0
  2  5  1  0  0  0  0
  1  2  1  0  0  0  0
 17 18  2  0  0  0  0
 17 19  1  0  0  0  0
 14 15  1  0  0  0  0
 14 16  2  0  0  0  0
 11 12  1  0  0  0  0
 11 13  1  0  0  0  0
 11 14  1  0  0  0  0
  9 10  1  0  0  0  0
  9 11  1  0  0  0  0
  9 17  1  0  0  0  0
  7  8  1  0  0  0  0
  7  9  1  0  0  0  0
 21 22  1  0  0  0  0
 21 23  1  0  0  0  0
 21 24  1  0  0  0  0
 19 20  1  0  0  0  0
 19 21  1  0  0  0  0
M  CHG  1  15  -1
M  END
$$$$
default_name
  -OEChem-01062215323D

 24 23  0     1  0  0  0  0  0999 V2000
   -2.8347   -3.7166    0.8034 H   0  0  0  0  0  0  0  0  0  0  0  0
   -2.7728   -2.7096    0.3954 C   0  0  0  0  0  0  0  0  0  0  0  0
   -3.4267   -2.0426    0.9524 H   0  0  0  0  0  0  0  0  0  0  0  0
   -3.0538   -2.7186   -0.6556 H   0  0  0  0  0  0  0  0  0  0  0  0
   -1.3498   -2.2206    0.5184 C   0  0  0  0  0  0  0  0  0  0  0  0
   -0.4997   -2.9426    1.0194 O   0  0  0  0  0  0  0  0  0  0  0  0
   -1.1198   -0.9926    0.0674 N   0  0  0  0  0  0  0  0  0  0  0  0
   -1.8978   -0.4486   -0.2716 H   0  0  0  0  0  0  0  0  0  0  0  0
    0.1693   -0.2866    0.0854 C   0  0  1  0  0  0  0  0  0  0  0  0
    0.4964   -0.1671    1.1198 H   0  0  0  0  0  0  0  0  0  0  0  0
    1.2237   -1.1320   -0.6615 C   0  0  0  0  0  0  0  0  0  0  0  0
    0.8243   -1.4057   -1.6397 H   0  0  0  0  0  0  0  0  0  0  0  0
    2.1138   -0.5204   -0.8246 H   0  0  0  0  0  0  0  0  0  0  0  0
    1.6252   -2.4301    0.0562 C   0  0  0  0  0  0  0  0  0  0  0  0
    1.5635   -2.4663    1.3078 O   0  5  0  0  0  0  0  0  0  0  0  0
    2.0127   -3.3780   -0.6603 O   0  0  0  0  0  0  0  0  0  0  0  0
    0.0024    1.1202   -0.5344 C   0  0  0  0  0  0  0  0  0  0  0  0
   -0.3967    1.2490   -1.6979 O   0  0  0  0  0  0  0  0  0  0  0  0
    0.2870    2.1778    0.2319 N   0  0  0  0  0  0  0  0  0  0  0  0
    0.6918    1.9681    1.1463 H   0  0  0  0  0  0  0  0  0  0  0  0
    0.2022    3.5713   -0.1921 C   0  0  0  0  0  0  0  0  0  0  0  0
   -0.7283    3.7340   -0.7375 H   0  0  0  0  0  0  0  0  0  0  0  0
    0.2338    4.2218    0.6815 H   0  0  0  0  0  0  0  0  0  0  0  0
    1.0441    3.7998   -0.8459 H   0  0  0  0  0  0  0  0  0  0  0  0
  5  6  2  0  0  0  0
  5  7  1  0  0  0  0
  2  3  1  0  0  0  0
  2  4  1  0  0  0  0
  2  5  1  0  0  0  0
  1  2  1  0  0  0  0
 17 18  2  0  0  0  0
 17 19  1  0  0  0  0
 14 15  1  0  0  0  0
 14 16  2  0  0  0  0
 11 12  1  0  0  0  0
 11 13  1  0  0  0  0
 11 14  1  0  0  0  0
  9 10  1  0  0  0  0
  9 11  1  0  0  0  0
  9 17  1  0  0  0  0
  7  8  1  0  0  0  0
  7  9  1  0  0  0  0
 21 22  1  0  0  0  0
 21 23  1  0  0  0  0
 21 24  1  0  0  0  0
 19 20  1  0  0  0  0
 19 21  1  0  0  0  0
M  CHG  1  15  -1
M  END
$$$$
default_name
  -OEChem-01062215323D

 24 23  0     1  0  0  0  0  0999 V2000
   -2.8347   -3.7166    0.8034 H   0  0  0  0  0  0  0  0  0  0  0  0
   -2.7728   -2.7096    0.3954 C   0  0  0  0  0  0  0  0  0  0  0  0
   -3.4267   -2.0426    0.9524 H   0  0  0  0  0  0  0  0  0  0  0  0
   -3.0538   -2.7186   -0.6556 H   0  0  0  0  0  0  0  0  0  0  0  0
   -1.3498   -2.2206    0.5184 C   0  0  0  0  0  0  0  0  0  0  0  0
   -0.4997   -2.9426    1.0194 O   0  0  0  0  0  0  0  0  0  0  0  0
   -1.1198   -0.9926    0.0674 N   0  0  0  0  0  0  0  0  0  0  0  0
   -1.8978   -0.4486   -0.2716 H   0  0  0  0  0  0  0  0  0  0  0  0
    0.1693   -0.2866    0.0854 C   0  0  1  0  0  0  0  0  0  0  0  0
    0.4964   -0.1671    1.1198 H   0  0  0  0  0  0  0  0  0  0  0  0
    1.2237   -1.1320   -0.6615 C   0  0  0  0  0  0  0  0  0  0  0  0
    0.8243   -1.4057   -1.6397 H   0  0  0  0  0  0  0  0  0  0  0  0
    2.1138   -0.5204   -0.8246 H   0  0  0  0  0  0  0  0  0  0  0  0
    1.6252   -2.4301    0.0562 C   0  0  0  0  0  0  0  0  0  0  0  0
    1.5635   -2.4663    1.3078 O   0  5  0  0  0  0  0  0  0  0  0  0
    2.0127   -3.3780   -0.6603 O   0  0  0  0  0  0  0  0  0  0  0  0
    0.0024    1.1202   -0.5344 C   0  0  0  0  0  0  0  0  0  0  0  0
   -0.6460    1.2730   -1.5764 O   0  0  0  0  0  0  0  0  0  0  0  0
    0.5652    2.1530    0.1007 N   0  0  0  0  0  0  0  0  0  0  0  0
    1.1519    1.9153    0.9027 H   0  0  0  0  0  0  0  0  0  0  0  0
    0.5227    3.5408   -0.3475 C   0  0  0  0  0  0  0  0  0  0  0  0
   -0.4894    3.7938   -0.6662 H   0  0  0  0  0  0  0  0  0  0  0  0
    0.8255    4.1977    0.4675 H   0  0  0  0  0  0  0  0  0  0  0  0
    1.2043    3.6677   -1.1889 H   0  0  0  0  0  0  0  0  0  0  0  0
  5  6  2  0  0  0  0
  5  7  1  0  0  0  0
  2  3  1  0  0  0  0
  2  4  1  0  0  0  0
  2  5  1  0  0  0  0
  1  2  1  0  0  0  0
 17 18  2  0  0  0  0
 17 19  1  0  0  0  0
 14 15  1  0  0  0  0
 14 16  2  0  0  0  0
 11 12  1  0  0  0  0
 11 13  1  0  0  0  0
 11 14  1  0  0  0  0
  9 10  1  0  0  0  0
  9 11  1  0  0  0  0
  9 17  1  0  0  0  0
  7  8  1  0  0  0  0
  7  9  1  0  0  0  0
 21 22  1  0  0  0  0
 21 23  1  0  0  0  0
 21 24  1  0  0  0  0
 19 20  1  0  0  0  0
 19 21  1  0  0  0  0
M  CHG  1  15  -1
M  END
$$$$
default_name
  -OEChem-01062215323D

 24 23  0     1  0  0  0  0  0999 V2000
   -2.8347   -3.7166    0.8034 H   0  0  0  0  0  0  0  0  0  0  0  0
   -2.7728   -2.7096    0.3954 C   0  0  0  0  0  0  0  0  0  0  0  0
   -3.4267   -2.0426    0.9524 H   0  0  0  0  0  0  0  0  0  0  0  0
   -3.0538   -2.7186   -0.6556 H   0  0  0  0  0  0  0  0  0  0  0  0
   -1.3498   -2.2206    0.5184 C   0  0  0  0  0  0  0  0  0  0  0  0
   -0.4997   -2.9426    1.0194 O   0  0  0  0  0  0  0  0  0  0  0  0
   -1.1198   -0.9926    0.0674 N   0  0  0  0  0  0  0  0  0  0  0  0
   -1.8978   -0.4486   -0.2716 H   0  0  0  0  0  0  0  0  0  0  0  0
    0.1693   -0.2866    0.0854 C   0  0  1  0  0  0  0  0  0  0  0  0
    0.4964   -0.1671    1.1198 H   0  0  0  0  0  0  0  0  0  0  0  0
    1.2237   -1.1320   -0.6615 C   0  0  0  0  0  0  0  0  0  0  0  0
    0.8243   -1.4057   -1.6397 H   0  0  0  0  0  0  0  0  0  0  0  0
    2.1138   -0.5204   -0.8246 H   0  0  0  0  0  0  0  0  0  0  0  0
    1.6252   -2.4301    0.0562 C   0  0  0  0  0  0  0  0  0  0  0  0
    1.5635   -2.4663    1.3078 O   0  5  0  0  0  0  0  0  0  0  0  0
    2.0127   -3.3780   -0.6603 O   0  0  0  0  0  0  0  0  0  0  0  0
    0.0024    1.1202   -0.5344 C   0  0  0  0  0  0  0  0  0  0  0  0
   -0.8557    1.3254   -1.4011 O   0  0  0  0  0  0  0  0  0  0  0  0
    0.8004    2.0965   -0.0908 N   0  0  0  0  0  0  0  0  0  0  0  0
    1.5336    1.8098    0.5606 H   0  0  0  0  0  0  0  0  0  0  0  0
    0.7925    3.4738   -0.5723 C   0  0  0  0  0  0  0  0  0  0  0  0
   -0.2356    3.8287   -0.6552 H   0  0  0  0  0  0  0  0  0  0  0  0
    1.3441    4.1070    0.1220 H   0  0  0  0  0  0  0  0  0  0  0  0
    1.2645    3.5139   -1.5542 H   0  0  0  0  0  0  0  0  0  0  0  0
  5  6  2  0  0  0  0
  5  7  1  0  0  0  0
  2  3  1  0  0  0  0
  2  4  1  0  0  0  0
  2  5  1  0  0  0  0
  1  2  1  0  0  0  0
 17 18  2  0  0  0  0
 17 19  1  0  0  0  0
 14 15  1  0  0  0  0
 14 16  2  0  0  0  0
 11 12  1  0  0  0  0
 11 13  1  0  0  0  0
 11 14  1  0  0  0  0
  9 10  1  0  0  0  0
  9 11  1  0  0  0  0
  9 17  1  0  0  0  0
  7  8  1  0  0  0  0
  7  9  1  0  0  0  0
 21 22  1  0  0  0  0
 21 23  1  0  0  0  0
 21 24  1  0  0  0  0
 19 20  1  0  0  0  0
 19 21  1  0  0  0  0
M  CHG  1  15  -1
M  END
$$$$
default_name
  -OEChem-01062215323D

 24 23  0     1  0  0  0  0  0999 V2000
   -2.8347   -3.7166    0.8034 H   0  0  0  0  0  0  0  0  0  0  0  0
   -2.7728   -2.7096    0.3954 C   0  0  0  0  0  0  0  0  0  0  0  0
   -3.4267   -2.0426    0.9524 H   0  0  0  0  0  0  0  0  0  0  0  0
   -3.0538   -2.7186   -0.6556 H   0  0  0  0  0  0  0  0  0  0  0  0
   -1.3498   -2.2206    0.5184 C   0  0  0  0  0  0  0  0  0  0  0  0
   -0.4997   -2.9426    1.0194 O   0  0  0  0  0  0  0  0  0  0  0  0
   -1.1198   -0.9926    0.0674 N   0  0  0  0  0  0  0  0  0  0  0  0
   -1.8978   -0.4486   -0.2716 H   0  0  0  0  0  0  0  0  0  0  0  0
    0.1693   -0.2866    0.0854 C   0  0  1  0  0  0  0  0  0  0  0  0
    0.4964   -0.1671    1.1198 H   0  0  0  0  0  0  0  0  0  0  0  0
    1.2237   -1.1320   -0.6615 C   0  0  0  0  0  0  0  0  0  0  0  0
    0.8243   -1.4057   -1.6397 H   0  0  0  0  0  0  0  0  0  0  0  0
    2.1138   -0.5204   -0.8246 H   0  0  0  0  0  0  0  0  0  0  0  0
    1.6252   -2.4301    0.0562 C   0  0  0  0  0  0  0  0  0  0  0  0
    1.5635   -2.4663    1.3078 O   0  5  0  0  0  0  0  0  0  0  0  0
    2.0127   -3.3780   -0.6603 O   0  0  0  0  0  0  0  0  0  0  0  0
    0.0024    1.1202   -0.5344 C   0  0  0  0  0  0  0  0  0  0  0  0
   -1.0115    1.4026   -1.1838 O   0  0  0  0  0  0  0  0  0  0  0  0
    0.9767    2.0122   -0.3296 N   0  0  0  0  0  0  0  0  0  0  0  0
    1.8107    1.6588    0.1432 H   0  0  0  0  0  0  0  0  0  0  0  0
    0.9932    3.3748   -0.8511 C   0  0  0  0  0  0  0  0  0  0  0  0
    0.0157    3.8364   -0.7053 H   0  0  0  0  0  0  0  0  0  0  0  0
    1.7543    3.9560   -0.3312 H   0  0  0  0  0  0  0  0  0  0  0  0
    1.2207    3.3489   -1.9169 H   0  0  0  0  0  0  0  0  0  0  0  0
  5  6  2  0  0  0  0
  5  7  1  0  0  0  0
  2  3  1  0  0  0  0
  2  4  1  0  0  0  0
  2  5  1  0  0  0  0
  1  2  1  0  0  0  0
 17 18  2  0  0  0  0
 17 19  1  0  0  0  0
 14 15  1  0  0  0  0
 14 16  2  0  0  0  0
 11 12  1  0  0  0  0
 11 13  1  0  0  0  0
 11 14  1  0  0  0  0
  9 10  1  0  0  0  0
  9 11  1  0  0  0  0
  9 17  1  0  0  0  0
  7  8  1  0  0  0  0
  7  9  1  0  0  0  0
 21 22  1  0  0  0  0
 21 23  1  0  0  0  0
 21 24  1  0  0  0  0
 19 20  1  0  0  0  0
 19 21  1  0  0  0  0
M  CHG  1  15  -1
M  END
$$$$
default_name
  -OEChem-01062215323D

 24 23  0     1  0  0  0  0  0999 V2000
   -2.8347   -3.7166    0.8034 H   0  0  0  0  0  0  0  0  0  0  0  0
   -2.7728   -2.7096    0.3954 C   0  0  0  0  0  0  0  0  0  0  0  0
   -3.4267   -2.0426    0.9524 H   0  0  0  0  0  0  0  0  0  0  0  0
   -3.0538   -2.7186   -0.6556 H   0  0  0  0  0  0  0  0  0  0  0  0
   -1.3498   -2.2206    0.5184 C   0  0  0  0  0  0  0  0  0  0  0  0
   -0.4997   -2.9426    1.0194 O   0  0  0  0  0  0  0  0  0  0  0  0
   -1.1198   -0.9926    0.0674 N   0  0  0  0  0  0  0  0  0  0  0  0
   -1.8978   -0.4486   -0.2716 H   0  0  0  0  0  0  0  0  0  0  0  0
    0.1693   -0.2866    0.0854 C   0  0  1  0  0  0  0  0  0  0  0  0
    0.6241   -0.3991    1.0711 H   0  0  0  0  0  0  0  0  0  0  0  0
    1.1128   -0.9219   -0.9588 C   0  0  0  0  0  0  0  0  0  0  0  0
    0.5915   -0.9737   -1.9163 H   0  0  0  0  0  0  0  0  0  0  0  0
    1.9824   -0.2739   -1.0877 H   0  0  0  0  0  0  0  0  0  0  0  0
    1.5861   -2.3417   -0.6102 C   0  0  0  0  0  0  0  0  0  0  0  0
    1.6805   -2.6619    0.5982 O   0  5  0  0  0  0  0  0  0  0  0  0
    1.8706   -3.0955   -1.5657 O   0  0  0  0  0  0  0  0  0  0  0  0
   -0.0578    1.2210   -0.1730 C   0  0  0  0  0  0  0  0  0  0  0  0
   -1.2007    1.6628   -0.3409 O   0  0  0  0  0  0  0  0  0  0  0  0
    1.0139    2.0197   -0.1912 N   0  0  0  0  0  0  0  0  0  0  0  0
    1.9193    1.5500   -0.1301 H   0  0  0  0  0  0  0  0  0  0  0  0
    0.9874    3.4579   -0.4354 C   0  0  0  0  0  0  0  0  0  0  0  0
    0.1807    3.9140    0.1399 H   0  0  0  0  0  0  0  0  0  0  0  0
    1.9407    3.8962   -0.1414 H   0  0  0  0  0  0  0  0  0  0  0  0
    0.8160    3.6390   -1.4967 H   0  0  0  0  0  0  0  0  0  0  0  0
  5  6  2  0  0  0  0
  5  7  1  0  0  0  0
  2  3  1  0  0  0  0
  2  4  1  0  0  0  0
  2  5  1  0  0  0  0
  1  2  1  0  0  0  0
 17 18  2  0  0  0  0
 17 19  1  0  0  0  0
 14 15  1  0  0  0  0
 14 16  2  0  0  0  0
 11 12  1  0  0  0  0
 11 13  1  0  0  0  0
 11 14  1  0  0  0  0
  9 10  1  0  0  0  0
  9 11  1  0  0  0  0
  9 17  1  0  0  0  0
  7  8  1  0  0  0  0
  7  9  1  0  0  0  0
 21 22  1  0  0  0  0
 21 23  1  0  0  0  0
 21 24  1  0  0  0  0
 19 20  1  0  0  0  0
 19 21  1  0  0  0  0
M  CHG  1  15  -1
M  END
$$$$
default_name
  -OEChem-01062215323D

 24 23  0     1  0  0  0  0  0999 V2000
   -2.8347   -3.7166    0.8034 H   0  0  0  0  0  0  0  0  0  0  0  0
   -2.7728   -2.7096    0.3954 C   0  0  0  0  0  0  0  0  0  0  0  0
   -3.4267   -2.0426    0.9524 H   0  0  0  0  0  0  0  0  0  0  0  0
   -3.0538   -2.7186   -0.6556 H   0  0  0  0  0  0  0  0  0  0  0  0
   -1.3498   -2.2206    0.5184 C   0  0  0  0  0  0  0  0  0  0  0  0
   -0.4997   -2.9426    1.0194 O   0  0  0  0  0  0  0  0  0  0  0  0
   -1.1198   -0.9926    0.0674 N   0  0  0  0  0  0  0  0  0  0  0  0
   -1.8978   -0.4486   -0.2716 H   0  0  0  0  0  0  0  0  0  0  0  0
    0.1693   -0.2866    0.0854 C   0  0  1  0  0  0  0  0  0  0  0  0
    0.6241   -0.3991    1.0711 H   0  0  0  0  0  0  0  0  0  0  0  0
    1.1128   -0.9219   -0.9588 C   0  0  0  0  0  0  0  0  0  0  0  0
    0.5915   -0.9737   -1.9163 H   0  0  0  0  0  0  0  0  0  0  0  0
    1.9824   -0.2739   -1.0877 H   0  0  0  0  0  0  0  0  0  0  0  0
    1.5861   -2.3417   -0.6102 C   0  0  0  0  0  0  0  0  0  0  0  0
    1.6805   -2.6619    0.5982 O   0  5  0  0  0  0  0  0  0  0  0  0
    1.8706   -3.0955   -1.5657 O   0  0  0  0  0  0  0  0  0  0  0  0
   -0.0578    1.2210   -0.1730 C   0  0  0  0  0  0  0  0  0  0  0  0
   -1.1881    1.7116   -0.0672 O   0  0  0  0  0  0  0  0  0  0  0  0
    1.0042    1.9661   -0.4949 N   0  0  0  0  0  0  0  0  0  0  0  0
    1.8768    1.4557   -0.6431 H   0  0  0  0  0  0  0  0  0  0  0  0
    0.9720    3.3953   -0.7870 C   0  0  0  0  0  0  0  0  0  0  0  0
    0.3553    3.9081   -0.0477 H   0  0  0  0  0  0  0  0  0  0  0  0
    1.9848    3.7965   -0.7616 H   0  0  0  0  0  0  0  0  0  0  0  0
    0.5446    3.5499   -1.7779 H   0  0  0  0  0  0  0  0  0  0  0  0
  5  6  2  0  0  0  0
  5  7  1  0  0  0  0
  2  3  1  0  0  0  0
  2  4  1  0  0  0  0
  2  5  1  0  0  0  0
  1  2  1  0  0  0  0
 17 18  2  0  0  0  0
 17 19  1  0  0  0  0
 14 15  1  0  0  0  0
 14 16  2  0  0  0  0
 11 12  1  0  0  0  0
 11 13  1  0  0  0  0
 11 14  1  0  0  0  0
  9 10  1  0  0  0  0
  9 11  1  0  0  0  0
  9 17  1  0  0  0  0
  7  8  1  0  0  0  0
  7  9  1  0  0  0  0
 21 22  1  0  0  0  0
 21 23  1  0  0  0  0
 21 24  1  0  0  0  0
 19 20  1  0  0  0  0
 19 21  1  0  0  0  0
M  CHG  1  15  -1
M  END
$$$$
default_name
  -OEChem-01062215323D

 24 23  0     1  0  0  0  0  0999 V2000
   -2.8347   -3.7166    0.8034 H   0  0  0  0  0  0  0  0  0  0  0  0
   -2.7728   -2.7096    0.3954 C   0  0  0  0  0  0  0  0  0  0  0  0
   -3.4267   -2.0426    0.9524 H   0  0  0  0  0  0  0  0  0  0  0  0
   -3.0538   -2.7186   -0.6556 H   0  0  0  0  0  0  0  0  0  0  0  0
   -1.3498   -2.2206    0.5184 C   0  0  0  0  0  0  0  0  0  0  0  0
   -0.4997   -2.9426    1.0194 O   0  0  0  0  0  0  0  0  0  0  0  0
   -1.1198   -0.9926    0.0674 N   0  0  0  0  0  0  0  0  0  0  0  0
   -1.8978   -0.4486   -0.2716 H   0  0  0  0  0  0  0  0  0  0  0  0
    0.1693   -0.2866    0.0854 C   0  0  1  0  0  0  0  0  0  0  0  0
    0.6241   -0.3991    1.0711 H   0  0  0  0  0  0  0  0  0  0  0  0
    1.1128   -0.9219   -0.9588 C   0  0  0  0  0  0  0  0  0  0  0  0
    0.5915   -0.9737   -1.9163 H   0  0  0  0  0  0  0  0  0  0  0  0
    1.9824   -0.2739   -1.0877 H   0  0  0  0  0  0  0  0  0  0  0  0
    1.5861   -2.3417   -0.6102 C   0  0  0  0  0  0  0  0  0  0  0  0
    1.6805   -2.6619    0.5982 O   0  5  0  0  0  0  0  0  0  0  0  0
    1.8706   -3.0955   -1.5657 O   0  0  0  0  0  0  0  0  0  0  0  0
   -0.0578    1.2210   -0.1730 C   0  0  0  0  0  0  0  0  0  0  0  0
   -1.1048    1.7686    0.1922 O   0  0  0  0  0  0  0  0  0  0  0  0
    0.9159    1.9033   -0.7838 N   0  0  0  0  0  0  0  0  0  0  0  0
    1.7023    1.3469   -1.1243 H   0  0  0  0  0  0  0  0  0  0  0  0
    0.8657    3.3221   -1.1204 C   0  0  0  0  0  0  0  0  0  0  0  0
    0.4764    3.8878   -0.2728 H   0  0  0  0  0  0  0  0  0  0  0  0
    1.8665    3.6748   -1.3680 H   0  0  0  0  0  0  0  0  0  0  0  0
    0.2076    3.4649   -1.9777 H   0  0  0  0  0  0  0  0  0  0  0  0
  5  6  2  0  0  0  0
  5  7  1  0  0  0  0
  2  3  1  0  0  0  0
  2  4  1  0  0  0  0
  2  5  1  0  0  0  0
  1  2  1  0  0  0  0
 17 18  2  0  0  0  0
 17 19  1  0  0  0  0
 14 15  1  0  0  0  0
 14 16  2  0  0  0  0
 11 12  1  0  0  0  0
 11 13  1  0  0  0  0
 11 14  1  0  0  0  0
  9 10  1  0  0  0  0
  9 11  1  0  0  0  0
  9 17  1  0  0  0  0
  7  8  1  0  0  0  0
  7  9  1  0  0  0  0
 21 22  1  0  0  0  0
 21 23  1  0  0  0  0
 21 24  1  0  0  0  0
 19 20  1  0  0  0  0
 19 21  1  0  0  0  0
M  CHG  1  15  -1
M  END
$$$$
default_name
  -OEChem-01062215323D

 24 23  0     1  0  0  0  0  0999 V2000
   -2.8347   -3.7166    0.8034 H   0  0  0  0  0  0  0  0  0  0  0  0
   -2.7728   -2.7096    0.3954 C   0  0  0  0  0  0  0  0  0  0  0  0
   -3.4267   -2.0426    0.9524 H   0  0  0  0  0  0  0  0  0  0  0  0
   -3.0538   -2.7186   -0.6556 H   0  0  0  0  0  0  0  0  0  0  0  0
   -1.3498   -2.2206    0.5184 C   0  0  0  0  0  0  0  0  0  0  0  0
   -0.4997   -2.9426    1.0194 O   0  0  0  0  0  0  0  0  0  0  0  0
   -1.1198   -0.9926    0.0674 N   0  0  0  0  0  0  0  0  0  0  0  0
   -1.8978   -0.4486   -0.2716 H   0  0  0  0  0  0  0  0  0  0  0  0
    0.1693   -0.2866    0.0854 C   0  0  1  0  0  0  0  0  0  0  0  0
    0.6241   -0.3991    1.0711 H   0  0  0  0  0  0  0  0  0  0  0  0
    1.1128   -0.9219   -0.9588 C   0  0  0  0  0  0  0  0  0  0  0  0
    0.5915   -0.9737   -1.9163 H   0  0  0  0  0  0  0  0  0  0  0  0
    1.9824   -0.2739   -1.0877 H   0  0  0  0  0  0  0  0  0  0  0  0
    1.5861   -2.3417   -0.6102 C   0  0  0  0  0  0  0  0  0  0  0  0
    1.6805   -2.6619    0.5982 O   0  5  0  0  0  0  0  0  0  0  0  0
    1.8706   -3.0955   -1.5657 O   0  0  0  0  0  0  0  0  0  0  0  0
   -0.0578    1.2210   -0.1730 C   0  0  0  0  0  0  0  0  0  0  0  0
   -0.9564    1.8299    0.4196 O   0  0  0  0  0  0  0  0  0  0  0  0
    0.7550    1.8355   -1.0381 N   0  0  0  0  0  0  0  0  0  0  0  0
    1.4076    1.2311   -1.5409 H   0  0  0  0  0  0  0  0  0  0  0  0
    0.6757    3.2434   -1.4128 C   0  0  0  0  0  0  0  0  0  0  0  0
    0.5357    3.8543   -0.5200 H   0  0  0  0  0  0  0  0  0  0  0  0
    1.5940    3.5392   -1.9192 H   0  0  0  0  0  0  0  0  0  0  0  0
   -0.1721    3.3897   -2.0824 H   0  0  0  0  0  0  0  0  0  0  0  0
  5  6  2  0  0  0  0
  5  7  1  0  0  0  0
  2  3  1  0  0  0  0
  2  4  1  0  0  0  0
  2  5  1  0  0  0  0
  1  2  1  0  0  0  0
 17 18  2  0  0  0  0
 17 19  1  0  0  0  0
 14 15  1  0  0  0  0
 14 16  2  0  0  0  0
 11 12  1  0  0  0  0
 11 13  1  0  0  0  0
 11 14  1  0  0  0  0
  9 10  1  0  0  0  0
  9 11  1  0  0  0  0
  9 17  1  0  0  0  0
  7  8  1  0  0  0  0
  7  9  1  0  0  0  0
 21 22  1  0  0  0  0
 21 23  1  0  0  0  0
 21 24  1  0  0  0  0
 19 20  1  0  0  0  0
 19 21  1  0  0  0  0
M  CHG  1  15  -1
M  END
$$$$
default_name
  -OEChem-01062215323D

 24 23  0     1  0  0  0  0  0999 V2000
   -2.8347   -3.7166    0.8034 H   0  0  0  0  0  0  0  0  0  0  0  0
   -2.7728   -2.7096    0.3954 C   0  0  0  0  0  0  0  0  0  0  0  0
   -3.4267   -2.0426    0.9524 H   0  0  0  0  0  0  0  0  0  0  0  0
   -3.0538   -2.7186   -0.6556 H   0  0  0  0  0  0  0  0  0  0  0  0
   -1.3498   -2.2206    0.5184 C   0  0  0  0  0  0  0  0  0  0  0  0
   -0.4997   -2.9426    1.0194 O   0  0  0  0  0  0  0  0  0  0  0  0
   -1.1198   -0.9926    0.0674 N   0  0  0  0  0  0  0  0  0  0  0  0
   -1.8978   -0.4486   -0.2716 H   0  0  0  0  0  0  0  0  0  0  0  0
    0.1693   -0.2866    0.0854 C   0  0  1  0  0  0  0  0  0  0  0  0
    0.6241   -0.3991    1.0711 H   0  0  0  0  0  0  0  0  0  0  0  0
    1.1128   -0.9219   -0.9588 C   0  0  0  0  0  0  0  0  0  0  0  0
    0.5915   -0.9737   -1.9163 H   0  0  0  0  0  0  0  0  0  0  0  0
    1.9824   -0.2739   -1.0877 H   0  0  0  0  0  0  0  0  0  0  0  0
    1.5861   -2.3417   -0.6102 C   0  0  0  0  0  0  0  0  0  0  0  0
    1.6805   -2.6619    0.5982 O   0  5  0  0  0  0  0  0  0  0  0  0
    1.8706   -3.0955   -1.5657 O   0  0  0  0  0  0  0  0  0  0  0  0
   -0.0578    1.2210   -0.1730 C   0  0  0  0  0  0  0  0  0  0  0  0
   -0.7531    1.8914    0.5994 O   0  0  0  0  0  0  0  0  0  0  0  0
    0.5325    1.7672   -1.2407 N   0  0  0  0  0  0  0  0  0  0  0  0
    1.0129    1.1161   -1.8646 H   0  0  0  0  0  0  0  0  0  0  0  0
    0.4150    3.1644   -1.6442 C   0  0  0  0  0  0  0  0  0  0  0  0
    0.5291    3.8100   -0.7725 H   0  0  0  0  0  0  0  0  0  0  0  0
    1.1858    3.3991   -2.3778 H   0  0  0  0  0  0  0  0  0  0  0  0
   -0.5684    3.3296   -2.0849 H   0  0  0  0  0  0  0  0  0  0  0  0
  5  6  2  0  0  0  0
  5  7  1  0  0  0  0
  2  3  1  0  0  0  0
  2  4  1  0  0  0  0
  2  5  1  0  0  0  0
  1  2  1  0  0  0  0
 17 18  2  0  0  0  0
 17 19  1  0  0  0  0
 14 15  1  0  0  0  0
 14 16  2  0  0  0  0
 11 12  1  0  0  0  0
 11 13  1  0  0  0  0
 11 14  1  0  0  0  0
  9 10  1  0  0  0  0
  9 11  1  0  0  0  0
  9 17  1  0  0  0  0
  7  8  1  0  0  0  0
  7  9  1  0  0  0  0
 21 22  1  0  0  0  0
 21 23  1  0  0  0  0
 21 24  1  0  0  0  0
 19 20  1  0  0  0  0
 19 21  1  0  0  0  0
M  CHG  1  15  -1
M  END
$$$$
default_name
  -OEChem-01062215323D

 24 23  0     1  0  0  0  0  0999 V2000
   -2.8347   -3.7166    0.8034 H   0  0  0  0  0  0  0  0  0  0  0  0
   -2.7728   -2.7096    0.3954 C   0  0  0  0  0  0  0  0  0  0  0  0
   -3.4267   -2.0426    0.9524 H   0  0  0  0  0  0  0  0  0  0  0  0
   -3.0538   -2.7186   -0.6556 H   0  0  0  0  0  0  0  0  0  0  0  0
   -1.3498   -2.2206    0.5184 C   0  0  0  0  0  0  0  0  0  0  0  0
   -0.4997   -2.9426    1.0194 O   0  0  0  0  0  0  0  0  0  0  0  0
   -1.1198   -0.9926    0.0674 N   0  0  0  0  0  0  0  0  0  0  0  0
   -1.8978   -0.4486   -0.2716 H   0  0  0  0  0  0  0  0  0  0  0  0
    0.1693   -0.2866    0.0854 C   0  0  1  0  0  0  0  0  0  0  0  0
    0.6241   -0.3991    1.0711 H   0  0  0  0  0  0  0  0  0  0  0  0
    1.1128   -0.9219   -0.9588 C   0  0  0  0  0  0  0  0  0  0  0  0
    0.5915   -0.9737   -1.9163 H   0  0  0  0  0  0  0  0  0  0  0  0
    1.9824   -0.2739   -1.0877 H   0  0  0  0  0  0  0  0  0  0  0  0
    1.5861   -2.3417   -0.6102 C   0  0  0  0  0  0  0  0  0  0  0  0
    1.6805   -2.6619    0.5982 O   0  5  0  0  0  0  0  0  0  0  0  0
    1.8706   -3.0955   -1.5657 O   0  0  0  0  0  0  0  0  0  0  0  0
   -0.0578    1.2210   -0.1730 C   0  0  0  0  0  0  0  0  0  0  0  0
   -0.5086    1.9488    0.7195 O   0  0  0  0  0  0  0  0  0  0  0  0
    0.2634    1.7033   -1.3776 N   0  0  0  0  0  0  0  0  0  0  0  0
    0.5449    1.0099   -2.0733 H   0  0  0  0  0  0  0  0  0  0  0  0
    0.1013    3.0906   -1.7991 C   0  0  0  0  0  0  0  0  0  0  0  0
    0.4571    3.7580   -1.0130 H   0  0  0  0  0  0  0  0  0  0  0  0
    0.6697    3.2641   -2.7124 H   0  0  0  0  0  0  0  0  0  0  0  0
   -0.9545    3.2886   -1.9850 H   0  0  0  0  0  0  0  0  0  0  0  0
  5  6  2  0  0  0  0
  5  7  1  0  0  0  0
  2  3  1  0  0  0  0
  2  4  1  0  0  0  0
  2  5  1  0  0  0  0
  1  2  1  0  0  0  0
 17 18  2  0  0  0  0
 17 19  1  0  0  0  0
 14 15  1  0  0  0  0
 14 16  2  0  0  0  0
 11 12  1  0  0  0  0
 11 13  1  0  0  0  0
 11 14  1  0  0  0  0
  9 10  1  0  0  0  0
  9 11  1  0  0  0  0
  9 17  1  0  0  0  0
  7  8  1  0  0  0  0
  7  9  1  0  0  0  0
 21 22  1  0  0  0  0
 21 23  1  0  0  0  0
 21 24  1  0  0  0  0
 19 20  1  0  0  0  0
 19 21  1  0  0  0  0
M  CHG  1  15  -1
M  END
$$$$
default_name
  -OEChem-01062215323D

 24 23  0     1  0  0  0  0  0999 V2000
   -2.8347   -3.7166    0.8034 H   0  0  0  0  0  0  0  0  0  0  0  0
   -2.7728   -2.7096    0.3954 C   0  0  0  0  0  0  0  0  0  0  0  0
   -3.4267   -2.0426    0.9524 H   0  0  0  0  0  0  0  0  0  0  0  0
   -3.0538   -2.7186   -0.6556 H   0  0  0  0  0  0  0  0  0  0  0  0
   -1.3498   -2.2206    0.5184 C   0  0  0  0  0  0  0  0  0  0  0  0
   -0.4997   -2.9426    1.0194 O   0  0  0  0  0  0  0  0  0  0  0  0
   -1.1198   -0.9926    0.0674 N   0  0  0  0  0  0  0  0  0  0  0  0
   -1.8978   -0.4486   -0.2716 H   0  0  0  0  0  0  0  0  0  0  0  0
    0.1693   -0.2866    0.0854 C   0  0  1  0  0  0  0  0  0  0  0  0
    0.6241   -0.3991    1.0711 H   0  0  0  0  0  0  0  0  0  0  0  0
    1.1128   -0.9219   -0.9588 C   0  0  0  0  0  0  0  0  0  0  0  0
    0.5915   -0.9737   -1.9163 H   0  0  0  0  0  0  0  0  0  0  0  0
    1.9824   -0.2739   -1.0877 H   0  0  0  0  0  0  0  0  0  0  0  0
    1.5861   -2.3417   -0.6102 C   0  0  0  0  0  0  0  0  0  0  0  0
    1.6805   -2.6619    0.5982 O   0  5  0  0  0  0  0  0  0  0  0  0
    1.8706   -3.0955   -1.5657 O   0  0  0  0  0  0  0  0  0  0  0  0
   -0.0578    1.2210   -0.1730 C   0  0  0  0  0  0  0  0  0  0  0  0
   -0.2397    1.9982    0.7716 O   0  0  0  0  0  0  0  0  0  0  0  0
   -0.0337    1.6479   -1.4395 N   0  0  0  0  0  0  0  0  0  0  0  0
    0.0356    0.9196   -2.1527 H   0  0  0  0  0  0  0  0  0  0  0  0
   -0.2439    3.0270   -1.8667 C   0  0  0  0  0  0  0  0  0  0  0  0
    0.3246    3.7017   -1.2252 H   0  0  0  0  0  0  0  0  0  0  0  0
    0.0810    3.1432   -2.9003 H   0  0  0  0  0  0  0  0  0  0  0  0
   -1.3040    3.2695   -1.7895 H   0  0  0  0  0  0  0  0  0  0  0  0
  5  6  2  0  0  0  0
  5  7  1  0  0  0  0
  2  3  1  0  0  0  0
  2  4  1  0  0  0  0
  2  5  1  0  0  0  0
  1  2  1  0  0  0  0
 17 18  2  0  0  0  0
 17 19  1  0  0  0  0
 14 15  1  0  0  0  0
 14 16  2  0  0  0  0
 11 12  1  0  0  0  0
 11 13  1  0  0  0  0
 11 14  1  0  0  0  0
  9 10  1  0  0  0  0
  9 11  1  0  0  0  0
  9 17  1  0  0  0  0
  7  8  1  0  0  0  0
  7  9  1  0  0  0  0
 21 22  1  0  0  0  0
 21 23  1  0  0  0  0
 21 24  1  0  0  0  0
 19 20  1  0  0  0  0
 19 21  1  0  0  0  0
M  CHG  1  15  -1
M  END
$$$$
default_name
  -OEChem-01062215323D

 24 23  0     1  0  0  0  0  0999 V2000
   -2.8347   -3.7166    0.8034 H   0  0  0  0  0  0  0  0  0  0  0  0
   -2.7728   -2.7096    0.3954 C   0  0  0  0  0  0  0  0  0  0  0  0
   -3.4267   -2.0426    0.9524 H   0  0  0  0  0  0  0  0  0  0  0  0
   -3.0538   -2.7186   -0.6556 H   0  0  0  0  0  0  0  0  0  0  0  0
   -1.3498   -2.2206    0.5184 C   0  0  0  0  0  0  0  0  0  0  0  0
   -0.4997   -2.9426    1.0194 O   0  0  0  0  0  0  0  0  0  0  0  0
   -1.1198   -0.9926    0.0674 N   0  0  0  0  0  0  0  0  0  0  0  0
   -1.8978   -0.4486   -0.2716 H   0  0  0  0  0  0  0  0  0  0  0  0
    0.1693   -0.2866    0.0854 C   0  0  1  0  0  0  0  0  0  0  0  0
    0.6241   -0.3991    1.0711 H   0  0  0  0  0  0  0  0  0  0  0  0
    1.1128   -0.9219   -0.9588 C   0  0  0  0  0  0  0  0  0  0  0  0
    0.5915   -0.9737   -1.9163 H   0  0  0  0  0  0  0  0  0  0  0  0
    1.9824   -0.2739   -1.0877 H   0  0  0  0  0  0  0  0  0  0  0  0
    1.5861   -2.3417   -0.6102 C   0  0  0  0  0  0  0  0  0  0  0  0
    1.6805   -2.6619    0.5982 O   0  5  0  0  0  0  0  0  0  0  0  0
    1.8706   -3.0955   -1.5657 O   0  0  0  0  0  0  0  0  0  0  0  0
   -0.0578    1.2210   -0.1730 C   0  0  0  0  0  0  0  0  0  0  0  0
    0.0353    2.0363    0.7522 O   0  0  0  0  0  0  0  0  0  0  0  0
   -0.3388    1.6049   -1.4222 N   0  0  0  0  0  0  0  0  0  0  0  0
   -0.4803    0.8513   -2.0975 H   0  0  0  0  0  0  0  0  0  0  0  0
   -0.5972    2.9780   -1.8424 C   0  0  0  0  0  0  0  0  0  0  0  0
    0.1407    3.6449   -1.3946 H   0  0  0  0  0  0  0  0  0  0  0  0
   -0.5403    3.0447   -2.9286 H   0  0  0  0  0  0  0  0  0  0  0  0
   -1.5931    3.2735   -1.5118 H   0  0  0  0  0  0  0  0  0  0  0  0
  5  6  2  0  0  0  0
  5  7  1  0  0  0  0
  2  3  1  0  0  0  0
  2  4  1  0  0  0  0
  2  5  1  0  0  0  0
  1  2  1  0  0  0  0
 17 18  2  0  0  0  0
 17 19  1  0  0  0  0
 14 15  1  0  0  0  0
 14 16  2  0  0  0  0
 11 12  1  0  0  0  0
 11 13  1  0  0  0  0
 11 14  1  0  0  0  0
  9 10  1  0  0  0  0
  9 11  1  0  0  0  0
  9 17  1  0  0  0  0
  7  8  1  0  0  0  0
  7  9  1  0  0  0  0
 21 22  1  0  0  0  0
 21 23  1  0  0  0  0
 21 24  1  0  0  0  0
 19 20  1  0  0  0  0
 19 21  1  0  0  0  0
M  CHG  1  15  -1
M  END
$$$$
default_name
  -OEChem-01062215323D

 24 23  0     1  0  0  0  0  0999 V2000
   -2.8347   -3.7166    0.8034 H   0  0  0  0  0  0  0  0  0  0  0  0
   -2.7728   -2.7096    0.3954 C   0  0  0  0  0  0  0  0  0  0  0  0
   -3.4267   -2.0426    0.9524 H   0  0  0  0  0  0  0  0  0  0  0  0
   -3.0538   -2.7186   -0.6556 H   0  0  0  0  0  0  0  0  0  0  0  0
   -1.3498   -2.2206    0.5184 C   0  0  0  0  0  0  0  0  0  0  0  0
   -0.4997   -2.9426    1.0194 O   0  0  0  0  0  0  0  0  0  0  0  0
   -1.1198   -0.9926    0.0674 N   0  0  0  0  0  0  0  0  0  0  0  0
   -1.8978   -0.4486   -0.2716 H   0  0  0  0  0  0  0  0  0  0  0  0
    0.1693   -0.2866    0.0854 C   0  0  1  0  0  0  0  0  0  0  0  0
    0.6241   -0.3991    1.0711 H   0  0  0  0  0  0  0  0  0  0  0  0
    1.1128   -0.9219   -0.9588 C   0  0  0  0  0  0  0  0  0  0  0  0
    0.5915   -0.9737   -1.9163 H   0  0  0  0  0  0  0  0  0  0  0  0
    1.9824   -0.2739   -1.0877 H   0  0  0  0  0  0  0  0  0  0  0  0
    1.5861   -2.3417   -0.6102 C   0  0  0  0  0  0  0  0  0  0  0  0
    1.6805   -2.6619    0.5982 O   0  5  0  0  0  0  0  0  0  0  0  0
    1.8706   -3.0955   -1.5657 O   0  0  0  0  0  0  0  0  0  0  0  0
   -0.0578    1.2210   -0.1730 C   0  0  0  0  0  0  0  0  0  0  0  0
    0.2977    2.0605    0.6626 O   0  0  0  0  0  0  0  0  0  0  0  0
   -0.6309    1.5772   -1.3269 N   0  0  0  0  0  0  0  0  0  0  0  0
   -0.9676    0.8098   -1.9114 H   0  0  0  0  0  0  0  0  0  0  0  0
   -0.9344    2.9468   -1.7280 C   0  0  0  0  0  0  0  0  0  0  0  0
   -0.0822    3.5916   -1.5096 H   0  0  0  0  0  0  0  0  0  0  0  0
   -1.1519    2.9755   -2.7954 H   0  0  0  0  0  0  0  0  0  0  0  0
   -1.8021    3.3005   -1.1707 H   0  0  0  0  0  0  0  0  0  0  0  0
  5  6  2  0  0  0  0
  5  7  1  0  0  0  0
  2  3  1  0  0  0  0
  2  4  1  0  0  0  0
  2  5  1  0  0  0  0
  1  2  1  0  0  0  0
 17 18  2  0  0  0  0
 17 19  1  0  0  0  0
 14 15  1  0  0  0  0
 14 16  2  0  0  0  0
 11 12  1  0  0  0  0
 11 13  1  0  0  0  0
 11 14  1  0  0  0  0
  9 10  1  0  0  0  0
  9 11  1  0  0  0  0
  9 17  1  0  0  0  0
  7  8  1  0  0  0  0
  7  9  1  0  0  0  0
 21 22  1  0  0  0  0
 21 23  1  0  0  0  0
 21 24  1  0  0  0  0
 19 20  1  0  0  0  0
 19 21  1  0  0  0  0
M  CHG  1  15  -1
M  END
$$$$
default_name
  -OEChem-01062215323D

 24 23  0     1  0  0  0  0  0999 V2000
   -2.8347   -3.7166    0.8034 H   0  0  0  0  0  0  0  0  0  0  0  0
   -2.7728   -2.7096    0.3954 C   0  0  0  0  0  0  0  0  0  0  0  0
   -3.4267   -2.0426    0.9524 H   0  0  0  0  0  0  0  0  0  0  0  0
   -3.0538   -2.7186   -0.6556 H   0  0  0  0  0  0  0  0  0  0  0  0
   -1.3498   -2.2206    0.5184 C   0  0  0  0  0  0  0  0  0  0  0  0
   -0.4997   -2.9426    1.0194 O   0  0  0  0  0  0  0  0  0  0  0  0
   -1.1198   -0.9926    0.0674 N   0  0  0  0  0  0  0  0  0  0  0  0
   -1.8978   -0.4486   -0.2716 H   0  0  0  0  0  0  0  0  0  0  0  0
    0.1693   -0.2866    0.0854 C   0  0  1  0  0  0  0  0  0  0  0  0
    0.6241   -0.3991    1.0711 H   0  0  0  0  0  0  0  0  0  0  0  0
    1.1128   -0.9219   -0.9588 C   0  0  0  0  0  0  0  0  0  0  0  0
    0.5915   -0.9737   -1.9163 H   0  0  0  0  0  0  0  0  0  0  0  0
    1.9824   -0.2739   -1.0877 H   0  0  0  0  0  0  0  0  0  0  0  0
    1.5861   -2.3417   -0.6102 C   0  0  0  0  0  0  0  0  0  0  0  0
    1.6805   -2.6619    0.5982 O   0  5  0  0  0  0  0  0  0  0  0  0
    1.8706   -3.0955   -1.5657 O   0  0  0  0  0  0  0  0  0  0  0  0
   -0.0578    1.2210   -0.1730 C   0  0  0  0  0  0  0  0  0  0  0  0
    0.5297    2.0691    0.5090 O   0  0  0  0  0  0  0  0  0  0  0  0
   -0.8903    1.5668   -1.1600 N   0  0  0  0  0  0  0  0  0  0  0  0
   -1.3932    0.7979   -1.6071 H   0  0  0  0  0  0  0  0  0  0  0  0
   -1.2326    2.9356   -1.5312 C   0  0  0  0  0  0  0  0  0  0  0  0
   -0.3288    3.5454   -1.5625 H   0  0  0  0  0  0  0  0  0  0  0  0
   -1.7120    2.9401   -2.5098 H   0  0  0  0  0  0  0  0  0  0  0  0
   -1.9167    3.3486   -0.7896 H   0  0  0  0  0  0  0  0  0  0  0  0
  5  6  2  0  0  0  0
  5  7  1  0  0  0  0
  2  3  1  0  0  0  0
  2  4  1  0  0  0  0
  2  5  1  0  0  0  0
  1  2  1  0  0  0  0
 17 18  2  0  0  0  0
 17 19  1  0  0  0  0
 14 15  1  0  0  0  0
 14 16  2  0  0  0  0
 11 12  1  0  0  0  0
 11 13  1  0  0  0  0
 11 14  1  0  0  0  0
  9 10  1  0  0  0  0
  9 11  1  0  0  0  0
  9 17  1  0  0  0  0
  7  8  1  0  0  0  0
  7  9  1  0  0  0  0
 21 22  1  0  0  0  0
 21 23  1  0  0  0  0
 21 24  1  0  0  0  0
 19 20  1  0  0  0  0
 19 21  1  0  0  0  0
M  CHG  1  15  -1
M  END
$$$$
default_name
  -OEChem-01062215323D

 24 23  0     1  0  0  0  0  0999 V2000
   -2.8347   -3.7166    0.8034 H   0  0  0  0  0  0  0  0  0  0  0  0
   -2.7728   -2.7096    0.3954 C   0  0  0  0  0  0  0  0  0  0  0  0
   -3.4267   -2.0426    0.9524 H   0  0  0  0  0  0  0  0  0  0  0  0
   -3.0538   -2.7186   -0.6556 H   0  0  0  0  0  0  0  0  0  0  0  0
   -1.3498   -2.2206    0.5184 C   0  0  0  0  0  0  0  0  0  0  0  0
   -0.4997   -2.9426    1.0194 O   0  0  0  0  0  0  0  0  0  0  0  0
   -1.1198   -0.9926    0.0674 N   0  0  0  0  0  0  0  0  0  0  0  0
   -1.8978   -0.4486   -0.2716 H   0  0  0  0  0  0  0  0  0  0  0  0
    0.1693   -0.2866    0.0854 C   0  0  1  0  0  0  0  0  0  0  0  0
    0.6241   -0.3991    1.0711 H   0  0  0  0  0  0  0  0  0  0  0  0
    1.1128   -0.9219   -0.9588 C   0  0  0  0  0  0  0  0  0  0  0  0
    0.5915   -0.9737   -1.9163 H   0  0  0  0  0  0  0  0  0  0  0  0
    1.9824   -0.2739   -1.0877 H   0  0  0  0  0  0  0  0  0  0  0  0
    1.5861   -2.3417   -0.6102 C   0  0  0  0  0  0  0  0  0  0  0  0
    1.6805   -2.6619    0.5982 O   0  5  0  0  0  0  0  0  0  0  0  0
    1.8706   -3.0955   -1.5657 O   0  0  0  0  0  0  0  0  0  0  0  0
   -0.0578    1.2210   -0.1730 C   0  0  0  0  0  0  0  0  0  0  0  0
    0.7153    2.0615    0.3017 O   0  0  0  0  0  0  0  0  0  0  0  0
   -1.0991    1.5742   -0.9331 N   0  0  0  0  0  0  0  0  0  0  0  0
   -1.7280    0.8163   -1.2053 H   0  0  0  0  0  0  0  0  0  0  0  0
   -1.4715    2.9452   -1.2654 C   0  0  0  0  0  0  0  0  0  0  0  0
   -0.5823    3.5095   -1.5496 H   0  0  0  0  0  0  0  0  0  0  0  0
   -2.1825    2.9409   -2.0913 H   0  0  0  0  0  0  0  0  0  0  0  0
   -1.9292    3.4145   -0.3943 H   0  0  0  0  0  0  0  0  0  0  0  0
  5  6  2  0  0  0  0
  5  7  1  0  0  0  0
  2  3  1  0  0  0  0
  2  4  1  0  0  0  0
  2  5  1  0  0  0  0
  1  2  1  0  0  0  0
 17 18  2  0  0  0  0
 17 19  1  0  0  0  0
 14 15  1  0  0  0  0
 14 16  2  0  0  0  0
 11 12  1  0  0  0  0
 11 13  1  0  0  0  0
 11 14  1  0  0  0  0
  9 10  1  0  0  0  0
  9 11  1  0  0  0  0
  9 17  1  0  0  0  0
  7  8  1  0  0  0  0
  7  9  1  0  0  0  0
 21 22  1  0  0  0  0
 21 23  1  0  0  0  0
 21 24  1  0  0  0  0
 19 20  1  0  0  0  0
 19 21  1  0  0  0  0
M  CHG  1  15  -1
M  END
$$$$
default_name
  -OEChem-01062215323D

 24 23  0     1  0  0  0  0  0999 V2000
   -2.8347   -3.7166    0.8034 H   0  0  0  0  0  0  0  0  0  0  0  0
   -2.7728   -2.7096    0.3954 C   0  0  0  0  0  0  0  0  0  0  0  0
   -3.4267   -2.0426    0.9524 H   0  0  0  0  0  0  0  0  0  0  0  0
   -3.0538   -2.7186   -0.6556 H   0  0  0  0  0  0  0  0  0  0  0  0
   -1.3498   -2.2206    0.5184 C   0  0  0  0  0  0  0  0  0  0  0  0
   -0.4997   -2.9426    1.0194 O   0  0  0  0  0  0  0  0  0  0  0  0
   -1.1198   -0.9926    0.0674 N   0  0  0  0  0  0  0  0  0  0  0  0
   -1.8978   -0.4486   -0.2716 H   0  0  0  0  0  0  0  0  0  0  0  0
    0.1693   -0.2866    0.0854 C   0  0  1  0  0  0  0  0  0  0  0  0
    0.6241   -0.3991    1.0711 H   0  0  0  0  0  0  0  0  0  0  0  0
    1.1128   -0.9219   -0.9588 C   0  0  0  0  0  0  0  0  0  0  0  0
    0.5915   -0.9737   -1.9163 H   0  0  0  0  0  0  0  0  0  0  0  0
    1.9824   -0.2739   -1.0877 H   0  0  0  0  0  0  0  0  0  0  0  0
    1.5861   -2.3417   -0.6102 C   0  0  0  0  0  0  0  0  0  0  0  0
    1.6805   -2.6619    0.5982 O   0  5  0  0  0  0  0  0  0  0  0  0
    1.8706   -3.0955   -1.5657 O   0  0  0  0  0  0  0  0  0  0  0  0
   -0.0578    1.2210   -0.1730 C   0  0  0  0  0  0  0  0  0  0  0  0
    0.8419    2.0383    0.0549 O   0  0  0  0  0  0  0  0  0  0  0  0
   -1.2433    1.5991   -0.6614 N   0  0  0  0  0  0  0  0  0  0  0  0
   -1.9492    0.8639   -0.7335 H   0  0  0  0  0  0  0  0  0  0  0  0
   -1.6348    2.9749   -0.9488 C   0  0  0  0  0  0  0  0  0  0  0  0
   -0.8255    3.4862   -1.4717 H   0  0  0  0  0  0  0  0  0  0  0  0
   -2.5313    2.9781   -1.5683 H   0  0  0  0  0  0  0  0  0  0  0  0
   -1.8386    3.4936   -0.0119 H   0  0  0  0  0  0  0  0  0  0  0  0
  5  6  2  0  0  0  0
  5  7  1  0  0  0  0
  2  3  1  0  0  0  0
  2  4  1  0  0  0  0
  2  5  1  0  0  0  0
  1  2  1  0  0  0  0
 17 18  2  0  0  0  0
 17 19  1  0  0  0  0
 14 15  1  0  0  0  0
 14 16  2  0  0  0  0
 11 12  1  0  0  0  0
 11 13  1  0  0  0  0
 11 14  1  0  0  0  0
  9 10  1  0  0  0  0
  9 11  1  0  0  0  0
  9 17  1  0  0  0  0
  7  8  1  0  0  0  0
  7  9  1  0  0  0  0
 21 22  1  0  0  0  0
 21 23  1  0  0  0  0
 21 24  1  0  0  0  0
 19 20  1  0  0  0  0
 19 21  1  0  0  0  0
M  CHG  1  15  -1
M  END
$$$$
default_name
  -OEChem-01062215323D

 24 23  0     1  0  0  0  0  0999 V2000
   -2.8347   -3.7166    0.8034 H   0  0  0  0  0  0  0  0  0  0  0  0
   -2.7728   -2.7096    0.3954 C   0  0  0  0  0  0  0  0  0  0  0  0
   -3.4267   -2.0426    0.9524 H   0  0  0  0  0  0  0  0  0  0  0  0
   -3.0538   -2.7186   -0.6556 H   0  0  0  0  0  0  0  0  0  0  0  0
   -1.3498   -2.2206    0.5184 C   0  0  0  0  0  0  0  0  0  0  0  0
   -0.4997   -2.9426    1.0194 O   0  0  0  0  0  0  0  0  0  0  0  0
   -1.1198   -0.9926    0.0674 N   0  0  0  0  0  0  0  0  0  0  0  0
   -1.8978   -0.4486   -0.2716 H   0  0  0  0  0  0  0  0  0  0  0  0
    0.1693   -0.2866    0.0854 C   0  0  1  0  0  0  0  0  0  0  0  0
    0.6241   -0.3991    1.0711 H   0  0  0  0  0  0  0  0  0  0  0  0
    1.1128   -0.9219   -0.9588 C   0  0  0  0  0  0  0  0  0  0  0  0
    0.5915   -0.9737   -1.9163 H   0  0  0  0  0  0  0  0  0  0  0  0
    1.9824   -0.2739   -1.0877 H   0  0  0  0  0  0  0  0  0  0  0  0
    1.5861   -2.3417   -0.6102 C   0  0  0  0  0  0  0  0  0  0  0  0
    1.6805   -2.6619    0.5982 O   0  5  0  0  0  0  0  0  0  0  0  0
    1.8706   -3.0955   -1.5657 O   0  0  0  0  0  0  0  0  0  0  0  0
   -0.0578    1.2210   -0.1730 C   0  0  0  0  0  0  0  0  0  0  0  0
    0.9010    2.0010   -0.2145 O   0  0  0  0  0  0  0  0  0  0  0  0
   -1.3129    1.6397   -0.3635 N   0  0  0  0  0  0  0  0  0  0  0  0
   -2.0417    0.9374   -0.2237 H   0  0  0  0  0  0  0  0  0  0  0  0
   -1.7113    3.0227   -0.6029 C   0  0  0  0  0  0  0  0  0  0  0  0
   -1.0418    3.4771   -1.3343 H   0  0  0  0  0  0  0  0  0  0  0  0
   -2.7346    3.0489   -0.9765 H   0  0  0  0  0  0  0  0  0  0  0  0
   -1.6513    3.5808    0.3316 H   0  0  0  0  0  0  0  0  0  0  0  0
  5  6  2  0  0  0  0
  5  7  1  0  0  0  0
  2  3  1  0  0  0  0
  2  4  1  0  0  0  0
  2  5  1  0  0  0  0
  1  2  1  0  0  0  0
 17 18  2  0  0  0  0
 17 19  1  0  0  0  0
 14 15  1  0  0  0  0
 14 16  2  0  0  0  0
 11 12  1  0  0  0  0
 11 13  1  0  0  0  0
 11 14  1  0  0  0  0
  9 10  1  0  0  0  0
  9 11  1  0  0  0  0
  9 17  1  0  0  0  0
  7  8  1  0  0  0  0
  7  9  1  0  0  0  0
 21 22  1  0  0  0  0
 21 23  1  0  0  0  0
 21 24  1  0  0  0  0
 19 20  1  0  0  0  0
 19 21  1  0  0  0  0
M  CHG  1  15  -1
M  END
$$$$
default_name
  -OEChem-01062215323D

 24 23  0     1  0  0  0  0  0999 V2000
   -2.8347   -3.7166    0.8034 H   0  0  0  0  0  0  0  0  0  0  0  0
   -2.7728   -2.7096    0.3954 C   0  0  0  0  0  0  0  0  0  0  0  0
   -3.4267   -2.0426    0.9524 H   0  0  0  0  0  0  0  0  0  0  0  0
   -3.0538   -2.7186   -0.6556 H   0  0  0  0  0  0  0  0  0  0  0  0
   -1.3498   -2.2206    0.5184 C   0  0  0  0  0  0  0  0  0  0  0  0
   -0.4997   -2.9426    1.0194 O   0  0  0  0  0  0  0  0  0  0  0  0
   -1.1198   -0.9926    0.0674 N   0  0  0  0  0  0  0  0  0  0  0  0
   -1.8978   -0.4486   -0.2716 H   0  0  0  0  0  0  0  0  0  0  0  0
    0.1693   -0.2866    0.0854 C   0  0  1  0  0  0  0  0  0  0  0  0
    0.6241   -0.3991    1.0711 H   0  0  0  0  0  0  0  0  0  0  0  0
    1.1128   -0.9219   -0.9588 C   0  0  0  0  0  0  0  0  0  0  0  0
    0.5915   -0.9737   -1.9163 H   0  0  0  0  0  0  0  0  0  0  0  0
    1.9824   -0.2739   -1.0877 H   0  0  0  0  0  0  0  0  0  0  0  0
    1.5861   -2.3417   -0.6102 C   0  0  0  0  0  0  0  0  0  0  0  0
    1.6805   -2.6619    0.5982 O   0  5  0  0  0  0  0  0  0  0  0  0
    1.8706   -3.0955   -1.5657 O   0  0  0  0  0  0  0  0  0  0  0  0
   -0.0578    1.2210   -0.1730 C   0  0  0  0  0  0  0  0  0  0  0  0
    0.8885    1.9522   -0.4883 O   0  0  0  0  0  0  0  0  0  0  0  0
   -1.3032    1.6932   -0.0598 N   0  0  0  0  0  0  0  0  0  0  0  0
   -1.9993    1.0317    0.2893 H   0  0  0  0  0  0  0  0  0  0  0  0
   -1.6959    3.0853   -0.2513 C   0  0  0  0  0  0  0  0  0  0  0  0
   -1.2164    3.4830   -1.1467 H   0  0  0  0  0  0  0  0  0  0  0  0
   -2.7787    3.1485   -0.3563 H   0  0  0  0  0  0  0  0  0  0  0  0
   -1.3798    3.6699    0.6129 H   0  0  0  0  0  0  0  0  0  0  0  0
  5  6  2  0  0  0  0
  5  7  1  0  0  0  0
  2  3  1  0  0  0  0
  2  4  1  0  0  0  0
  2  5  1  0  0  0  0
  1  2  1  0  0  0  0
 17 18  2  0  0  0  0
 17 19  1  0  0  0  0
 14 15  1  0  0  0  0
 14 16  2  0  0  0  0
 11 12  1  0  0  0  0
 11 13  1  0  0  0  0
 11 14  1  0  0  0  0
  9 10  1  0  0  0  0
  9 11  1  0  0  0  0
  9 17  1  0  0  0  0
  7  8  1  0  0  0  0
  7  9  1  0  0  0  0
 21 22  1  0  0  0  0
 21 23  1  0  0  0  0
 21 24  1  0  0  0  0
 19 20  1  0  0  0  0
 19 21  1  0  0  0  0
M  CHG  1  15  -1
M  END
$$$$
default_name
  -OEChem-01062215323D

 24 23  0     1  0  0  0  0  0999 V2000
   -2.8347   -3.7166    0.8034 H   0  0  0  0  0  0  0  0  0  0  0  0
   -2.7728   -2.7096    0.3954 C   0  0  0  0  0  0  0  0  0  0  0  0
   -3.4267   -2.0426    0.9524 H   0  0  0  0  0  0  0  0  0  0  0  0
   -3.0538   -2.7186   -0.6556 H   0  0  0  0  0  0  0  0  0  0  0  0
   -1.3498   -2.2206    0.5184 C   0  0  0  0  0  0  0  0  0  0  0  0
   -0.4997   -2.9426    1.0194 O   0  0  0  0  0  0  0  0  0  0  0  0
   -1.1198   -0.9926    0.0674 N   0  0  0  0  0  0  0  0  0  0  0  0
   -1.8978   -0.4486   -0.2716 H   0  0  0  0  0  0  0  0  0  0  0  0
    0.1693   -0.2866    0.0854 C   0  0  1  0  0  0  0  0  0  0  0  0
    0.6241   -0.3991    1.0711 H   0  0  0  0  0  0  0  0  0  0  0  0
    1.1128   -0.9219   -0.9588 C   0  0  0  0  0  0  0  0  0  0  0  0
    0.5915   -0.9737   -1.9163 H   0  0  0  0  0  0  0  0  0  0  0  0
    1.9824   -0.2739   -1.0877 H   0  0  0  0  0  0  0  0  0  0  0  0
    1.5861   -2.3417   -0.6102 C   0  0  0  0  0  0  0  0  0  0  0  0
    1.6805   -2.6619    0.5982 O   0  5  0  0  0  0  0  0  0  0  0  0
    1.8706   -3.0955   -1.5657 O   0  0  0  0  0  0  0  0  0  0  0  0
   -0.0578    1.2210   -0.1730 C   0  0  0  0  0  0  0  0  0  0  0  0
    0.8052    1.8952   -0.7476 O   0  0  0  0  0  0  0  0  0  0  0  0
   -1.2149    1.7560    0.2291 N   0  0  0  0  0  0  0  0  0  0  0  0
   -1.8248    1.1405    0.7705 H   0  0  0  0  0  0  0  0  0  0  0  0
   -1.5896    3.1584    0.0821 C   0  0  0  0  0  0  0  0  0  0  0  0
   -1.3375    3.5034   -0.9216 H   0  0  0  0  0  0  0  0  0  0  0  0
   -2.6604    3.2703    0.2500 H   0  0  0  0  0  0  0  0  0  0  0  0
   -1.0428    3.7549    0.8127 H   0  0  0  0  0  0  0  0  0  0  0  0
  5  6  2  0  0  0  0
  5  7  1  0  0  0  0
  2  3  1  0  0  0  0
  2  4  1  0  0  0  0
  2  5  1  0  0  0  0
  1  2  1  0  0  0  0
 17 18  2  0  0  0  0
 17 19  1  0  0  0  0
 14 15  1  0  0  0  0
 14 16  2  0  0  0  0
 11 12  1  0  0  0  0
 11 13  1  0  0  0  0
 11 14  1  0  0  0  0
  9 10  1  0  0  0  0
  9 11  1  0  0  0  0
  9 17  1  0  0  0  0
  7  8  1  0  0  0  0
  7  9  1  0  0  0  0
 21 22  1  0  0  0  0
 21 23  1  0  0  0  0
 21 24  1  0  0  0  0
 19 20  1  0  0  0  0
 19 21  1  0  0  0  0
M  CHG  1  15  -1
M  END
$$$$
default_name
  -OEChem-01062215323D

 24 23  0     1  0  0  0  0  0999 V2000
   -2.8347   -3.7166    0.8034 H   0  0  0  0  0  0  0  0  0  0  0  0
   -2.7728   -2.7096    0.3954 C   0  0  0  0  0  0  0  0  0  0  0  0
   -3.4267   -2.0426    0.9524 H   0  0  0  0  0  0  0  0  0  0  0  0
   -3.0538   -2.7186   -0.6556 H   0  0  0  0  0  0  0  0  0  0  0  0
   -1.3498   -2.2206    0.5184 C   0  0  0  0  0  0  0  0  0  0  0  0
   -0.4997   -2.9426    1.0194 O   0  0  0  0  0  0  0  0  0  0  0  0
   -1.1198   -0.9926    0.0674 N   0  0  0  0  0  0  0  0  0  0  0  0
   -1.8978   -0.4486   -0.2716 H   0  0  0  0  0  0  0  0  0  0  0  0
    0.1693   -0.2866    0.0854 C   0  0  1  0  0  0  0  0  0  0  0  0
    0.6241   -0.3991    1.0711 H   0  0  0  0  0  0  0  0  0  0  0  0
    1.1128   -0.9219   -0.9588 C   0  0  0  0  0  0  0  0  0  0  0  0
    0.5915   -0.9737   -1.9163 H   0  0  0  0  0  0  0  0  0  0  0  0
    1.9824   -0.2739   -1.0877 H   0  0  0  0  0  0  0  0  0  0  0  0
    1.5861   -2.3417   -0.6102 C   0  0  0  0  0  0  0  0  0  0  0  0
    1.6805   -2.6619    0.5982 O   0  5  0  0  0  0  0  0  0  0  0  0
    1.8706   -3.0955   -1.5657 O   0  0  0  0  0  0  0  0  0  0  0  0
   -0.0578    1.2210   -0.1730 C   0  0  0  0  0  0  0  0  0  0  0  0
    0.6568    1.8338   -0.9750 O   0  0  0  0  0  0  0  0  0  0  0  0
   -1.0540    1.8238    0.4834 N   0  0  0  0  0  0  0  0  0  0  0  0
   -1.5301    1.2563    1.1871 H   0  0  0  0  0  0  0  0  0  0  0  0
   -1.3996    3.2372    0.3745 C   0  0  0  0  0  0  0  0  0  0  0  0
   -1.3967    3.5368   -0.6744 H   0  0  0  0  0  0  0  0  0  0  0  0
   -2.3879    3.4058    0.8013 H   0  0  0  0  0  0  0  0  0  0  0  0
   -0.6632    3.8300    0.9174 H   0  0  0  0  0  0  0  0  0  0  0  0
  5  6  2  0  0  0  0
  5  7  1  0  0  0  0
  2  3  1  0  0  0  0
  2  4  1  0  0  0  0
  2  5  1  0  0  0  0
  1  2  1  0  0  0  0
 17 18  2  0  0  0  0
 17 19  1  0  0  0  0
 14 15  1  0  0  0  0
 14 16  2  0  0  0  0
 11 12  1  0  0  0  0
 11 13  1  0  0  0  0
 11 14  1  0  0  0  0
  9 10  1  0  0  0  0
  9 11  1  0  0  0  0
  9 17  1  0  0  0  0
  7  8  1  0  0  0  0
  7  9  1  0  0  0  0
 21 22  1  0  0  0  0
 21 23  1  0  0  0  0
 21 24  1  0  0  0  0
 19 20  1  0  0  0  0
 19 21  1  0  0  0  0
M  CHG  1  15  -1
M  END
$$$$
default_name
  -OEChem-01062215323D

 24 23  0     1  0  0  0  0  0999 V2000
   -2.8347   -3.7166    0.8034 H   0  0  0  0  0  0  0  0  0  0  0  0
   -2.7728   -2.7096    0.3954 C   0  0  0  0  0  0  0  0  0  0  0  0
   -3.4267   -2.0426    0.9524 H   0  0  0  0  0  0  0  0  0  0  0  0
   -3.0538   -2.7186   -0.6556 H   0  0  0  0  0  0  0  0  0  0  0  0
   -1.3498   -2.2206    0.5184 C   0  0  0  0  0  0  0  0  0  0  0  0
   -0.4997   -2.9426    1.0194 O   0  0  0  0  0  0  0  0  0  0  0  0
   -1.1198   -0.9926    0.0674 N   0  0  0  0  0  0  0  0  0  0  0  0
   -1.8978   -0.4486   -0.2716 H   0  0  0  0  0  0  0  0  0  0  0  0
    0.1693   -0.2866    0.0854 C   0  0  1  0  0  0  0  0  0  0  0  0
    0.6241   -0.3991    1.0711 H   0  0  0  0  0  0  0  0  0  0  0  0
    1.1128   -0.9219   -0.9588 C   0  0  0  0  0  0  0  0  0  0  0  0
    0.5915   -0.9737   -1.9163 H   0  0  0  0  0  0  0  0  0  0  0  0
    1.9824   -0.2739   -1.0877 H   0  0  0  0  0  0  0  0  0  0  0  0
    1.5861   -2.3417   -0.6102 C   0  0  0  0  0  0  0  0  0  0  0  0
    1.6805   -2.6619    0.5982 O   0  5  0  0  0  0  0  0  0  0  0  0
    1.8706   -3.0955   -1.5657 O   0  0  0  0  0  0  0  0  0  0  0  0
   -0.0578    1.2210   -0.1730 C   0  0  0  0  0  0  0  0  0  0  0  0
    0.4534    1.7724   -1.1549 O   0  0  0  0  0  0  0  0  0  0  0  0
   -0.8315    1.8921    0.6860 N   0  0  0  0  0  0  0  0  0  0  0  0
   -1.1353    1.3712    1.5108 H   0  0  0  0  0  0  0  0  0  0  0  0
   -1.1389    3.3161    0.6060 C   0  0  0  0  0  0  0  0  0  0  0  0
   -1.3901    3.5811   -0.4219 H   0  0  0  0  0  0  0  0  0  0  0  0
   -1.9797    3.5459    1.2599 H   0  0  0  0  0  0  0  0  0  0  0  0
   -0.2668    3.8901    0.9199 H   0  0  0  0  0  0  0  0  0  0  0  0
  5  6  2  0  0  0  0
  5  7  1  0  0  0  0
  2  3  1  0  0  0  0
  2  4  1  0  0  0  0
  2  5  1  0  0  0  0
  1  2  1  0  0  0  0
 17 18  2  0  0  0  0
 17 19  1  0  0  0  0
 14 15  1  0  0  0  0
 14 16  2  0  0  0  0
 11 12  1  0  0  0  0
 11 13  1  0  0  0  0
 11 14  1  0  0  0  0
  9 10  1  0  0  0  0
  9 11  1  0  0  0  0
  9 17  1  0  0  0  0
  7  8  1  0  0  0  0
  7  9  1  0  0  0  0
 21 22  1  0  0  0  0
 21 23  1  0  0  0  0
 21 24  1  0  0  0  0
 19 20  1  0  0  0  0
 19 21  1  0  0  0  0
M  CHG  1  15  -1
M  END
$$$$
default_name
  -OEChem-01062215323D

 24 23  0     1  0  0  0  0  0999 V2000
   -2.8347   -3.7166    0.8034 H   0  0  0  0  0  0  0  0  0  0  0  0
   -2.7728   -2.7096    0.3954 C   0  0  0  0  0  0  0  0  0  0  0  0
   -3.4267   -2.0426    0.9524 H   0  0  0  0  0  0  0  0  0  0  0  0
   -3.0538   -2.7186   -0.6556 H   0  0  0  0  0  0  0  0  0  0  0  0
   -1.3498   -2.2206    0.5184 C   0  0  0  0  0  0  0  0  0  0  0  0
   -0.4997   -2.9426    1.0194 O   0  0  0  0  0  0  0  0  0  0  0  0
   -1.1198   -0.9926    0.0674 N   0  0  0  0  0  0  0  0  0  0  0  0
   -1.8978   -0.4486   -0.2716 H   0  0  0  0  0  0  0  0  0  0  0  0
    0.1693   -0.2866    0.0854 C   0  0  1  0  0  0  0  0  0  0  0  0
    0.6241   -0.3991    1.0711 H   0  0  0  0  0  0  0  0  0  0  0  0
    1.1128   -0.9219   -0.9588 C   0  0  0  0  0  0  0  0  0  0  0  0
    0.5915   -0.9737   -1.9163 H   0  0  0  0  0  0  0  0  0  0  0  0
    1.9824   -0.2739   -1.0877 H   0  0  0  0  0  0  0  0  0  0  0  0
    1.5861   -2.3417   -0.6102 C   0  0  0  0  0  0  0  0  0  0  0  0
    1.6805   -2.6619    0.5982 O   0  5  0  0  0  0  0  0  0  0  0  0
    1.8706   -3.0955   -1.5657 O   0  0  0  0  0  0  0  0  0  0  0  0
   -0.0578    1.2210   -0.1730 C   0  0  0  0  0  0  0  0  0  0  0  0
    0.2090    1.7150   -1.2749 O   0  0  0  0  0  0  0  0  0  0  0  0
   -0.5624    1.9561    0.8229 N   0  0  0  0  0  0  0  0  0  0  0  0
   -0.6673    1.4775    1.7195 H   0  0  0  0  0  0  0  0  0  0  0  0
   -0.8252    3.3899    0.7608 C   0  0  0  0  0  0  0  0  0  0  0  0
   -1.3182    3.6332   -0.1814 H   0  0  0  0  0  0  0  0  0  0  0  0
   -1.4636    3.6810    1.5945 H   0  0  0  0  0  0  0  0  0  0  0  0
    0.1193    3.9311    0.8200 H   0  0  0  0  0  0  0  0  0  0  0  0
  5  6  2  0  0  0  0
  5  7  1  0  0  0  0
  2  3  1  0  0  0  0
  2  4  1  0  0  0  0
  2  5  1  0  0  0  0
  1  2  1  0  0  0  0
 17 18  2  0  0  0  0
 17 19  1  0  0  0  0
 14 15  1  0  0  0  0
 14 16  2  0  0  0  0
 11 12  1  0  0  0  0
 11 13  1  0  0  0  0
 11 14  1  0  0  0  0
  9 10  1  0  0  0  0
  9 11  1  0  0  0  0
  9 17  1  0  0  0  0
  7  8  1  0  0  0  0
  7  9  1  0  0  0  0
 21 22  1  0  0  0  0
 21 23  1  0  0  0  0
 21 24  1  0  0  0  0
 19 20  1  0  0  0  0
 19 21  1  0  0  0  0
M  CHG  1  15  -1
M  END
$$$$
default_name
  -OEChem-01062215323D

 24 23  0     1  0  0  0  0  0999 V2000
   -2.8347   -3.7166    0.8034 H   0  0  0  0  0  0  0  0  0  0  0  0
   -2.7728   -2.7096    0.3954 C   0  0  0  0  0  0  0  0  0  0  0  0
   -3.4267   -2.0426    0.9524 H   0  0  0  0  0  0  0  0  0  0  0  0
   -3.0538   -2.7186   -0.6556 H   0  0  0  0  0  0  0  0  0  0  0  0
   -1.3498   -2.2206    0.5184 C   0  0  0  0  0  0  0  0  0  0  0  0
   -0.4997   -2.9426    1.0194 O   0  0  0  0  0  0  0  0  0  0  0  0
   -1.1198   -0.9926    0.0674 N   0  0  0  0  0  0  0  0  0  0  0  0
   -1.8978   -0.4486   -0.2716 H   0  0  0  0  0  0  0  0  0  0  0  0
    0.1693   -0.2866    0.0854 C   0  0  1  0  0  0  0  0  0  0  0  0
    0.6241   -0.3991    1.0711 H   0  0  0  0  0  0  0  0  0  0  0  0
    1.1128   -0.9219   -0.9588 C   0  0  0  0  0  0  0  0  0  0  0  0
    0.5915   -0.9737   -1.9163 H   0  0  0  0  0  0  0  0  0  0  0  0
    1.9824   -0.2739   -1.0877 H   0  0  0  0  0  0  0  0  0  0  0  0
    1.5861   -2.3417   -0.6102 C   0  0  0  0  0  0  0  0  0  0  0  0
    1.6805   -2.6619    0.5982 O   0  5  0  0  0  0  0  0  0  0  0  0
    1.8706   -3.0955   -1.5657 O   0  0  0  0  0  0  0  0  0  0  0  0
   -0.0578    1.2210   -0.1730 C   0  0  0  0  0  0  0  0  0  0  0  0
   -0.0599    1.6656   -1.3271 O   0  0  0  0  0  0  0  0  0  0  0  0
   -0.2653    2.0114    0.8848 N   0  0  0  0  0  0  0  0  0  0  0  0
   -0.1580    1.5678    1.7989 H   0  0  0  0  0  0  0  0  0  0  0  0
   -0.4800    3.4535    0.8284 C   0  0  0  0  0  0  0  0  0  0  0  0
   -1.1857    3.6895    0.0308 H   0  0  0  0  0  0  0  0  0  0  0  0
   -0.8749    3.8019    1.7823 H   0  0  0  0  0  0  0  0  0  0  0  0
    0.4688    3.9503    0.6245 H   0  0  0  0  0  0  0  0  0  0  0  0
  5  6  2  0  0  0  0
  5  7  1  0  0  0  0
  2  3  1  0  0  0  0
  2  4  1  0  0  0  0
  2  5  1  0  0  0  0
  1  2  1  0  0  0  0
 17 18  2  0  0  0  0
 17 19  1  0  0  0  0
 14 15  1  0  0  0  0
 14 16  2  0  0  0  0
 11 12  1  0  0  0  0
 11 13  1  0  0  0  0
 11 14  1  0  0  0  0
  9 10  1  0  0  0  0
  9 11  1  0  0  0  0
  9 17  1  0  0  0  0
  7  8  1  0  0  0  0
  7  9  1  0  0  0  0
 21 22  1  0  0  0  0
 21 23  1  0  0  0  0
 21 24  1  0  0  0  0
 19 20  1  0  0  0  0
 19 21  1  0  0  0  0
M  CHG  1  15  -1
M  END
$$$$
default_name
  -OEChem-01062215323D

 24 23  0     1  0  0  0  0  0999 V2000
   -2.8347   -3.7166    0.8034 H   0  0  0  0  0  0  0  0  0  0  0  0
   -2.7728   -2.7096    0.3954 C   0  0  0  0  0  0  0  0  0  0  0  0
   -3.4267   -2.0426    0.9524 H   0  0  0  0  0  0  0  0  0  0  0  0
   -3.0538   -2.7186   -0.6556 H   0  0  0  0  0  0  0  0  0  0  0  0
   -1.3498   -2.2206    0.5184 C   0  0  0  0  0  0  0  0  0  0  0  0
   -0.4997   -2.9426    1.0194 O   0  0  0  0  0  0  0  0  0  0  0  0
   -1.1198   -0.9926    0.0674 N   0  0  0  0  0  0  0  0  0  0  0  0
   -1.8978   -0.4486   -0.2716 H   0  0  0  0  0  0  0  0  0  0  0  0
    0.1693   -0.2866    0.0854 C   0  0  1  0  0  0  0  0  0  0  0  0
    0.6241   -0.3991    1.0711 H   0  0  0  0  0  0  0  0  0  0  0  0
    1.1128   -0.9219   -0.9588 C   0  0  0  0  0  0  0  0  0  0  0  0
    0.5915   -0.9737   -1.9163 H   0  0  0  0  0  0  0  0  0  0  0  0
    1.9824   -0.2739   -1.0877 H   0  0  0  0  0  0  0  0  0  0  0  0
    1.5861   -2.3417   -0.6102 C   0  0  0  0  0  0  0  0  0  0  0  0
    1.6805   -2.6619    0.5982 O   0  5  0  0  0  0  0  0  0  0  0  0
    1.8706   -3.0955   -1.5657 O   0  0  0  0  0  0  0  0  0  0  0  0
   -0.0578    1.2210   -0.1730 C   0  0  0  0  0  0  0  0  0  0  0  0
   -0.3350    1.6275   -1.3077 O   0  0  0  0  0  0  0  0  0  0  0  0
    0.0398    2.0544    0.8675 N   0  0  0  0  0  0  0  0  0  0  0  0
    0.3578    1.6360    1.7437 H   0  0  0  0  0  0  0  0  0  0  0  0
   -0.1267    3.5025    0.8041 C   0  0  0  0  0  0  0  0  0  0  0  0
   -1.0017    3.7462    0.2002 H   0  0  0  0  0  0  0  0  0  0  0  0
   -0.2535    3.9003    1.8106 H   0  0  0  0  0  0  0  0  0  0  0  0
    0.7578    3.9462    0.3468 H   0  0  0  0  0  0  0  0  0  0  0  0
  5  6  2  0  0  0  0
  5  7  1  0  0  0  0
  2  3  1  0  0  0  0
  2  4  1  0  0  0  0
  2  5  1  0  0  0  0
  1  2  1  0  0  0  0
 17 18  2  0  0  0  0
 17 19  1  0  0  0  0
 14 15  1  0  0  0  0
 14 16  2  0  0  0  0
 11 12  1  0  0  0  0
 11 13  1  0  0  0  0
 11 14  1  0  0  0  0
  9 10  1  0  0  0  0
  9 11  1  0  0  0  0
  9 17  1  0  0  0  0
  7  8  1  0  0  0  0
  7  9  1  0  0  0  0
 21 22  1  0  0  0  0
 21 23  1  0  0  0  0
 21 24  1  0  0  0  0
 19 20  1  0  0  0  0
 19 21  1  0  0  0  0
M  CHG  1  15  -1
M  END
$$$$
default_name
  -OEChem-01062215323D

 24 23  0     1  0  0  0  0  0999 V2000
   -2.8347   -3.7166    0.8034 H   0  0  0  0  0  0  0  0  0  0  0  0
   -2.7728   -2.7096    0.3954 C   0  0  0  0  0  0  0  0  0  0  0  0
   -3.4267   -2.0426    0.9524 H   0  0  0  0  0  0  0  0  0  0  0  0
   -3.0538   -2.7186   -0.6556 H   0  0  0  0  0  0  0  0  0  0  0  0
   -1.3498   -2.2206    0.5184 C   0  0  0  0  0  0  0  0  0  0  0  0
   -0.4997   -2.9426    1.0194 O   0  0  0  0  0  0  0  0  0  0  0  0
   -1.1198   -0.9926    0.0674 N   0  0  0  0  0  0  0  0  0  0  0  0
   -1.8978   -0.4486   -0.2716 H   0  0  0  0  0  0  0  0  0  0  0  0
    0.1693   -0.2866    0.0854 C   0  0  1  0  0  0  0  0  0  0  0  0
    0.6241   -0.3991    1.0711 H   0  0  0  0  0  0  0  0  0  0  0  0
    1.1128   -0.9219   -0.9588 C   0  0  0  0  0  0  0  0  0  0  0  0
    0.5915   -0.9737   -1.9163 H   0  0  0  0  0  0  0  0  0  0  0  0
    1.9824   -0.2739   -1.0877 H   0  0  0  0  0  0  0  0  0  0  0  0
    1.5861   -2.3417   -0.6102 C   0  0  0  0  0  0  0  0  0  0  0  0
    1.6805   -2.6619    0.5982 O   0  5  0  0  0  0  0  0  0  0  0  0
    1.8706   -3.0955   -1.5657 O   0  0  0  0  0  0  0  0  0  0  0  0
   -0.0578    1.2210   -0.1730 C   0  0  0  0  0  0  0  0  0  0  0  0
   -0.5974    1.6033   -1.2181 O   0  0  0  0  0  0  0  0  0  0  0  0
    0.3319    2.0821    0.7722 N   0  0  0  0  0  0  0  0  0  0  0  0
    0.8452    1.6775    1.5576 H   0  0  0  0  0  0  0  0  0  0  0  0
    0.2105    3.5337    0.6897 C   0  0  0  0  0  0  0  0  0  0  0  0
   -0.7789    3.7995    0.3152 H   0  0  0  0  0  0  0  0  0  0  0  0
    0.3580    3.9696    1.6775 H   0  0  0  0  0  0  0  0  0  0  0  0
    0.9668    3.9192    0.0057 H   0  0  0  0  0  0  0  0  0  0  0  0
  5  6  2  0  0  0  0
  5  7  1  0  0  0  0
  2  3  1  0  0  0  0
  2  4  1  0  0  0  0
  2  5  1  0  0  0  0
  1  2  1  0  0  0  0
 17 18  2  0  0  0  0
 17 19  1  0  0  0  0
 14 15  1  0  0  0  0
 14 16  2  0  0  0  0
 11 12  1  0  0  0  0
 11 13  1  0  0  0  0
 11 14  1  0  0  0  0
  9 10  1  0  0  0  0
  9 11  1  0  0  0  0
  9 17  1  0  0  0  0
  7  8  1  0  0  0  0
  7  9  1  0  0  0  0
 21 22  1  0  0  0  0
 21 23  1  0  0  0  0
 21 24  1  0  0  0  0
 19 20  1  0  0  0  0
 19 21  1  0  0  0  0
M  CHG  1  15  -1
M  END
$$$$
default_name
  -OEChem-01062215323D

 24 23  0     1  0  0  0  0  0999 V2000
   -2.8347   -3.7166    0.8034 H   0  0  0  0  0  0  0  0  0  0  0  0
   -2.7728   -2.7096    0.3954 C   0  0  0  0  0  0  0  0  0  0  0  0
   -3.4267   -2.0426    0.9524 H   0  0  0  0  0  0  0  0  0  0  0  0
   -3.0538   -2.7186   -0.6556 H   0  0  0  0  0  0  0  0  0  0  0  0
   -1.3498   -2.2206    0.5184 C   0  0  0  0  0  0  0  0  0  0  0  0
   -0.4997   -2.9426    1.0194 O   0  0  0  0  0  0  0  0  0  0  0  0
   -1.1198   -0.9926    0.0674 N   0  0  0  0  0  0  0  0  0  0  0  0
   -1.8978   -0.4486   -0.2716 H   0  0  0  0  0  0  0  0  0  0  0  0
    0.1693   -0.2866    0.0854 C   0  0  1  0  0  0  0  0  0  0  0  0
    0.6241   -0.3991    1.0711 H   0  0  0  0  0  0  0  0  0  0  0  0
    1.1128   -0.9219   -0.9588 C   0  0  0  0  0  0  0  0  0  0  0  0
    0.5915   -0.9737   -1.9163 H   0  0  0  0  0  0  0  0  0  0  0  0
    1.9824   -0.2739   -1.0877 H   0  0  0  0  0  0  0  0  0  0  0  0
    1.5861   -2.3417   -0.6102 C   0  0  0  0  0  0  0  0  0  0  0  0
    1.6805   -2.6619    0.5982 O   0  5  0  0  0  0  0  0  0  0  0  0
    1.8706   -3.0955   -1.5657 O   0  0  0  0  0  0  0  0  0  0  0  0
   -0.0578    1.2210   -0.1730 C   0  0  0  0  0  0  0  0  0  0  0  0
   -0.8293    1.5947   -1.0644 O   0  0  0  0  0  0  0  0  0  0  0  0
    0.5913    2.0925    0.6053 N   0  0  0  0  0  0  0  0  0  0  0  0
    1.2707    1.6895    1.2533 H   0  0  0  0  0  0  0  0  0  0  0  0
    0.5087    3.5449    0.4929 C   0  0  0  0  0  0  0  0  0  0  0  0
   -0.5323    3.8457    0.3681 H   0  0  0  0  0  0  0  0  0  0  0  0
    0.9181    4.0050    1.3919 H   0  0  0  0  0  0  0  0  0  0  0  0
    1.0815    3.8711   -0.3754 H   0  0  0  0  0  0  0  0  0  0  0  0
  5  6  2  0  0  0  0
  5  7  1  0  0  0  0
  2  3  1  0  0  0  0
  2  4  1  0  0  0  0
  2  5  1  0  0  0  0
  1  2  1  0  0  0  0
 17 18  2  0  0  0  0
 17 19  1  0  0  0  0
 14 15  1  0  0  0  0
 14 16  2  0  0  0  0
 11 12  1  0  0  0  0
 11 13  1  0  0  0  0
 11 14  1  0  0  0  0
  9 10  1  0  0  0  0
  9 11  1  0  0  0  0
  9 17  1  0  0  0  0
  7  8  1  0  0  0  0
  7  9  1  0  0  0  0
 21 22  1  0  0  0  0
 21 23  1  0  0  0  0
 21 24  1  0  0  0  0
 19 20  1  0  0  0  0
 19 21  1  0  0  0  0
M  CHG  1  15  -1
M  END
$$$$
default_name
  -OEChem-01062215323D

 24 23  0     1  0  0  0  0  0999 V2000
   -2.8347   -3.7166    0.8034 H   0  0  0  0  0  0  0  0  0  0  0  0
   -2.7728   -2.7096    0.3954 C   0  0  0  0  0  0  0  0  0  0  0  0
   -3.4267   -2.0426    0.9524 H   0  0  0  0  0  0  0  0  0  0  0  0
   -3.0538   -2.7186   -0.6556 H   0  0  0  0  0  0  0  0  0  0  0  0
   -1.3498   -2.2206    0.5184 C   0  0  0  0  0  0  0  0  0  0  0  0
   -0.4997   -2.9426    1.0194 O   0  0  0  0  0  0  0  0  0  0  0  0
   -1.1198   -0.9926    0.0674 N   0  0  0  0  0  0  0  0  0  0  0  0
   -1.8978   -0.4486   -0.2716 H   0  0  0  0  0  0  0  0  0  0  0  0
    0.1693   -0.2866    0.0854 C   0  0  1  0  0  0  0  0  0  0  0  0
    0.6241   -0.3991    1.0711 H   0  0  0  0  0  0  0  0  0  0  0  0
    1.1128   -0.9219   -0.9588 C   0  0  0  0  0  0  0  0  0  0  0  0
    0.5915   -0.9737   -1.9163 H   0  0  0  0  0  0  0  0  0  0  0  0
    1.9824   -0.2739   -1.0877 H   0  0  0  0  0  0  0  0  0  0  0  0
    1.5861   -2.3417   -0.6102 C   0  0  0  0  0  0  0  0  0  0  0  0
    1.6805   -2.6619    0.5982 O   0  5  0  0  0  0  0  0  0  0  0  0
    1.8706   -3.0955   -1.5657 O   0  0  0  0  0  0  0  0  0  0  0  0
   -0.0578    1.2210   -0.1730 C   0  0  0  0  0  0  0  0  0  0  0  0
   -1.0149    1.6023   -0.8571 O   0  0  0  0  0  0  0  0  0  0  0  0
    0.8001    2.0851    0.3784 N   0  0  0  0  0  0  0  0  0  0  0  0
    1.6055    1.6710    0.8515 H   0  0  0  0  0  0  0  0  0  0  0  0
    0.7476    3.5353    0.2272 C   0  0  0  0  0  0  0  0  0  0  0  0
   -0.2788    3.8817    0.3552 H   0  0  0  0  0  0  0  0  0  0  0  0
    1.3886    4.0041    0.9733 H   0  0  0  0  0  0  0  0  0  0  0  0
    1.0939    3.8053   -0.7707 H   0  0  0  0  0  0  0  0  0  0  0  0
  5  6  2  0  0  0  0
  5  7  1  0  0  0  0
  2  3  1  0  0  0  0
  2  4  1  0  0  0  0
  2  5  1  0  0  0  0
  1  2  1  0  0  0  0
 17 18  2  0  0  0  0
 17 19  1  0  0  0  0
 14 15  1  0  0  0  0
 14 16  2  0  0  0  0
 11 12  1  0  0  0  0
 11 13  1  0  0  0  0
 11 14  1  0  0  0  0
  9 10  1  0  0  0  0
  9 11  1  0  0  0  0
  9 17  1  0  0  0  0
  7  8  1  0  0  0  0
  7  9  1  0  0  0  0
 21 22  1  0  0  0  0
 21 23  1  0  0  0  0
 21 24  1  0  0  0  0
 19 20  1  0  0  0  0
 19 21  1  0  0  0  0
M  CHG  1  15  -1
M  END
$$$$
default_name
  -OEChem-01062215323D

 24 23  0     1  0  0  0  0  0999 V2000
   -2.8347   -3.7166    0.8034 H   0  0  0  0  0  0  0  0  0  0  0  0
   -2.7728   -2.7096    0.3954 C   0  0  0  0  0  0  0  0  0  0  0  0
   -3.4267   -2.0426    0.9524 H   0  0  0  0  0  0  0  0  0  0  0  0
   -3.0538   -2.7186   -0.6556 H   0  0  0  0  0  0  0  0  0  0  0  0
   -1.3498   -2.2206    0.5184 C   0  0  0  0  0  0  0  0  0  0  0  0
   -0.4997   -2.9426    1.0194 O   0  0  0  0  0  0  0  0  0  0  0  0
   -1.1198   -0.9926    0.0674 N   0  0  0  0  0  0  0  0  0  0  0  0
   -1.8978   -0.4486   -0.2716 H   0  0  0  0  0  0  0  0  0  0  0  0
    0.1693   -0.2866    0.0854 C   0  0  1  0  0  0  0  0  0  0  0  0
    0.6241   -0.3991    1.0711 H   0  0  0  0  0  0  0  0  0  0  0  0
    1.1128   -0.9219   -0.9588 C   0  0  0  0  0  0  0  0  0  0  0  0
    0.5915   -0.9737   -1.9163 H   0  0  0  0  0  0  0  0  0  0  0  0
    1.9824   -0.2739   -1.0877 H   0  0  0  0  0  0  0  0  0  0  0  0
    1.5861   -2.3417   -0.6102 C   0  0  0  0  0  0  0  0  0  0  0  0
    1.6805   -2.6619    0.5982 O   0  5  0  0  0  0  0  0  0  0  0  0
    1.8706   -3.0955   -1.5657 O   0  0  0  0  0  0  0  0  0  0  0  0
   -0.0578    1.2210   -0.1730 C   0  0  0  0  0  0  0  0  0  0  0  0
   -1.1416    1.6255   -0.6104 O   0  0  0  0  0  0  0  0  0  0  0  0
    0.9443    2.0602    0.1067 N   0  0  0  0  0  0  0  0  0  0  0  0
    1.8267    1.6234    0.3797 H   0  0  0  0  0  0  0  0  0  0  0  0
    0.9109    3.5056   -0.0895 C   0  0  0  0  0  0  0  0  0  0  0  0
   -0.0356    3.9050    0.2773 H   0  0  0  0  0  0  0  0  0  0  0  0
    1.7374    3.9670    0.4504 H   0  0  0  0  0  0  0  0  0  0  0  0
    1.0034    3.7261   -1.1531 H   0  0  0  0  0  0  0  0  0  0  0  0
  5  6  2  0  0  0  0
  5  7  1  0  0  0  0
  2  3  1  0  0  0  0
  2  4  1  0  0  0  0
  2  5  1  0  0  0  0
  1  2  1  0  0  0  0
 17 18  2  0  0  0  0
 17 19  1  0  0  0  0
 14 15  1  0  0  0  0
 14 16  2  0  0  0  0
 11 12  1  0  0  0  0
 11 13  1  0  0  0  0
 11 14  1  0  0  0  0
  9 10  1  0  0  0  0
  9 11  1  0  0  0  0
  9 17  1  0  0  0  0
  7  8  1  0  0  0  0
  7  9  1  0  0  0  0
 21 22  1  0  0  0  0
 21 23  1  0  0  0  0
 21 24  1  0  0  0  0
 19 20  1  0  0  0  0
 19 21  1  0  0  0  0
M  CHG  1  15  -1
M  END
$$$$
default_name
  -OEChem-01062215323D

 24 23  0     1  0  0  0  0  0999 V2000
   -2.8347   -3.7166    0.8034 H   0  0  0  0  0  0  0  0  0  0  0  0
   -2.7728   -2.7096    0.3954 C   0  0  0  0  0  0  0  0  0  0  0  0
   -3.4267   -2.0426    0.9524 H   0  0  0  0  0  0  0  0  0  0  0  0
   -3.0538   -2.7186   -0.6556 H   0  0  0  0  0  0  0  0  0  0  0  0
   -1.3498   -2.2206    0.5184 C   0  0  0  0  0  0  0  0  0  0  0  0
   -0.4997   -2.9426    1.0194 O   0  0  0  0  0  0  0  0  0  0  0  0
   -1.1198   -0.9926    0.0674 N   0  0  0  0  0  0  0  0  0  0  0  0
   -1.8978   -0.4486   -0.2716 H   0  0  0  0  0  0  0  0  0  0  0  0
    0.1693   -0.2866    0.0854 C   0  0  1  0  0  0  0  0  0  0  0  0
    0.7422   -0.6117    0.9556 H   0  0  0  0  0  0  0  0  0  0  0  0
    0.9680   -0.6519   -1.1845 C   0  0  0  0  0  0  0  0  0  0  0  0
    0.3309   -0.4943   -2.0565 H   0  0  0  0  0  0  0  0  0  0  0  0
    1.8220    0.0236   -1.2696 H   0  0  0  0  0  0  0  0  0  0  0  0
    1.4653   -2.1053   -1.2290 C   0  0  0  0  0  0  0  0  0  0  0  0
    1.7060   -2.6895   -0.1463 O   0  5  0  0  0  0  0  0  0  0  0  0
    1.6199   -2.6176   -2.3585 O   0  0  0  0  0  0  0  0  0  0  0  0
   -0.0714    1.2361    0.2064 C   0  0  0  0  0  0  0  0  0  0  0  0
   -1.2212    1.6844    0.2863 O   0  0  0  0  0  0  0  0  0  0  0  0
    0.9985    2.0367    0.2375 N   0  0  0  0  0  0  0  0  0  0  0  0
    1.8992    1.5814    0.0776 H   0  0  0  0  0  0  0  0  0  0  0  0
    0.9579    3.4921    0.3316 C   0  0  0  0  0  0  0  0  0  0  0  0
    0.2344    3.7917    1.0910 H   0  0  0  0  0  0  0  0  0  0  0  0
    1.9453    3.8690    0.5970 H   0  0  0  0  0  0  0  0  0  0  0  0
    0.6576    3.9062   -0.6311 H   0  0  0  0  0  0  0  0  0  0  0  0
  5  6  2  0  0  0  0
  5  7  1  0  0  0  0
  2  3  1  0  0  0  0
  2  4  1  0  0  0  0
  2  5  1  0  0  0  0
  1  2  1  0  0  0  0
 17 18  2  0  0  0  0
 17 19  1  0  0  0  0
 14 15  1  0  0  0  0
 14 16  2  0  0  0  0
 11 12  1  0  0  0  0
 11 13  1  0  0  0  0
 11 14  1  0  0  0  0
  9 10  1  0  0  0  0
  9 11  1  0  0  0  0
  9 17  1  0  0  0  0
  7  8  1  0  0  0  0
  7  9  1  0  0  0  0
 21 22  1  0  0  0  0
 21 23  1  0  0  0  0
 21 24  1  0  0  0  0
 19 20  1  0  0  0  0
 19 21  1  0  0  0  0
M  CHG  1  15  -1
M  END
$$$$
default_name
  -OEChem-01062215323D

 24 23  0     1  0  0  0  0  0999 V2000
   -2.8347   -3.7166    0.8034 H   0  0  0  0  0  0  0  0  0  0  0  0
   -2.7728   -2.7096    0.3954 C   0  0  0  0  0  0  0  0  0  0  0  0
   -3.4267   -2.0426    0.9524 H   0  0  0  0  0  0  0  0  0  0  0  0
   -3.0538   -2.7186   -0.6556 H   0  0  0  0  0  0  0  0  0  0  0  0
   -1.3498   -2.2206    0.5184 C   0  0  0  0  0  0  0  0  0  0  0  0
   -0.4997   -2.9426    1.0194 O   0  0  0  0  0  0  0  0  0  0  0  0
   -1.1198   -0.9926    0.0674 N   0  0  0  0  0  0  0  0  0  0  0  0
   -1.8978   -0.4486   -0.2716 H   0  0  0  0  0  0  0  0  0  0  0  0
    0.1693   -0.2866    0.0854 C   0  0  1  0  0  0  0  0  0  0  0  0
    0.7422   -0.6117    0.9556 H   0  0  0  0  0  0  0  0  0  0  0  0
    0.9680   -0.6519   -1.1845 C   0  0  0  0  0  0  0  0  0  0  0  0
    0.3309   -0.4943   -2.0565 H   0  0  0  0  0  0  0  0  0  0  0  0
    1.8220    0.0236   -1.2696 H   0  0  0  0  0  0  0  0  0  0  0  0
    1.4653   -2.1053   -1.2290 C   0  0  0  0  0  0  0  0  0  0  0  0
    1.7060   -2.6895   -0.1463 O   0  5  0  0  0  0  0  0  0  0  0  0
    1.6199   -2.6176   -2.3585 O   0  0  0  0  0  0  0  0  0  0  0  0
   -0.0714    1.2361    0.2064 C   0  0  0  0  0  0  0  0  0  0  0  0
   -1.1741    1.6700    0.5602 O   0  0  0  0  0  0  0  0  0  0  0  0
    0.9505    2.0533   -0.0668 N   0  0  0  0  0  0  0  0  0  0  0  0
    1.7921    1.6051   -0.4341 H   0  0  0  0  0  0  0  0  0  0  0  0
    0.8981    3.5107   -0.0203 C   0  0  0  0  0  0  0  0  0  0  0  0
    0.3842    3.8316    0.8867 H   0  0  0  0  0  0  0  0  0  0  0  0
    1.9105    3.9134   -0.0301 H   0  0  0  0  0  0  0  0  0  0  0  0
    0.3522    3.8785   -0.8893 H   0  0  0  0  0  0  0  0  0  0  0  0
  5  6  2  0  0  0  0
  5  7  1  0  0  0  0
  2  3  1  0  0  0  0
  2  4  1  0  0  0  0
  2  5  1  0  0  0  0
  1  2  1  0  0  0  0
 17 18  2  0  0  0  0
 17 19  1  0  0  0  0
 14 15  1  0  0  0  0
 14 16  2  0  0  0  0
 11 12  1  0  0  0  0
 11 13  1  0  0  0  0
 11 14  1  0  0  0  0
  9 10  1  0  0  0  0
  9 11  1  0  0  0  0
  9 17  1  0  0  0  0
  7  8  1  0  0  0  0
  7  9  1  0  0  0  0
 21 22  1  0  0  0  0
 21 23  1  0  0  0  0
 21 24  1  0  0  0  0
 19 20  1  0  0  0  0
 19 21  1  0  0  0  0
M  CHG  1  15  -1
M  END
$$$$
default_name
  -OEChem-01062215323D

 24 23  0     1  0  0  0  0  0999 V2000
   -2.8347   -3.7166    0.8034 H   0  0  0  0  0  0  0  0  0  0  0  0
   -2.7728   -2.7096    0.3954 C   0  0  0  0  0  0  0  0  0  0  0  0
   -3.4267   -2.0426    0.9524 H   0  0  0  0  0  0  0  0  0  0  0  0
   -3.0538   -2.7186   -0.6556 H   0  0  0  0  0  0  0  0  0  0  0  0
   -1.3498   -2.2206    0.5184 C   0  0  0  0  0  0  0  0  0  0  0  0
   -0.4997   -2.9426    1.0194 O   0  0  0  0  0  0  0  0  0  0  0  0
   -1.1198   -0.9926    0.0674 N   0  0  0  0  0  0  0  0  0  0  0  0
   -1.8978   -0.4486   -0.2716 H   0  0  0  0  0  0  0  0  0  0  0  0
    0.1693   -0.2866    0.0854 C   0  0  1  0  0  0  0  0  0  0  0  0
    0.7422   -0.6117    0.9556 H   0  0  0  0  0  0  0  0  0  0  0  0
    0.9680   -0.6519   -1.1845 C   0  0  0  0  0  0  0  0  0  0  0  0
    0.3309   -0.4943   -2.0565 H   0  0  0  0  0  0  0  0  0  0  0  0
    1.8220    0.0236   -1.2696 H   0  0  0  0  0  0  0  0  0  0  0  0
    1.4653   -2.1053   -1.2290 C   0  0  0  0  0  0  0  0  0  0  0  0
    1.7060   -2.6895   -0.1463 O   0  5  0  0  0  0  0  0  0  0  0  0
    1.6199   -2.6176   -2.3585 O   0  0  0  0  0  0  0  0  0  0  0  0
   -0.0714    1.2361    0.2064 C   0  0  0  0  0  0  0  0  0  0  0  0
   -1.0585    1.6682    0.8134 O   0  0  0  0  0  0  0  0  0  0  0  0
    0.8261    2.0561   -0.3492 N   0  0  0  0  0  0  0  0  0  0  0  0
    1.5577    1.6053   -0.9020 H   0  0  0  0  0  0  0  0  0  0  0  0
    0.7502    3.5132   -0.3458 C   0  0  0  0  0  0  0  0  0  0  0  0
    0.4760    3.8650    0.6497 H   0  0  0  0  0  0  0  0  0  0  0  0
    1.7162    3.9303   -0.6289 H   0  0  0  0  0  0  0  0  0  0  0  0
   -0.0080    3.8351   -1.0599 H   0  0  0  0  0  0  0  0  0  0  0  0
  5  6  2  0  0  0  0
  5  7  1  0  0  0  0
  2  3  1  0  0  0  0
  2  4  1  0  0  0  0
  2  5  1  0  0  0  0
  1  2  1  0  0  0  0
 17 18  2  0  0  0  0
 17 19  1  0  0  0  0
 14 15  1  0  0  0  0
 14 16  2  0  0  0  0
 11 12  1  0  0  0  0
 11 13  1  0  0  0  0
 11 14  1  0  0  0  0
  9 10  1  0  0  0  0
  9 11  1  0  0  0  0
  9 17  1  0  0  0  0
  7  8  1  0  0  0  0
  7  9  1  0  0  0  0
 21 22  1  0  0  0  0
 21 23  1  0  0  0  0
 21 24  1  0  0  0  0
 19 20  1  0  0  0  0
 19 21  1  0  0  0  0
M  CHG  1  15  -1
M  END
$$$$
default_name
  -OEChem-01062215323D

 24 23  0     1  0  0  0  0  0999 V2000
   -2.8347   -3.7166    0.8034 H   0  0  0  0  0  0  0  0  0  0  0  0
   -2.7728   -2.7096    0.3954 C   0  0  0  0  0  0  0  0  0  0  0  0
   -3.4267   -2.0426    0.9524 H   0  0  0  0  0  0  0  0  0  0  0  0
   -3.0538   -2.7186   -0.6556 H   0  0  0  0  0  0  0  0  0  0  0  0
   -1.3498   -2.2206    0.5184 C   0  0  0  0  0  0  0  0  0  0  0  0
   -0.4997   -2.9426    1.0194 O   0  0  0  0  0  0  0  0  0  0  0  0
   -1.1198   -0.9926    0.0674 N   0  0  0  0  0  0  0  0  0  0  0  0
   -1.8978   -0.4486   -0.2716 H   0  0  0  0  0  0  0  0  0  0  0  0
    0.1693   -0.2866    0.0854 C   0  0  1  0  0  0  0  0  0  0  0  0
    0.7422   -0.6117    0.9556 H   0  0  0  0  0  0  0  0  0  0  0  0
    0.9680   -0.6519   -1.1845 C   0  0  0  0  0  0  0  0  0  0  0  0
    0.3309   -0.4943   -2.0565 H   0  0  0  0  0  0  0  0  0  0  0  0
    1.8220    0.0236   -1.2696 H   0  0  0  0  0  0  0  0  0  0  0  0
    1.4653   -2.1053   -1.2290 C   0  0  0  0  0  0  0  0  0  0  0  0
    1.7060   -2.6895   -0.1463 O   0  5  0  0  0  0  0  0  0  0  0  0
    1.6199   -2.6176   -2.3585 O   0  0  0  0  0  0  0  0  0  0  0  0
   -0.0714    1.2361    0.2064 C   0  0  0  0  0  0  0  0  0  0  0  0
   -0.8823    1.6789    1.0286 O   0  0  0  0  0  0  0  0  0  0  0  0
    0.6340    2.0449   -0.5904 N   0  0  0  0  0  0  0  0  0  0  0  0
    1.2121    1.5818   -1.2942 H   0  0  0  0  0  0  0  0  0  0  0  0
    0.5244    3.4995   -0.6225 C   0  0  0  0  0  0  0  0  0  0  0  0
    0.5036    3.8895    0.3959 H   0  0  0  0  0  0  0  0  0  0  0  0
    1.3756    3.9185   -1.1584 H   0  0  0  0  0  0  0  0  0  0  0  0
   -0.3986    3.7790   -1.1310 H   0  0  0  0  0  0  0  0  0  0  0  0
  5  6  2  0  0  0  0
  5  7  1  0  0  0  0
  2  3  1  0  0  0  0
  2  4  1  0  0  0  0
  2  5  1  0  0  0  0
  1  2  1  0  0  0  0
 17 18  2  0  0  0  0
 17 19  1  0  0  0  0
 14 15  1  0  0  0  0
 14 16  2  0  0  0  0
 11 12  1  0  0  0  0
 11 13  1  0  0  0  0
 11 14  1  0  0  0  0
  9 10  1  0  0  0  0
  9 11  1  0  0  0  0
  9 17  1  0  0  0  0
  7  8  1  0  0  0  0
  7  9  1  0  0  0  0
 21 22  1  0  0  0  0
 21 23  1  0  0  0  0
 21 24  1  0  0  0  0
 19 20  1  0  0  0  0
 19 21  1  0  0  0  0
M  CHG  1  15  -1
M  END
$$$$
default_name
  -OEChem-01062215323D

 24 23  0     1  0  0  0  0  0999 V2000
   -2.8347   -3.7166    0.8034 H   0  0  0  0  0  0  0  0  0  0  0  0
   -2.7728   -2.7096    0.3954 C   0  0  0  0  0  0  0  0  0  0  0  0
   -3.4267   -2.0426    0.9524 H   0  0  0  0  0  0  0  0  0  0  0  0
   -3.0538   -2.7186   -0.6556 H   0  0  0  0  0  0  0  0  0  0  0  0
   -1.3498   -2.2206    0.5184 C   0  0  0  0  0  0  0  0  0  0  0  0
   -0.4997   -2.9426    1.0194 O   0  0  0  0  0  0  0  0  0  0  0  0
   -1.1198   -0.9926    0.0674 N   0  0  0  0  0  0  0  0  0  0  0  0
   -1.8978   -0.4486   -0.2716 H   0  0  0  0  0  0  0  0  0  0  0  0
    0.1693   -0.2866    0.0854 C   0  0  1  0  0  0  0  0  0  0  0  0
    0.7422   -0.6117    0.9556 H   0  0  0  0  0  0  0  0  0  0  0  0
    0.9680   -0.6519   -1.1845 C   0  0  0  0  0  0  0  0  0  0  0  0
    0.3309   -0.4943   -2.0565 H   0  0  0  0  0  0  0  0  0  0  0  0
    1.8220    0.0236   -1.2696 H   0  0  0  0  0  0  0  0  0  0  0  0
    1.4653   -2.1053   -1.2290 C   0  0  0  0  0  0  0  0  0  0  0  0
    1.7060   -2.6895   -0.1463 O   0  5  0  0  0  0  0  0  0  0  0  0
    1.6199   -2.6176   -2.3585 O   0  0  0  0  0  0  0  0  0  0  0  0
   -0.0714    1.2361    0.2064 C   0  0  0  0  0  0  0  0  0  0  0  0
   -0.6574    1.7016    1.1910 O   0  0  0  0  0  0  0  0  0  0  0  0
    0.3872    2.0205   -0.7739 N   0  0  0  0  0  0  0  0  0  0  0  0
    0.7788    1.5364   -1.5841 H   0  0  0  0  0  0  0  0  0  0  0  0
    0.2360    3.4705   -0.8318 C   0  0  0  0  0  0  0  0  0  0  0  0
    0.4651    3.9035    0.1428 H   0  0  0  0  0  0  0  0  0  0  0  0
    0.9119    3.8790   -1.5825 H   0  0  0  0  0  0  0  0  0  0  0  0
   -0.7928    3.7141   -1.0979 H   0  0  0  0  0  0  0  0  0  0  0  0
  5  6  2  0  0  0  0
  5  7  1  0  0  0  0
  2  3  1  0  0  0  0
  2  4  1  0  0  0  0
  2  5  1  0  0  0  0
  1  2  1  0  0  0  0
 17 18  2  0  0  0  0
 17 19  1  0  0  0  0
 14 15  1  0  0  0  0
 14 16  2  0  0  0  0
 11 12  1  0  0  0  0
 11 13  1  0  0  0  0
 11 14  1  0  0  0  0
  9 10  1  0  0  0  0
  9 11  1  0  0  0  0
  9 17  1  0  0  0  0
  7  8  1  0  0  0  0
  7  9  1  0  0  0  0
 21 22  1  0  0  0  0
 21 23  1  0  0  0  0
 21 24  1  0  0  0  0
 19 20  1  0  0  0  0
 19 21  1  0  0  0  0
M  CHG  1  15  -1
M  END
$$$$
default_name
  -OEChem-01062215323D

 24 23  0     1  0  0  0  0  0999 V2000
   -2.8347   -3.7166    0.8034 H   0  0  0  0  0  0  0  0  0  0  0  0
   -2.7728   -2.7096    0.3954 C   0  0  0  0  0  0  0  0  0  0  0  0
   -3.4267   -2.0426    0.9524 H   0  0  0  0  0  0  0  0  0  0  0  0
   -3.0538   -2.7186   -0.6556 H   0  0  0  0  0  0  0  0  0  0  0  0
   -1.3498   -2.2206    0.5184 C   0  0  0  0  0  0  0  0  0  0  0  0
   -0.4997   -2.9426    1.0194 O   0  0  0  0  0  0  0  0  0  0  0  0
   -1.1198   -0.9926    0.0674 N   0  0  0  0  0  0  0  0  0  0  0  0
   -1.8978   -0.4486   -0.2716 H   0  0  0  0  0  0  0  0  0  0  0  0
    0.1693   -0.2866    0.0854 C   0  0  1  0  0  0  0  0  0  0  0  0
    0.7422   -0.6117    0.9556 H   0  0  0  0  0  0  0  0  0  0  0  0
    0.9680   -0.6519   -1.1845 C   0  0  0  0  0  0  0  0  0  0  0  0
    0.3309   -0.4943   -2.0565 H   0  0  0  0  0  0  0  0  0  0  0  0
    1.8220    0.0236   -1.2696 H   0  0  0  0  0  0  0  0  0  0  0  0
    1.4653   -2.1053   -1.2290 C   0  0  0  0  0  0  0  0  0  0  0  0
    1.7060   -2.6895   -0.1463 O   0  5  0  0  0  0  0  0  0  0  0  0
    1.6199   -2.6176   -2.3585 O   0  0  0  0  0  0  0  0  0  0  0  0
   -0.0714    1.2361    0.2064 C   0  0  0  0  0  0  0  0  0  0  0  0
   -0.3992    1.7345    1.2898 O   0  0  0  0  0  0  0  0  0  0  0  0
    0.1025    1.9845   -0.8873 N   0  0  0  0  0  0  0  0  0  0  0  0
    0.2872    1.4721   -1.7518 H   0  0  0  0  0  0  0  0  0  0  0  0
   -0.0954    3.4283   -0.9592 C   0  0  0  0  0  0  0  0  0  0  0  0
    0.3631    3.9061   -0.0924 H   0  0  0  0  0  0  0  0  0  0  0  0
    0.3567    3.8143   -1.8725 H   0  0  0  0  0  0  0  0  0  0  0  0
   -1.1638    3.6447   -0.9629 H   0  0  0  0  0  0  0  0  0  0  0  0
  5  6  2  0  0  0  0
  5  7  1  0  0  0  0
  2  3  1  0  0  0  0
  2  4  1  0  0  0  0
  2  5  1  0  0  0  0
  1  2  1  0  0  0  0
 17 18  2  0  0  0  0
 17 19  1  0  0  0  0
 14 15  1  0  0  0  0
 14 16  2  0  0  0  0
 11 12  1  0  0  0  0
 11 13  1  0  0  0  0
 11 14  1  0  0  0  0
  9 10  1  0  0  0  0
  9 11  1  0  0  0  0
  9 17  1  0  0  0  0
  7  8  1  0  0  0  0
  7  9  1  0  0  0  0
 21 22  1  0  0  0  0
 21 23  1  0  0  0  0
 21 24  1  0  0  0  0
 19 20  1  0  0  0  0
 19 21  1  0  0  0  0
M  CHG  1  15  -1
M  END
$$$$
default_name
  -OEChem-01062215323D

 24 23  0     1  0  0  0  0  0999 V2000
   -2.8347   -3.7166    0.8034 H   0  0  0  0  0  0  0  0  0  0  0  0
   -2.7728   -2.7096    0.3954 C   0  0  0  0  0  0  0  0  0  0  0  0
   -3.4267   -2.0426    0.9524 H   0  0  0  0  0  0  0  0  0  0  0  0
   -3.0538   -2.7186   -0.6556 H   0  0  0  0  0  0  0  0  0  0  0  0
   -1.3498   -2.2206    0.5184 C   0  0  0  0  0  0  0  0  0  0  0  0
   -0.4997   -2.9426    1.0194 O   0  0  0  0  0  0  0  0  0  0  0  0
   -1.1198   -0.9926    0.0674 N   0  0  0  0  0  0  0  0  0  0  0  0
   -1.8978   -0.4486   -0.2716 H   0  0  0  0  0  0  0  0  0  0  0  0
    0.1693   -0.2866    0.0854 C   0  0  1  0  0  0  0  0  0  0  0  0
    0.7422   -0.6117    0.9556 H   0  0  0  0  0  0  0  0  0  0  0  0
    0.9680   -0.6519   -1.1845 C   0  0  0  0  0  0  0  0  0  0  0  0
    0.3309   -0.4943   -2.0565 H   0  0  0  0  0  0  0  0  0  0  0  0
    1.8220    0.0236   -1.2696 H   0  0  0  0  0  0  0  0  0  0  0  0
    1.4653   -2.1053   -1.2290 C   0  0  0  0  0  0  0  0  0  0  0  0
    1.7060   -2.6895   -0.1463 O   0  5  0  0  0  0  0  0  0  0  0  0
    1.6199   -2.6176   -2.3585 O   0  0  0  0  0  0  0  0  0  0  0  0
   -0.0714    1.2361    0.2064 C   0  0  0  0  0  0  0  0  0  0  0  0
   -0.1254    1.7755    1.3180 O   0  0  0  0  0  0  0  0  0  0  0  0
   -0.2006    1.9394   -0.9229 N   0  0  0  0  0  0  0  0  0  0  0  0
   -0.2290    1.3932   -1.7859 H   0  0  0  0  0  0  0  0  0  0  0  0
   -0.4470    3.3756   -0.9961 C   0  0  0  0  0  0  0  0  0  0  0  0
    0.2046    3.8971   -0.2937 H   0  0  0  0  0  0  0  0  0  0  0  0
   -0.2522    3.7288   -2.0084 H   0  0  0  0  0  0  0  0  0  0  0  0
   -1.4864    3.5756   -0.7351 H   0  0  0  0  0  0  0  0  0  0  0  0
  5  6  2  0  0  0  0
  5  7  1  0  0  0  0
  2  3  1  0  0  0  0
  2  4  1  0  0  0  0
  2  5  1  0  0  0  0
  1  2  1  0  0  0  0
 17 18  2  0  0  0  0
 17 19  1  0  0  0  0
 14 15  1  0  0  0  0
 14 16  2  0  0  0  0
 11 12  1  0  0  0  0
 11 13  1  0  0  0  0
 11 14  1  0  0  0  0
  9 10  1  0  0  0  0
  9 11  1  0  0  0  0
  9 17  1  0  0  0  0
  7  8  1  0  0  0  0
  7  9  1  0  0  0  0
 21 22  1  0  0  0  0
 21 23  1  0  0  0  0
 21 24  1  0  0  0  0
 19 20  1  0  0  0  0
 19 21  1  0  0  0  0
M  CHG  1  15  -1
M  END
$$$$
default_name
  -OEChem-01062215323D

 24 23  0     1  0  0  0  0  0999 V2000
   -2.8347   -3.7166    0.8034 H   0  0  0  0  0  0  0  0  0  0  0  0
   -2.7728   -2.7096    0.3954 C   0  0  0  0  0  0  0  0  0  0  0  0
   -3.4267   -2.0426    0.9524 H   0  0  0  0  0  0  0  0  0  0  0  0
   -3.0538   -2.7186   -0.6556 H   0  0  0  0  0  0  0  0  0  0  0  0
   -1.3498   -2.2206    0.5184 C   0  0  0  0  0  0  0  0  0  0  0  0
   -0.4997   -2.9426    1.0194 O   0  0  0  0  0  0  0  0  0  0  0  0
   -1.1198   -0.9926    0.0674 N   0  0  0  0  0  0  0  0  0  0  0  0
   -1.8978   -0.4486   -0.2716 H   0  0  0  0  0  0  0  0  0  0  0  0
    0.1693   -0.2866    0.0854 C   0  0  1  0  0  0  0  0  0  0  0  0
    0.7422   -0.6117    0.9556 H   0  0  0  0  0  0  0  0  0  0  0  0
    0.9680   -0.6519   -1.1845 C   0  0  0  0  0  0  0  0  0  0  0  0
    0.3309   -0.4943   -2.0565 H   0  0  0  0  0  0  0  0  0  0  0  0
    1.8220    0.0236   -1.2696 H   0  0  0  0  0  0  0  0  0  0  0  0
    1.4653   -2.1053   -1.2290 C   0  0  0  0  0  0  0  0  0  0  0  0
    1.7060   -2.6895   -0.1463 O   0  5  0  0  0  0  0  0  0  0  0  0
    1.6199   -2.6176   -2.3585 O   0  0  0  0  0  0  0  0  0  0  0  0
   -0.0714    1.2361    0.2064 C   0  0  0  0  0  0  0  0  0  0  0  0
    0.1455    1.8219    1.2738 O   0  0  0  0  0  0  0  0  0  0  0  0
   -0.5016    1.8883   -0.8781 N   0  0  0  0  0  0  0  0  0  0  0  0
   -0.7347    1.3052   -1.6841 H   0  0  0  0  0  0  0  0  0  0  0  0
   -0.7950    3.3162   -0.9401 C   0  0  0  0  0  0  0  0  0  0  0  0
    0.0003    3.8770   -0.4474 H   0  0  0  0  0  0  0  0  0  0  0  0
   -0.8733    3.6285   -1.9811 H   0  0  0  0  0  0  0  0  0  0  0  0
   -1.7386    3.5115   -0.4301 H   0  0  0  0  0  0  0  0  0  0  0  0
  5  6  2  0  0  0  0
  5  7  1  0  0  0  0
  2  3  1  0  0  0  0
  2  4  1  0  0  0  0
  2  5  1  0  0  0  0
  1  2  1  0  0  0  0
 17 18  2  0  0  0  0
 17 19  1  0  0  0  0
 14 15  1  0  0  0  0
 14 16  2  0  0  0  0
 11 12  1  0  0  0  0
 11 13  1  0  0  0  0
 11 14  1  0  0  0  0
  9 10  1  0  0  0  0
  9 11  1  0  0  0  0
  9 17  1  0  0  0  0
  7  8  1  0  0  0  0
  7  9  1  0  0  0  0
 21 22  1  0  0  0  0
 21 23  1  0  0  0  0
 21 24  1  0  0  0  0
 19 20  1  0  0  0  0
 19 21  1  0  0  0  0
M  CHG  1  15  -1
M  END
$$$$
default_name
  -OEChem-01062215323D

 24 23  0     1  0  0  0  0  0999 V2000
   -2.8347   -3.7166    0.8034 H   0  0  0  0  0  0  0  0  0  0  0  0
   -2.7728   -2.7096    0.3954 C   0  0  0  0  0  0  0  0  0  0  0  0
   -3.4267   -2.0426    0.9524 H   0  0  0  0  0  0  0  0  0  0  0  0
   -3.0538   -2.7186   -0.6556 H   0  0  0  0  0  0  0  0  0  0  0  0
   -1.3498   -2.2206    0.5184 C   0  0  0  0  0  0  0  0  0  0  0  0
   -0.4997   -2.9426    1.0194 O   0  0  0  0  0  0  0  0  0  0  0  0
   -1.1198   -0.9926    0.0674 N   0  0  0  0  0  0  0  0  0  0  0  0
   -1.8978   -0.4486   -0.2716 H   0  0  0  0  0  0  0  0  0  0  0  0
    0.1693   -0.2866    0.0854 C   0  0  1  0  0  0  0  0  0  0  0  0
    0.7422   -0.6117    0.9556 H   0  0  0  0  0  0  0  0  0  0  0  0
    0.9680   -0.6519   -1.1845 C   0  0  0  0  0  0  0  0  0  0  0  0
    0.3309   -0.4943   -2.0565 H   0  0  0  0  0  0  0  0  0  0  0  0
    1.8220    0.0236   -1.2696 H   0  0  0  0  0  0  0  0  0  0  0  0
    1.4653   -2.1053   -1.2290 C   0  0  0  0  0  0  0  0  0  0  0  0
    1.7060   -2.6895   -0.1463 O   0  5  0  0  0  0  0  0  0  0  0  0
    1.6199   -2.6176   -2.3585 O   0  0  0  0  0  0  0  0  0  0  0  0
   -0.0714    1.2361    0.2064 C   0  0  0  0  0  0  0  0  0  0  0  0
    0.3949    1.8703    1.1603 O   0  0  0  0  0  0  0  0  0  0  0  0
   -0.7799    1.8346   -0.7561 N   0  0  0  0  0  0  0  0  0  0  0  0
   -1.1954    1.2140   -1.4534 H   0  0  0  0  0  0  0  0  0  0  0  0
   -1.1157    3.2540   -0.7948 C   0  0  0  0  0  0  0  0  0  0  0  0
   -0.2357    3.8473   -0.5430 H   0  0  0  0  0  0  0  0  0  0  0  0
   -1.4642    3.5201   -1.7924 H   0  0  0  0  0  0  0  0  0  0  0  0
   -1.9031    3.4568   -0.0686 H   0  0  0  0  0  0  0  0  0  0  0  0
  5  6  2  0  0  0  0
  5  7  1  0  0  0  0
  2  3  1  0  0  0  0
  2  4  1  0  0  0  0
  2  5  1  0  0  0  0
  1  2  1  0  0  0  0
 17 18  2  0  0  0  0
 17 19  1  0  0  0  0
 14 15  1  0  0  0  0
 14 16  2  0  0  0  0
 11 12  1  0  0  0  0
 11 13  1  0  0  0  0
 11 14  1  0  0  0  0
  9 10  1  0  0  0  0
  9 11  1  0  0  0  0
  9 17  1  0  0  0  0
  7  8  1  0  0  0  0
  7  9  1  0  0  0  0
 21 22  1  0  0  0  0
 21 23  1  0  0  0  0
 21 24  1  0  0  0  0
 19 20  1  0  0  0  0
 19 21  1  0  0  0  0
M  CHG  1  15  -1
M  END
$$$$
default_name
  -OEChem-01062215323D

 24 23  0     1  0  0  0  0  0999 V2000
   -2.8347   -3.7166    0.8034 H   0  0  0  0  0  0  0  0  0  0  0  0
   -2.7728   -2.7096    0.3954 C   0  0  0  0  0  0  0  0  0  0  0  0
   -3.4267   -2.0426    0.9524 H   0  0  0  0  0  0  0  0  0  0  0  0
   -3.0538   -2.7186   -0.6556 H   0  0  0  0  0  0  0  0  0  0  0  0
   -1.3498   -2.2206    0.5184 C   0  0  0  0  0  0  0  0  0  0  0  0
   -0.4997   -2.9426    1.0194 O   0  0  0  0  0  0  0  0  0  0  0  0
   -1.1198   -0.9926    0.0674 N   0  0  0  0  0  0  0  0  0  0  0  0
   -1.8978   -0.4486   -0.2716 H   0  0  0  0  0  0  0  0  0  0  0  0
    0.1693   -0.2866    0.0854 C   0  0  1  0  0  0  0  0  0  0  0  0
    0.7422   -0.6117    0.9556 H   0  0  0  0  0  0  0  0  0  0  0  0
    0.9680   -0.6519   -1.1845 C   0  0  0  0  0  0  0  0  0  0  0  0
    0.3309   -0.4943   -2.0565 H   0  0  0  0  0  0  0  0  0  0  0  0
    1.8220    0.0236   -1.2696 H   0  0  0  0  0  0  0  0  0  0  0  0
    1.4653   -2.1053   -1.2290 C   0  0  0  0  0  0  0  0  0  0  0  0
    1.7060   -2.6895   -0.1463 O   0  5  0  0  0  0  0  0  0  0  0  0
    1.6199   -2.6176   -2.3585 O   0  0  0  0  0  0  0  0  0  0  0  0
   -0.0714    1.2361    0.2064 C   0  0  0  0  0  0  0  0  0  0  0  0
    0.6060    1.9176    0.9850 O   0  0  0  0  0  0  0  0  0  0  0  0
   -1.0165    1.7821   -0.5652 N   0  0  0  0  0  0  0  0  0  0  0  0
   -1.5798    1.1259   -1.1094 H   0  0  0  0  0  0  0  0  0  0  0  0
   -1.3872    3.1932   -0.5703 C   0  0  0  0  0  0  0  0  0  0  0  0
   -0.4875    3.8100   -0.5740 H   0  0  0  0  0  0  0  0  0  0  0  0
   -1.9847    3.4111   -1.4551 H   0  0  0  0  0  0  0  0  0  0  0  0
   -1.9687    3.4152    0.3247 H   0  0  0  0  0  0  0  0  0  0  0  0
  5  6  2  0  0  0  0
  5  7  1  0  0  0  0
  2  3  1  0  0  0  0
  2  4  1  0  0  0  0
  2  5  1  0  0  0  0
  1  2  1  0  0  0  0
 17 18  2  0  0  0  0
 17 19  1  0  0  0  0
 14 15  1  0  0  0  0
 14 16  2  0  0  0  0
 11 12  1  0  0  0  0
 11 13  1  0  0  0  0
 11 14  1  0  0  0  0
  9 10  1  0  0  0  0
  9 11  1  0  0  0  0
  9 17  1  0  0  0  0
  7  8  1  0  0  0  0
  7  9  1  0  0  0  0
 21 22  1  0  0  0  0
 21 23  1  0  0  0  0
 21 24  1  0  0  0  0
 19 20  1  0  0  0  0
 19 21  1  0  0  0  0
M  CHG  1  15  -1
M  END
$$$$
default_name
  -OEChem-01062215323D

 24 23  0     1  0  0  0  0  0999 V2000
   -2.8347   -3.7166    0.8034 H   0  0  0  0  0  0  0  0  0  0  0  0
   -2.7728   -2.7096    0.3954 C   0  0  0  0  0  0  0  0  0  0  0  0
   -3.4267   -2.0426    0.9524 H   0  0  0  0  0  0  0  0  0  0  0  0
   -3.0538   -2.7186   -0.6556 H   0  0  0  0  0  0  0  0  0  0  0  0
   -1.3498   -2.2206    0.5184 C   0  0  0  0  0  0  0  0  0  0  0  0
   -0.4997   -2.9426    1.0194 O   0  0  0  0  0  0  0  0  0  0  0  0
   -1.1198   -0.9926    0.0674 N   0  0  0  0  0  0  0  0  0  0  0  0
   -1.8978   -0.4486   -0.2716 H   0  0  0  0  0  0  0  0  0  0  0  0
    0.1693   -0.2866    0.0854 C   0  0  1  0  0  0  0  0  0  0  0  0
    0.7422   -0.6117    0.9556 H   0  0  0  0  0  0  0  0  0  0  0  0
    0.9680   -0.6519   -1.1845 C   0  0  0  0  0  0  0  0  0  0  0  0
    0.3309   -0.4943   -2.0565 H   0  0  0  0  0  0  0  0  0  0  0  0
    1.8220    0.0236   -1.2696 H   0  0  0  0  0  0  0  0  0  0  0  0
    1.4653   -2.1053   -1.2290 C   0  0  0  0  0  0  0  0  0  0  0  0
    1.7060   -2.6895   -0.1463 O   0  5  0  0  0  0  0  0  0  0  0  0
    1.6199   -2.6176   -2.3585 O   0  0  0  0  0  0  0  0  0  0  0  0
   -0.0714    1.2361    0.2064 C   0  0  0  0  0  0  0  0  0  0  0  0
    0.7642    1.9605    0.7601 O   0  0  0  0  0  0  0  0  0  0  0  0
   -1.1953    1.7342   -0.3184 N   0  0  0  0  0  0  0  0  0  0  0  0
   -1.8617    1.0469   -0.6756 H   0  0  0  0  0  0  0  0  0  0  0  0
   -1.5909    3.1381   -0.2818 C   0  0  0  0  0  0  0  0  0  0  0  0
   -0.7378    3.7676   -0.5383 H   0  0  0  0  0  0  0  0  0  0  0  0
   -2.3993    3.3088   -0.9923 H   0  0  0  0  0  0  0  0  0  0  0  0
   -1.9311    3.3895    0.7230 H   0  0  0  0  0  0  0  0  0  0  0  0
  5  6  2  0  0  0  0
  5  7  1  0  0  0  0
  2  3  1  0  0  0  0
  2  4  1  0  0  0  0
  2  5  1  0  0  0  0
  1  2  1  0  0  0  0
 17 18  2  0  0  0  0
 17 19  1  0  0  0  0
 14 15  1  0  0  0  0
 14 16  2  0  0  0  0
 11 12  1  0  0  0  0
 11 13  1  0  0  0  0
 11 14  1  0  0  0  0
  9 10  1  0  0  0  0
  9 11  1  0  0  0  0
  9 17  1  0  0  0  0
  7  8  1  0  0  0  0
  7  9  1  0  0  0  0
 21 22  1  0  0  0  0
 21 23  1  0  0  0  0
 21 24  1  0  0  0  0
 19 20  1  0  0  0  0
 19 21  1  0  0  0  0
M  CHG  1  15  -1
M  END
$$$$
default_name
  -OEChem-01062215323D

 24 23  0     1  0  0  0  0  0999 V2000
   -2.8347   -3.7166    0.8034 H   0  0  0  0  0  0  0  0  0  0  0  0
   -2.7728   -2.7096    0.3954 C   0  0  0  0  0  0  0  0  0  0  0  0
   -3.4267   -2.0426    0.9524 H   0  0  0  0  0  0  0  0  0  0  0  0
   -3.0538   -2.7186   -0.6556 H   0  0  0  0  0  0  0  0  0  0  0  0
   -1.3498   -2.2206    0.5184 C   0  0  0  0  0  0  0  0  0  0  0  0
   -0.4997   -2.9426    1.0194 O   0  0  0  0  0  0  0  0  0  0  0  0
   -1.1198   -0.9926    0.0674 N   0  0  0  0  0  0  0  0  0  0  0  0
   -1.8978   -0.4486   -0.2716 H   0  0  0  0  0  0  0  0  0  0  0  0
    0.1693   -0.2866    0.0854 C   0  0  1  0  0  0  0  0  0  0  0  0
    0.7422   -0.6117    0.9556 H   0  0  0  0  0  0  0  0  0  0  0  0
    0.9680   -0.6519   -1.1845 C   0  0  0  0  0  0  0  0  0  0  0  0
    0.3309   -0.4943   -2.0565 H   0  0  0  0  0  0  0  0  0  0  0  0
    1.8220    0.0236   -1.2696 H   0  0  0  0  0  0  0  0  0  0  0  0
    1.4653   -2.1053   -1.2290 C   0  0  0  0  0  0  0  0  0  0  0  0
    1.7060   -2.6895   -0.1463 O   0  5  0  0  0  0  0  0  0  0  0  0
    1.6199   -2.6176   -2.3585 O   0  0  0  0  0  0  0  0  0  0  0  0
   -0.0714    1.2361    0.2064 C   0  0  0  0  0  0  0  0  0  0  0  0
    0.8588    1.9960    0.5008 O   0  0  0  0  0  0  0  0  0  0  0  0
   -1.3042    1.6943   -0.0324 N   0  0  0  0  0  0  0  0  0  0  0  0
   -2.0218    0.9823   -0.1816 H   0  0  0  0  0  0  0  0  0  0  0  0
   -1.7131    3.0923    0.0510 C   0  0  0  0  0  0  0  0  0  0  0  0
   -0.9696    3.7230   -0.4383 H   0  0  0  0  0  0  0  0  0  0  0  0
   -2.6797    3.2202   -0.4355 H   0  0  0  0  0  0  0  0  0  0  0  0
   -1.7927    3.3814    1.0991 H   0  0  0  0  0  0  0  0  0  0  0  0
  5  6  2  0  0  0  0
  5  7  1  0  0  0  0
  2  3  1  0  0  0  0
  2  4  1  0  0  0  0
  2  5  1  0  0  0  0
  1  2  1  0  0  0  0
 17 18  2  0  0  0  0
 17 19  1  0  0  0  0
 14 15  1  0  0  0  0
 14 16  2  0  0  0  0
 11 12  1  0  0  0  0
 11 13  1  0  0  0  0
 11 14  1  0  0  0  0
  9 10  1  0  0  0  0
  9 11  1  0  0  0  0
  9 17  1  0  0  0  0
  7  8  1  0  0  0  0
  7  9  1  0  0  0  0
 21 22  1  0  0  0  0
 21 23  1  0  0  0  0
 21 24  1  0  0  0  0
 19 20  1  0  0  0  0
 19 21  1  0  0  0  0
M  CHG  1  15  -1
M  END
$$$$
default_name
  -OEChem-01062215323D

 24 23  0     1  0  0  0  0  0999 V2000
   -2.8347   -3.7166    0.8034 H   0  0  0  0  0  0  0  0  0  0  0  0
   -2.7728   -2.7096    0.3954 C   0  0  0  0  0  0  0  0  0  0  0  0
   -3.4267   -2.0426    0.9524 H   0  0  0  0  0  0  0  0  0  0  0  0
   -3.0538   -2.7186   -0.6556 H   0  0  0  0  0  0  0  0  0  0  0  0
   -1.3498   -2.2206    0.5184 C   0  0  0  0  0  0  0  0  0  0  0  0
   -0.4997   -2.9426    1.0194 O   0  0  0  0  0  0  0  0  0  0  0  0
   -1.1198   -0.9926    0.0674 N   0  0  0  0  0  0  0  0  0  0  0  0
   -1.8978   -0.4486   -0.2716 H   0  0  0  0  0  0  0  0  0  0  0  0
    0.1693   -0.2866    0.0854 C   0  0  1  0  0  0  0  0  0  0  0  0
    0.7422   -0.6117    0.9556 H   0  0  0  0  0  0  0  0  0  0  0  0
    0.9680   -0.6519   -1.1845 C   0  0  0  0  0  0  0  0  0  0  0  0
    0.3309   -0.4943   -2.0565 H   0  0  0  0  0  0  0  0  0  0  0  0
    1.8220    0.0236   -1.2696 H   0  0  0  0  0  0  0  0  0  0  0  0
    1.4653   -2.1053   -1.2290 C   0  0  0  0  0  0  0  0  0  0  0  0
    1.7060   -2.6895   -0.1463 O   0  5  0  0  0  0  0  0  0  0  0  0
    1.6199   -2.6176   -2.3585 O   0  0  0  0  0  0  0  0  0  0  0  0
   -0.0714    1.2361    0.2064 C   0  0  0  0  0  0  0  0  0  0  0  0
    0.8834    2.0219    0.2247 O   0  0  0  0  0  0  0  0  0  0  0  0
   -1.3356    1.6650    0.2731 N   0  0  0  0  0  0  0  0  0  0  0  0
   -2.0492    0.9366    0.3390 H   0  0  0  0  0  0  0  0  0  0  0  0
   -1.7454    3.0591    0.4055 C   0  0  0  0  0  0  0  0  0  0  0  0
   -1.1672    3.6792   -0.2808 H   0  0  0  0  0  0  0  0  0  0  0  0
   -2.8069    3.1514    0.1773 H   0  0  0  0  0  0  0  0  0  0  0  0
   -1.5630    3.3916    1.4275 H   0  0  0  0  0  0  0  0  0  0  0  0
  5  6  2  0  0  0  0
  5  7  1  0  0  0  0
  2  3  1  0  0  0  0
  2  4  1  0  0  0  0
  2  5  1  0  0  0  0
  1  2  1  0  0  0  0
 17 18  2  0  0  0  0
 17 19  1  0  0  0  0
 14 15  1  0  0  0  0
 14 16  2  0  0  0  0
 11 12  1  0  0  0  0
 11 13  1  0  0  0  0
 11 14  1  0  0  0  0
  9 10  1  0  0  0  0
  9 11  1  0  0  0  0
  9 17  1  0  0  0  0
  7  8  1  0  0  0  0
  7  9  1  0  0  0  0
 21 22  1  0  0  0  0
 21 23  1  0  0  0  0
 21 24  1  0  0  0  0
 19 20  1  0  0  0  0
 19 21  1  0  0  0  0
M  CHG  1  15  -1
M  END
$$$$
default_name
  -OEChem-01062215323D

 24 23  0     1  0  0  0  0  0999 V2000
   -2.8347   -3.7166    0.8034 H   0  0  0  0  0  0  0  0  0  0  0  0
   -2.7728   -2.7096    0.3954 C   0  0  0  0  0  0  0  0  0  0  0  0
   -3.4267   -2.0426    0.9524 H   0  0  0  0  0  0  0  0  0  0  0  0
   -3.0538   -2.7186   -0.6556 H   0  0  0  0  0  0  0  0  0  0  0  0
   -1.3498   -2.2206    0.5184 C   0  0  0  0  0  0  0  0  0  0  0  0
   -0.4997   -2.9426    1.0194 O   0  0  0  0  0  0  0  0  0  0  0  0
   -1.1198   -0.9926    0.0674 N   0  0  0  0  0  0  0  0  0  0  0  0
   -1.8978   -0.4486   -0.2716 H   0  0  0  0  0  0  0  0  0  0  0  0
    0.1693   -0.2866    0.0854 C   0  0  1  0  0  0  0  0  0  0  0  0
    0.7422   -0.6117    0.9556 H   0  0  0  0  0  0  0  0  0  0  0  0
    0.9680   -0.6519   -1.1845 C   0  0  0  0  0  0  0  0  0  0  0  0
    0.3309   -0.4943   -2.0565 H   0  0  0  0  0  0  0  0  0  0  0  0
    1.8220    0.0236   -1.2696 H   0  0  0  0  0  0  0  0  0  0  0  0
    1.4653   -2.1053   -1.2290 C   0  0  0  0  0  0  0  0  0  0  0  0
    1.7060   -2.6895   -0.1463 O   0  5  0  0  0  0  0  0  0  0  0  0
    1.6199   -2.6176   -2.3585 O   0  0  0  0  0  0  0  0  0  0  0  0
   -0.0714    1.2361    0.2064 C   0  0  0  0  0  0  0  0  0  0  0  0
    0.8363    2.0362   -0.0492 O   0  0  0  0  0  0  0  0  0  0  0  0
   -1.2876    1.6484    0.5774 N   0  0  0  0  0  0  0  0  0  0  0  0
   -1.9421    0.9129    0.8506 H   0  0  0  0  0  0  0  0  0  0  0  0
   -1.6855    3.0405    0.7574 C   0  0  0  0  0  0  0  0  0  0  0  0
   -1.3170    3.6393   -0.0765 H   0  0  0  0  0  0  0  0  0  0  0  0
   -2.7721    3.1070    0.8045 H   0  0  0  0  0  0  0  0  0  0  0  0
   -1.2576    3.4194    1.6858 H   0  0  0  0  0  0  0  0  0  0  0  0
  5  6  2  0  0  0  0
  5  7  1  0  0  0  0
  2  3  1  0  0  0  0
  2  4  1  0  0  0  0
  2  5  1  0  0  0  0
  1  2  1  0  0  0  0
 17 18  2  0  0  0  0
 17 19  1  0  0  0  0
 14 15  1  0  0  0  0
 14 16  2  0  0  0  0
 11 12  1  0  0  0  0
 11 13  1  0  0  0  0
 11 14  1  0  0  0  0
  9 10  1  0  0  0  0
  9 11  1  0  0  0  0
  9 17  1  0  0  0  0
  7  8  1  0  0  0  0
  7  9  1  0  0  0  0
 21 22  1  0  0  0  0
 21 23  1  0  0  0  0
 21 24  1  0  0  0  0
 19 20  1  0  0  0  0
 19 21  1  0  0  0  0
M  CHG  1  15  -1
M  END
$$$$
default_name
  -OEChem-01062215323D

 24 23  0     1  0  0  0  0  0999 V2000
   -2.8347   -3.7166    0.8034 H   0  0  0  0  0  0  0  0  0  0  0  0
   -2.7728   -2.7096    0.3954 C   0  0  0  0  0  0  0  0  0  0  0  0
   -3.4267   -2.0426    0.9524 H   0  0  0  0  0  0  0  0  0  0  0  0
   -3.0538   -2.7186   -0.6556 H   0  0  0  0  0  0  0  0  0  0  0  0
   -1.3498   -2.2206    0.5184 C   0  0  0  0  0  0  0  0  0  0  0  0
   -0.4997   -2.9426    1.0194 O   0  0  0  0  0  0  0  0  0  0  0  0
   -1.1198   -0.9926    0.0674 N   0  0  0  0  0  0  0  0  0  0  0  0
   -1.8978   -0.4486   -0.2716 H   0  0  0  0  0  0  0  0  0  0  0  0
    0.1693   -0.2866    0.0854 C   0  0  1  0  0  0  0  0  0  0  0  0
    0.7422   -0.6117    0.9556 H   0  0  0  0  0  0  0  0  0  0  0  0
    0.9680   -0.6519   -1.1845 C   0  0  0  0  0  0  0  0  0  0  0  0
    0.3309   -0.4943   -2.0565 H   0  0  0  0  0  0  0  0  0  0  0  0
    1.8220    0.0236   -1.2696 H   0  0  0  0  0  0  0  0  0  0  0  0
    1.4653   -2.1053   -1.2290 C   0  0  0  0  0  0  0  0  0  0  0  0
    1.7060   -2.6895   -0.1463 O   0  5  0  0  0  0  0  0  0  0  0  0
    1.6199   -2.6176   -2.3585 O   0  0  0  0  0  0  0  0  0  0  0  0
   -0.0714    1.2361    0.2064 C   0  0  0  0  0  0  0  0  0  0  0  0
    0.7207    2.0380   -0.3024 O   0  0  0  0  0  0  0  0  0  0  0  0
   -1.1633    1.6456    0.8598 N   0  0  0  0  0  0  0  0  0  0  0  0
   -1.7077    0.9127    1.3185 H   0  0  0  0  0  0  0  0  0  0  0  0
   -1.5376    3.0380    1.0829 C   0  0  0  0  0  0  0  0  0  0  0  0
   -1.4088    3.6060    0.1605 H   0  0  0  0  0  0  0  0  0  0  0  0
   -2.5778    3.0901    1.4033 H   0  0  0  0  0  0  0  0  0  0  0  0
   -0.8974    3.4628    1.8563 H   0  0  0  0  0  0  0  0  0  0  0  0
  5  6  2  0  0  0  0
  5  7  1  0  0  0  0
  2  3  1  0  0  0  0
  2  4  1  0  0  0  0
  2  5  1  0  0  0  0
  1  2  1  0  0  0  0
 17 18  2  0  0  0  0
 17 19  1  0  0  0  0
 14 15  1  0  0  0  0
 14 16  2  0  0  0  0
 11 12  1  0  0  0  0
 11 13  1  0  0  0  0
 11 14  1  0  0  0  0
  9 10  1  0  0  0  0
  9 11  1  0  0  0  0
  9 17  1  0  0  0  0
  7  8  1  0  0  0  0
  7  9  1  0  0  0  0
 21 22  1  0  0  0  0
 21 23  1  0  0  0  0
 21 24  1  0  0  0  0
 19 20  1  0  0  0  0
 19 21  1  0  0  0  0
M  CHG  1  15  -1
M  END
$$$$
default_name
  -OEChem-01062215323D

 24 23  0     1  0  0  0  0  0999 V2000
   -2.8347   -3.7166    0.8034 H   0  0  0  0  0  0  0  0  0  0  0  0
   -2.7728   -2.7096    0.3954 C   0  0  0  0  0  0  0  0  0  0  0  0
   -3.4267   -2.0426    0.9524 H   0  0  0  0  0  0  0  0  0  0  0  0
   -3.0538   -2.7186   -0.6556 H   0  0  0  0  0  0  0  0  0  0  0  0
   -1.3498   -2.2206    0.5184 C   0  0  0  0  0  0  0  0  0  0  0  0
   -0.4997   -2.9426    1.0194 O   0  0  0  0  0  0  0  0  0  0  0  0
   -1.1198   -0.9926    0.0674 N   0  0  0  0  0  0  0  0  0  0  0  0
   -1.8978   -0.4486   -0.2716 H   0  0  0  0  0  0  0  0  0  0  0  0
    0.1693   -0.2866    0.0854 C   0  0  1  0  0  0  0  0  0  0  0  0
    0.7422   -0.6117    0.9556 H   0  0  0  0  0  0  0  0  0  0  0  0
    0.9680   -0.6519   -1.1845 C   0  0  0  0  0  0  0  0  0  0  0  0
    0.3309   -0.4943   -2.0565 H   0  0  0  0  0  0  0  0  0  0  0  0
    1.8220    0.0236   -1.2696 H   0  0  0  0  0  0  0  0  0  0  0  0
    1.4653   -2.1053   -1.2290 C   0  0  0  0  0  0  0  0  0  0  0  0
    1.7060   -2.6895   -0.1463 O   0  5  0  0  0  0  0  0  0  0  0  0
    1.6199   -2.6176   -2.3585 O   0  0  0  0  0  0  0  0  0  0  0  0
   -0.0714    1.2361    0.2064 C   0  0  0  0  0  0  0  0  0  0  0  0
    0.5444    2.0273   -0.5176 O   0  0  0  0  0  0  0  0  0  0  0  0
   -0.9711    1.6568    1.1010 N   0  0  0  0  0  0  0  0  0  0  0  0
   -1.3621    0.9362    1.7108 H   0  0  0  0  0  0  0  0  0  0  0  0
   -1.3118    3.0517    1.3596 C   0  0  0  0  0  0  0  0  0  0  0  0
   -1.4364    3.5815    0.4143 H   0  0  0  0  0  0  0  0  0  0  0  0
   -2.2372    3.1019    1.9328 H   0  0  0  0  0  0  0  0  0  0  0  0
   -0.5069    3.5188    1.9274 H   0  0  0  0  0  0  0  0  0  0  0  0
  5  6  2  0  0  0  0
  5  7  1  0  0  0  0
  2  3  1  0  0  0  0
  2  4  1  0  0  0  0
  2  5  1  0  0  0  0
  1  2  1  0  0  0  0
 17 18  2  0  0  0  0
 17 19  1  0  0  0  0
 14 15  1  0  0  0  0
 14 16  2  0  0  0  0
 11 12  1  0  0  0  0
 11 13  1  0  0  0  0
 11 14  1  0  0  0  0
  9 10  1  0  0  0  0
  9 11  1  0  0  0  0
  9 17  1  0  0  0  0
  7  8  1  0  0  0  0
  7  9  1  0  0  0  0
 21 22  1  0  0  0  0
 21 23  1  0  0  0  0
 21 24  1  0  0  0  0
 19 20  1  0  0  0  0
 19 21  1  0  0  0  0
M  CHG  1  15  -1
M  END
$$$$
default_name
  -OEChem-01062215323D

 24 23  0     1  0  0  0  0  0999 V2000
   -2.8347   -3.7166    0.8034 H   0  0  0  0  0  0  0  0  0  0  0  0
   -2.7728   -2.7096    0.3954 C   0  0  0  0  0  0  0  0  0  0  0  0
   -3.4267   -2.0426    0.9524 H   0  0  0  0  0  0  0  0  0  0  0  0
   -3.0538   -2.7186   -0.6556 H   0  0  0  0  0  0  0  0  0  0  0  0
   -1.3498   -2.2206    0.5184 C   0  0  0  0  0  0  0  0  0  0  0  0
   -0.4997   -2.9426    1.0194 O   0  0  0  0  0  0  0  0  0  0  0  0
   -1.1198   -0.9926    0.0674 N   0  0  0  0  0  0  0  0  0  0  0  0
   -1.8978   -0.4486   -0.2716 H   0  0  0  0  0  0  0  0  0  0  0  0
    0.1693   -0.2866    0.0854 C   0  0  1  0  0  0  0  0  0  0  0  0
    0.7422   -0.6117    0.9556 H   0  0  0  0  0  0  0  0  0  0  0  0
    0.9680   -0.6519   -1.1845 C   0  0  0  0  0  0  0  0  0  0  0  0
    0.3309   -0.4943   -2.0565 H   0  0  0  0  0  0  0  0  0  0  0  0
    1.8220    0.0236   -1.2696 H   0  0  0  0  0  0  0  0  0  0  0  0
    1.4653   -2.1053   -1.2290 C   0  0  0  0  0  0  0  0  0  0  0  0
    1.7060   -2.6895   -0.1463 O   0  5  0  0  0  0  0  0  0  0  0  0
    1.6199   -2.6176   -2.3585 O   0  0  0  0  0  0  0  0  0  0  0  0
   -0.0714    1.2361    0.2064 C   0  0  0  0  0  0  0  0  0  0  0  0
    0.3196    2.0047   -0.6801 O   0  0  0  0  0  0  0  0  0  0  0  0
   -0.7243    1.6812    1.2845 N   0  0  0  0  0  0  0  0  0  0  0  0
   -0.9288    0.9816    2.0006 H   0  0  0  0  0  0  0  0  0  0  0  0
   -1.0234    3.0807    1.5688 C   0  0  0  0  0  0  0  0  0  0  0  0
   -1.3979    3.5674    0.6674 H   0  0  0  0  0  0  0  0  0  0  0  0
   -1.7735    3.1415    2.3569 H   0  0  0  0  0  0  0  0  0  0  0  0
   -0.1126    3.5837    1.8944 H   0  0  0  0  0  0  0  0  0  0  0  0
  5  6  2  0  0  0  0
  5  7  1  0  0  0  0
  2  3  1  0  0  0  0
  2  4  1  0  0  0  0
  2  5  1  0  0  0  0
  1  2  1  0  0  0  0
 17 18  2  0  0  0  0
 17 19  1  0  0  0  0
 14 15  1  0  0  0  0
 14 16  2  0  0  0  0
 11 12  1  0  0  0  0
 11 13  1  0  0  0  0
 11 14  1  0  0  0  0
  9 10  1  0  0  0  0
  9 11  1  0  0  0  0
  9 17  1  0  0  0  0
  7  8  1  0  0  0  0
  7  9  1  0  0  0  0
 21 22  1  0  0  0  0
 21 23  1  0  0  0  0
 21 24  1  0  0  0  0
 19 20  1  0  0  0  0
 19 21  1  0  0  0  0
M  CHG  1  15  -1
M  END
$$$$
default_name
  -OEChem-01062215323D

 24 23  0     1  0  0  0  0  0999 V2000
   -2.8347   -3.7166    0.8034 H   0  0  0  0  0  0  0  0  0  0  0  0
   -2.7728   -2.7096    0.3954 C   0  0  0  0  0  0  0  0  0  0  0  0
   -3.4267   -2.0426    0.9524 H   0  0  0  0  0  0  0  0  0  0  0  0
   -3.0538   -2.7186   -0.6556 H   0  0  0  0  0  0  0  0  0  0  0  0
   -1.3498   -2.2206    0.5184 C   0  0  0  0  0  0  0  0  0  0  0  0
   -0.4997   -2.9426    1.0194 O   0  0  0  0  0  0  0  0  0  0  0  0
   -1.1198   -0.9926    0.0674 N   0  0  0  0  0  0  0  0  0  0  0  0
   -1.8978   -0.4486   -0.2716 H   0  0  0  0  0  0  0  0  0  0  0  0
    0.1693   -0.2866    0.0854 C   0  0  1  0  0  0  0  0  0  0  0  0
    0.7422   -0.6117    0.9556 H   0  0  0  0  0  0  0  0  0  0  0  0
    0.9680   -0.6519   -1.1845 C   0  0  0  0  0  0  0  0  0  0  0  0
    0.3309   -0.4943   -2.0565 H   0  0  0  0  0  0  0  0  0  0  0  0
    1.8220    0.0236   -1.2696 H   0  0  0  0  0  0  0  0  0  0  0  0
    1.4653   -2.1053   -1.2290 C   0  0  0  0  0  0  0  0  0  0  0  0
    1.7060   -2.6895   -0.1463 O   0  5  0  0  0  0  0  0  0  0  0  0
    1.6199   -2.6176   -2.3585 O   0  0  0  0  0  0  0  0  0  0  0  0
   -0.0714    1.2361    0.2064 C   0  0  0  0  0  0  0  0  0  0  0  0
    0.0614    1.9717   -0.7788 O   0  0  0  0  0  0  0  0  0  0  0  0
   -0.4396    1.7172    1.3979 N   0  0  0  0  0  0  0  0  0  0  0  0
   -0.4373    1.0460    2.1683 H   0  0  0  0  0  0  0  0  0  0  0  0
   -0.6921    3.1229    1.6963 C   0  0  0  0  0  0  0  0  0  0  0  0
   -1.2959    3.5648    0.9026 H   0  0  0  0  0  0  0  0  0  0  0  0
   -1.2182    3.2062    2.6469 H   0  0  0  0  0  0  0  0  0  0  0  0
    0.2584    3.6531    1.7593 H   0  0  0  0  0  0  0  0  0  0  0  0
  5  6  2  0  0  0  0
  5  7  1  0  0  0  0
  2  3  1  0  0  0  0
  2  4  1  0  0  0  0
  2  5  1  0  0  0  0
  1  2  1  0  0  0  0
 17 18  2  0  0  0  0
 17 19  1  0  0  0  0
 14 15  1  0  0  0  0
 14 16  2  0  0  0  0
 11 12  1  0  0  0  0
 11 13  1  0  0  0  0
 11 14  1  0  0  0  0
  9 10  1  0  0  0  0
  9 11  1  0  0  0  0
  9 17  1  0  0  0  0
  7  8  1  0  0  0  0
  7  9  1  0  0  0  0
 21 22  1  0  0  0  0
 21 23  1  0  0  0  0
 21 24  1  0  0  0  0
 19 20  1  0  0  0  0
 19 21  1  0  0  0  0
M  CHG  1  15  -1
M  END
$$$$
default_name
  -OEChem-01062215323D

 24 23  0     1  0  0  0  0  0999 V2000
   -2.8347   -3.7166    0.8034 H   0  0  0  0  0  0  0  0  0  0  0  0
   -2.7728   -2.7096    0.3954 C   0  0  0  0  0  0  0  0  0  0  0  0
   -3.4267   -2.0426    0.9524 H   0  0  0  0  0  0  0  0  0  0  0  0
   -3.0538   -2.7186   -0.6556 H   0  0  0  0  0  0  0  0  0  0  0  0
   -1.3498   -2.2206    0.5184 C   0  0  0  0  0  0  0  0  0  0  0  0
   -0.4997   -2.9426    1.0194 O   0  0  0  0  0  0  0  0  0  0  0  0
   -1.1198   -0.9926    0.0674 N   0  0  0  0  0  0  0  0  0  0  0  0
   -1.8978   -0.4486   -0.2716 H   0  0  0  0  0  0  0  0  0  0  0  0
    0.1693   -0.2866    0.0854 C   0  0  1  0  0  0  0  0  0  0  0  0
    0.7422   -0.6117    0.9556 H   0  0  0  0  0  0  0  0  0  0  0  0
    0.9680   -0.6519   -1.1845 C   0  0  0  0  0  0  0  0  0  0  0  0
    0.3309   -0.4943   -2.0565 H   0  0  0  0  0  0  0  0  0  0  0  0
    1.8220    0.0236   -1.2696 H   0  0  0  0  0  0  0  0  0  0  0  0
    1.4653   -2.1053   -1.2290 C   0  0  0  0  0  0  0  0  0  0  0  0
    1.7060   -2.6895   -0.1463 O   0  5  0  0  0  0  0  0  0  0  0  0
    1.6199   -2.6176   -2.3585 O   0  0  0  0  0  0  0  0  0  0  0  0
   -0.0714    1.2361    0.2064 C   0  0  0  0  0  0  0  0  0  0  0  0
   -0.2124    1.9307   -0.8070 O   0  0  0  0  0  0  0  0  0  0  0  0
   -0.1365    1.7623    1.4335 N   0  0  0  0  0  0  0  0  0  0  0  0
    0.0789    1.1248    2.2024 H   0  0  0  0  0  0  0  0  0  0  0  0
   -0.3404    3.1756    1.7332 C   0  0  0  0  0  0  0  0  0  0  0  0
   -1.1374    3.5739    1.1039 H   0  0  0  0  0  0  0  0  0  0  0  0
   -0.6093    3.2916    2.7828 H   0  0  0  0  0  0  0  0  0  0  0  0
    0.5810    3.7222    1.5316 H   0  0  0  0  0  0  0  0  0  0  0  0
  5  6  2  0  0  0  0
  5  7  1  0  0  0  0
  2  3  1  0  0  0  0
  2  4  1  0  0  0  0
  2  5  1  0  0  0  0
  1  2  1  0  0  0  0
 17 18  2  0  0  0  0
 17 19  1  0  0  0  0
 14 15  1  0  0  0  0
 14 16  2  0  0  0  0
 11 12  1  0  0  0  0
 11 13  1  0  0  0  0
 11 14  1  0  0  0  0
  9 10  1  0  0  0  0
  9 11  1  0  0  0  0
  9 17  1  0  0  0  0
  7  8  1  0  0  0  0
  7  9  1  0  0  0  0
 21 22  1  0  0  0  0
 21 23  1  0  0  0  0
 21 24  1  0  0  0  0
 19 20  1  0  0  0  0
 19 21  1  0  0  0  0
M  CHG  1  15  -1
M  END
$$$$
default_name
  -OEChem-01062215323D

 24 23  0     1  0  0  0  0  0999 V2000
   -2.8347   -3.7166    0.8034 H   0  0  0  0  0  0  0  0  0  0  0  0
   -2.7728   -2.7096    0.3954 C   0  0  0  0  0  0  0  0  0  0  0  0
   -3.4267   -2.0426    0.9524 H   0  0  0  0  0  0  0  0  0  0  0  0
   -3.0538   -2.7186   -0.6556 H   0  0  0  0  0  0  0  0  0  0  0  0
   -1.3498   -2.2206    0.5184 C   0  0  0  0  0  0  0  0  0  0  0  0
   -0.4997   -2.9426    1.0194 O   0  0  0  0  0  0  0  0  0  0  0  0
   -1.1198   -0.9926    0.0674 N   0  0  0  0  0  0  0  0  0  0  0  0
   -1.8978   -0.4486   -0.2716 H   0  0  0  0  0  0  0  0  0  0  0  0
    0.1693   -0.2866    0.0854 C   0  0  1  0  0  0  0  0  0  0  0  0
    0.7422   -0.6117    0.9556 H   0  0  0  0  0  0  0  0  0  0  0  0
    0.9680   -0.6519   -1.1845 C   0  0  0  0  0  0  0  0  0  0  0  0
    0.3309   -0.4943   -2.0565 H   0  0  0  0  0  0  0  0  0  0  0  0
    1.8220    0.0236   -1.2696 H   0  0  0  0  0  0  0  0  0  0  0  0
    1.4653   -2.1053   -1.2290 C   0  0  0  0  0  0  0  0  0  0  0  0
    1.7060   -2.6895   -0.1463 O   0  5  0  0  0  0  0  0  0  0  0  0
    1.6199   -2.6176   -2.3585 O   0  0  0  0  0  0  0  0  0  0  0  0
   -0.0714    1.2361    0.2064 C   0  0  0  0  0  0  0  0  0  0  0  0
   -0.4833    1.8844   -0.7629 O   0  0  0  0  0  0  0  0  0  0  0  0
    0.1645    1.8134    1.3887 N   0  0  0  0  0  0  0  0  0  0  0  0
    0.5846    1.2129    2.1007 H   0  0  0  0  0  0  0  0  0  0  0  0
    0.0076    3.2350    1.6772 C   0  0  0  0  0  0  0  0  0  0  0  0
   -0.9331    3.5940    1.2576 H   0  0  0  0  0  0  0  0  0  0  0  0
    0.0117    3.3919    2.7555 H   0  0  0  0  0  0  0  0  0  0  0  0
    0.8331    3.7863    1.2265 H   0  0  0  0  0  0  0  0  0  0  0  0
  5  6  2  0  0  0  0
  5  7  1  0  0  0  0
  2  3  1  0  0  0  0
  2  4  1  0  0  0  0
  2  5  1  0  0  0  0
  1  2  1  0  0  0  0
 17 18  2  0  0  0  0
 17 19  1  0  0  0  0
 14 15  1  0  0  0  0
 14 16  2  0  0  0  0
 11 12  1  0  0  0  0
 11 13  1  0  0  0  0
 11 14  1  0  0  0  0
  9 10  1  0  0  0  0
  9 11  1  0  0  0  0
  9 17  1  0  0  0  0
  7  8  1  0  0  0  0
  7  9  1  0  0  0  0
 21 22  1  0  0  0  0
 21 23  1  0  0  0  0
 21 24  1  0  0  0  0
 19 20  1  0  0  0  0
 19 21  1  0  0  0  0
M  CHG  1  15  -1
M  END
$$$$
default_name
  -OEChem-01062215323D

 24 23  0     1  0  0  0  0  0999 V2000
   -2.8347   -3.7166    0.8034 H   0  0  0  0  0  0  0  0  0  0  0  0
   -2.7728   -2.7096    0.3954 C   0  0  0  0  0  0  0  0  0  0  0  0
   -3.4267   -2.0426    0.9524 H   0  0  0  0  0  0  0  0  0  0  0  0
   -3.0538   -2.7186   -0.6556 H   0  0  0  0  0  0  0  0  0  0  0  0
   -1.3498   -2.2206    0.5184 C   0  0  0  0  0  0  0  0  0  0  0  0
   -0.4997   -2.9426    1.0194 O   0  0  0  0  0  0  0  0  0  0  0  0
   -1.1198   -0.9926    0.0674 N   0  0  0  0  0  0  0  0  0  0  0  0
   -1.8978   -0.4486   -0.2716 H   0  0  0  0  0  0  0  0  0  0  0  0
    0.1693   -0.2866    0.0854 C   0  0  1  0  0  0  0  0  0  0  0  0
    0.7422   -0.6117    0.9556 H   0  0  0  0  0  0  0  0  0  0  0  0
    0.9680   -0.6519   -1.1845 C   0  0  0  0  0  0  0  0  0  0  0  0
    0.3309   -0.4943   -2.0565 H   0  0  0  0  0  0  0  0  0  0  0  0
    1.8220    0.0236   -1.2696 H   0  0  0  0  0  0  0  0  0  0  0  0
    1.4653   -2.1053   -1.2290 C   0  0  0  0  0  0  0  0  0  0  0  0
    1.7060   -2.6895   -0.1463 O   0  5  0  0  0  0  0  0  0  0  0  0
    1.6199   -2.6176   -2.3585 O   0  0  0  0  0  0  0  0  0  0  0  0
   -0.0714    1.2361    0.2064 C   0  0  0  0  0  0  0  0  0  0  0  0
   -0.7328    1.8359   -0.6493 O   0  0  0  0  0  0  0  0  0  0  0  0
    0.4428    1.8671    1.2667 N   0  0  0  0  0  0  0  0  0  0  0  0
    1.0454    1.3040    1.8699 H   0  0  0  0  0  0  0  0  0  0  0  0
    0.3283    3.2972    1.5319 C   0  0  0  0  0  0  0  0  0  0  0  0
   -0.6971    3.6237    1.3532 H   0  0  0  0  0  0  0  0  0  0  0  0
    0.6026    3.5003    2.5668 H   0  0  0  0  0  0  0  0  0  0  0  0
    0.9976    3.8410    0.8651 H   0  0  0  0  0  0  0  0  0  0  0  0
  5  6  2  0  0  0  0
  5  7  1  0  0  0  0
  2  3  1  0  0  0  0
  2  4  1  0  0  0  0
  2  5  1  0  0  0  0
  1  2  1  0  0  0  0
 17 18  2  0  0  0  0
 17 19  1  0  0  0  0
 14 15  1  0  0  0  0
 14 16  2  0  0  0  0
 11 12  1  0  0  0  0
 11 13  1  0  0  0  0
 11 14  1  0  0  0  0
  9 10  1  0  0  0  0
  9 11  1  0  0  0  0
  9 17  1  0  0  0  0
  7  8  1  0  0  0  0
  7  9  1  0  0  0  0
 21 22  1  0  0  0  0
 21 23  1  0  0  0  0
 21 24  1  0  0  0  0
 19 20  1  0  0  0  0
 19 21  1  0  0  0  0
M  CHG  1  15  -1
M  END
$$$$
default_name
  -OEChem-01062215323D

 24 23  0     1  0  0  0  0  0999 V2000
   -2.8347   -3.7166    0.8034 H   0  0  0  0  0  0  0  0  0  0  0  0
   -2.7728   -2.7096    0.3954 C   0  0  0  0  0  0  0  0  0  0  0  0
   -3.4267   -2.0426    0.9524 H   0  0  0  0  0  0  0  0  0  0  0  0
   -3.0538   -2.7186   -0.6556 H   0  0  0  0  0  0  0  0  0  0  0  0
   -1.3498   -2.2206    0.5184 C   0  0  0  0  0  0  0  0  0  0  0  0
   -0.4997   -2.9426    1.0194 O   0  0  0  0  0  0  0  0  0  0  0  0
   -1.1198   -0.9926    0.0674 N   0  0  0  0  0  0  0  0  0  0  0  0
   -1.8978   -0.4486   -0.2716 H   0  0  0  0  0  0  0  0  0  0  0  0
    0.1693   -0.2866    0.0854 C   0  0  1  0  0  0  0  0  0  0  0  0
    0.7422   -0.6117    0.9556 H   0  0  0  0  0  0  0  0  0  0  0  0
    0.9680   -0.6519   -1.1845 C   0  0  0  0  0  0  0  0  0  0  0  0
    0.3309   -0.4943   -2.0565 H   0  0  0  0  0  0  0  0  0  0  0  0
    1.8220    0.0236   -1.2696 H   0  0  0  0  0  0  0  0  0  0  0  0
    1.4653   -2.1053   -1.2290 C   0  0  0  0  0  0  0  0  0  0  0  0
    1.7060   -2.6895   -0.1463 O   0  5  0  0  0  0  0  0  0  0  0  0
    1.6199   -2.6176   -2.3585 O   0  0  0  0  0  0  0  0  0  0  0  0
   -0.0714    1.2361    0.2064 C   0  0  0  0  0  0  0  0  0  0  0  0
   -0.9438    1.7886   -0.4741 O   0  0  0  0  0  0  0  0  0  0  0  0
    0.6794    1.9197    1.0758 N   0  0  0  0  0  0  0  0  0  0  0  0
    1.4298    1.3921    1.5259 H   0  0  0  0  0  0  0  0  0  0  0  0
    0.5997    3.3580    1.3074 C   0  0  0  0  0  0  0  0  0  0  0  0
   -0.4453    3.6610    1.3842 H   0  0  0  0  0  0  0  0  0  0  0  0
    1.1231    3.6093    2.2295 H   0  0  0  0  0  0  0  0  0  0  0  0
    1.0633    3.8827    0.4718 H   0  0  0  0  0  0  0  0  0  0  0  0
  5  6  2  0  0  0  0
  5  7  1  0  0  0  0
  2  3  1  0  0  0  0
  2  4  1  0  0  0  0
  2  5  1  0  0  0  0
  1  2  1  0  0  0  0
 17 18  2  0  0  0  0
 17 19  1  0  0  0  0
 14 15  1  0  0  0  0
 14 16  2  0  0  0  0
 11 12  1  0  0  0  0
 11 13  1  0  0  0  0
 11 14  1  0  0  0  0
  9 10  1  0  0  0  0
  9 11  1  0  0  0  0
  9 17  1  0  0  0  0
  7  8  1  0  0  0  0
  7  9  1  0  0  0  0
 21 22  1  0  0  0  0
 21 23  1  0  0  0  0
 21 24  1  0  0  0  0
 19 20  1  0  0  0  0
 19 21  1  0  0  0  0
M  CHG  1  15  -1
M  END
$$$$
default_name
  -OEChem-01062215323D

 24 23  0     1  0  0  0  0  0999 V2000
   -2.8347   -3.7166    0.8034 H   0  0  0  0  0  0  0  0  0  0  0  0
   -2.7728   -2.7096    0.3954 C   0  0  0  0  0  0  0  0  0  0  0  0
   -3.4267   -2.0426    0.9524 H   0  0  0  0  0  0  0  0  0  0  0  0
   -3.0538   -2.7186   -0.6556 H   0  0  0  0  0  0  0  0  0  0  0  0
   -1.3498   -2.2206    0.5184 C   0  0  0  0  0  0  0  0  0  0  0  0
   -0.4997   -2.9426    1.0194 O   0  0  0  0  0  0  0  0  0  0  0  0
   -1.1198   -0.9926    0.0674 N   0  0  0  0  0  0  0  0  0  0  0  0
   -1.8978   -0.4486   -0.2716 H   0  0  0  0  0  0  0  0  0  0  0  0
    0.1693   -0.2866    0.0854 C   0  0  1  0  0  0  0  0  0  0  0  0
    0.7422   -0.6117    0.9556 H   0  0  0  0  0  0  0  0  0  0  0  0
    0.9680   -0.6519   -1.1845 C   0  0  0  0  0  0  0  0  0  0  0  0
    0.3309   -0.4943   -2.0565 H   0  0  0  0  0  0  0  0  0  0  0  0
    1.8220    0.0236   -1.2696 H   0  0  0  0  0  0  0  0  0  0  0  0
    1.4653   -2.1053   -1.2290 C   0  0  0  0  0  0  0  0  0  0  0  0
    1.7060   -2.6895   -0.1463 O   0  5  0  0  0  0  0  0  0  0  0  0
    1.6199   -2.6176   -2.3585 O   0  0  0  0  0  0  0  0  0  0  0  0
   -0.0714    1.2361    0.2064 C   0  0  0  0  0  0  0  0  0  0  0  0
   -1.1020    1.7458   -0.2491 O   0  0  0  0  0  0  0  0  0  0  0  0
    0.8582    1.9675    0.8290 N   0  0  0  0  0  0  0  0  0  0  0  0
    1.7116    1.4711    1.0922 H   0  0  0  0  0  0  0  0  0  0  0  0
    0.8035    3.4131    1.0189 C   0  0  0  0  0  0  0  0  0  0  0  0
   -0.1950    3.7034    1.3485 H   0  0  0  0  0  0  0  0  0  0  0  0
    1.5377    3.7116    1.7667 H   0  0  0  0  0  0  0  0  0  0  0  0
    1.0257    3.9084    0.0735 H   0  0  0  0  0  0  0  0  0  0  0  0
  5  6  2  0  0  0  0
  5  7  1  0  0  0  0
  2  3  1  0  0  0  0
  2  4  1  0  0  0  0
  2  5  1  0  0  0  0
  1  2  1  0  0  0  0
 17 18  2  0  0  0  0
 17 19  1  0  0  0  0
 14 15  1  0  0  0  0
 14 16  2  0  0  0  0
 11 12  1  0  0  0  0
 11 13  1  0  0  0  0
 11 14  1  0  0  0  0
  9 10  1  0  0  0  0
  9 11  1  0  0  0  0
  9 17  1  0  0  0  0
  7  8  1  0  0  0  0
  7  9  1  0  0  0  0
 21 22  1  0  0  0  0
 21 23  1  0  0  0  0
 21 24  1  0  0  0  0
 19 20  1  0  0  0  0
 19 21  1  0  0  0  0
M  CHG  1  15  -1
M  END
$$$$
default_name
  -OEChem-01062215323D

 24 23  0     1  0  0  0  0  0999 V2000
   -2.8347   -3.7166    0.8034 H   0  0  0  0  0  0  0  0  0  0  0  0
   -2.7728   -2.7096    0.3954 C   0  0  0  0  0  0  0  0  0  0  0  0
   -3.4267   -2.0426    0.9524 H   0  0  0  0  0  0  0  0  0  0  0  0
   -3.0538   -2.7186   -0.6556 H   0  0  0  0  0  0  0  0  0  0  0  0
   -1.3498   -2.2206    0.5184 C   0  0  0  0  0  0  0  0  0  0  0  0
   -0.4997   -2.9426    1.0194 O   0  0  0  0  0  0  0  0  0  0  0  0
   -1.1198   -0.9926    0.0674 N   0  0  0  0  0  0  0  0  0  0  0  0
   -1.8978   -0.4486   -0.2716 H   0  0  0  0  0  0  0  0  0  0  0  0
    0.1693   -0.2866    0.0854 C   0  0  1  0  0  0  0  0  0  0  0  0
    0.7422   -0.6117    0.9556 H   0  0  0  0  0  0  0  0  0  0  0  0
    0.9680   -0.6519   -1.1845 C   0  0  0  0  0  0  0  0  0  0  0  0
    0.3309   -0.4943   -2.0565 H   0  0  0  0  0  0  0  0  0  0  0  0
    1.8220    0.0236   -1.2696 H   0  0  0  0  0  0  0  0  0  0  0  0
    1.4653   -2.1053   -1.2290 C   0  0  0  0  0  0  0  0  0  0  0  0
    1.7060   -2.6895   -0.1463 O   0  5  0  0  0  0  0  0  0  0  0  0
    1.6199   -2.6176   -2.3585 O   0  0  0  0  0  0  0  0  0  0  0  0
   -0.0714    1.2361    0.2064 C   0  0  0  0  0  0  0  0  0  0  0  0
   -1.1967    1.7102    0.0102 O   0  0  0  0  0  0  0  0  0  0  0  0
    0.9671    2.0075    0.5431 N   0  0  0  0  0  0  0  0  0  0  0  0
    1.8717    1.5357    0.5981 H   0  0  0  0  0  0  0  0  0  0  0  0
    0.9257    3.4589    0.6861 C   0  0  0  0  0  0  0  0  0  0  0  0
    0.0369    3.7480    1.2485 H   0  0  0  0  0  0  0  0  0  0  0  0
    1.8181    3.8002    1.2099 H   0  0  0  0  0  0  0  0  0  0  0  0
    0.8873    3.9164   -0.3027 H   0  0  0  0  0  0  0  0  0  0  0  0
  5  6  2  0  0  0  0
  5  7  1  0  0  0  0
  2  3  1  0  0  0  0
  2  4  1  0  0  0  0
  2  5  1  0  0  0  0
  1  2  1  0  0  0  0
 17 18  2  0  0  0  0
 17 19  1  0  0  0  0
 14 15  1  0  0  0  0
 14 16  2  0  0  0  0
 11 12  1  0  0  0  0
 11 13  1  0  0  0  0
 11 14  1  0  0  0  0
  9 10  1  0  0  0  0
  9 11  1  0  0  0  0
  9 17  1  0  0  0  0
  7  8  1  0  0  0  0
  7  9  1  0  0  0  0
 21 22  1  0  0  0  0
 21 23  1  0  0  0  0
 21 24  1  0  0  0  0
 19 20  1  0  0  0  0
 19 21  1  0  0  0  0
M  CHG  1  15  -1
M  END
$$$$
default_name
  -OEChem-01062215323D

 24 23  0     1  0  0  0  0  0999 V2000
   -2.8347   -3.7166    0.8034 H   0  0  0  0  0  0  0  0  0  0  0  0
   -2.7728   -2.7096    0.3954 C   0  0  0  0  0  0  0  0  0  0  0  0
   -3.4267   -2.0426    0.9524 H   0  0  0  0  0  0  0  0  0  0  0  0
   -3.0538   -2.7186   -0.6556 H   0  0  0  0  0  0  0  0  0  0  0  0
   -1.3498   -2.2206    0.5184 C   0  0  0  0  0  0  0  0  0  0  0  0
   -0.4997   -2.9426    1.0194 O   0  0  0  0  0  0  0  0  0  0  0  0
   -1.1198   -0.9926    0.0674 N   0  0  0  0  0  0  0  0  0  0  0  0
   -1.8978   -0.4486   -0.2716 H   0  0  0  0  0  0  0  0  0  0  0  0
    0.1693   -0.2866    0.0854 C   0  0  1  0  0  0  0  0  0  0  0  0
    0.8425   -0.7905    0.7811 H   0  0  0  0  0  0  0  0  0  0  0  0
    0.7993   -0.3404   -1.3233 C   0  0  0  0  0  0  0  0  0  0  0  0
    0.0602   -0.0003   -2.0508 H   0  0  0  0  0  0  0  0  0  0  0  0
    1.6435    0.3518   -1.3578 H   0  0  0  0  0  0  0  0  0  0  0  0
    1.2708   -1.7368   -1.7581 C   0  0  0  0  0  0  0  0  0  0  0  0
    1.6382   -2.5470   -0.8747 O   0  5  0  0  0  0  0  0  0  0  0  0
    1.2777   -1.9769   -2.9846 O   0  0  0  0  0  0  0  0  0  0  0  0
   -0.0374    1.1645    0.5781 C   0  0  0  0  0  0  0  0  0  0  0  0
   -1.1632    1.5628    0.8996 O   0  0  0  0  0  0  0  0  0  0  0  0
    1.0370    1.9559    0.6574 N   0  0  0  0  0  0  0  0  0  0  0  0
    1.9055    1.5645    0.2878 H   0  0  0  0  0  0  0  0  0  0  0  0
    1.0247    3.3511    1.0840 C   0  0  0  0  0  0  0  0  0  0  0  0
    0.4049    3.4579    1.9752 H   0  0  0  0  0  0  0  0  0  0  0  0
    2.0416    3.6752    1.3036 H   0  0  0  0  0  0  0  0  0  0  0  0
    0.6113    3.9673    0.2853 H   0  0  0  0  0  0  0  0  0  0  0  0
  5  6  2  0  0  0  0
  5  7  1  0  0  0  0
  2  3  1  0  0  0  0
  2  4  1  0  0  0  0
  2  5  1  0  0  0  0
  1  2  1  0  0  0  0
 17 18  2  0  0  0  0
 17 19  1  0  0  0  0
 14 15  1  0  0  0  0
 14 16  2  0  0  0  0
 11 12  1  0  0  0  0
 11 13  1  0  0  0  0
 11 14  1  0  0  0  0
  9 10  1  0  0  0  0
  9 11  1  0  0  0  0
  9 17  1  0  0  0  0
  7  8  1  0  0  0  0
  7  9  1  0  0  0  0
 21 22  1  0  0  0  0
 21 23  1  0  0  0  0
 21 24  1  0  0  0  0
 19 20  1  0  0  0  0
 19 21  1  0  0  0  0
M  CHG  1  15  -1
M  END
$$$$
default_name
  -OEChem-01062215323D

 24 23  0     1  0  0  0  0  0999 V2000
   -2.8347   -3.7166    0.8034 H   0  0  0  0  0  0  0  0  0  0  0  0
   -2.7728   -2.7096    0.3954 C   0  0  0  0  0  0  0  0  0  0  0  0
   -3.4267   -2.0426    0.9524 H   0  0  0  0  0  0  0  0  0  0  0  0
   -3.0538   -2.7186   -0.6556 H   0  0  0  0  0  0  0  0  0  0  0  0
   -1.3498   -2.2206    0.5184 C   0  0  0  0  0  0  0  0  0  0  0  0
   -0.4997   -2.9426    1.0194 O   0  0  0  0  0  0  0  0  0  0  0  0
   -1.1198   -0.9926    0.0674 N   0  0  0  0  0  0  0  0  0  0  0  0
   -1.8978   -0.4486   -0.2716 H   0  0  0  0  0  0  0  0  0  0  0  0
    0.1693   -0.2866    0.0854 C   0  0  1  0  0  0  0  0  0  0  0  0
    0.8425   -0.7905    0.7811 H   0  0  0  0  0  0  0  0  0  0  0  0
    0.7993   -0.3404   -1.3233 C   0  0  0  0  0  0  0  0  0  0  0  0
    0.0602   -0.0003   -2.0508 H   0  0  0  0  0  0  0  0  0  0  0  0
    1.6435    0.3518   -1.3578 H   0  0  0  0  0  0  0  0  0  0  0  0
    1.2708   -1.7368   -1.7581 C   0  0  0  0  0  0  0  0  0  0  0  0
    1.6382   -2.5470   -0.8747 O   0  5  0  0  0  0  0  0  0  0  0  0
    1.2777   -1.9769   -2.9846 O   0  0  0  0  0  0  0  0  0  0  0  0
   -0.0374    1.1645    0.5781 C   0  0  0  0  0  0  0  0  0  0  0  0
   -1.0825    1.4875    1.1551 O   0  0  0  0  0  0  0  0  0  0  0  0
    0.9515    2.0402    0.3731 N   0  0  0  0  0  0  0  0  0  0  0  0
    1.7357    1.7018   -0.1878 H   0  0  0  0  0  0  0  0  0  0  0  0
    0.9216    3.4479    0.7556 C   0  0  0  0  0  0  0  0  0  0  0  0
    0.5285    3.5457    1.7684 H   0  0  0  0  0  0  0  0  0  0  0  0
    1.9294    3.8600    0.7121 H   0  0  0  0  0  0  0  0  0  0  0  0
    0.2758    3.9935    0.0674 H   0  0  0  0  0  0  0  0  0  0  0  0
  5  6  2  0  0  0  0
  5  7  1  0  0  0  0
  2  3  1  0  0  0  0
  2  4  1  0  0  0  0
  2  5  1  0  0  0  0
  1  2  1  0  0  0  0
 17 18  2  0  0  0  0
 17 19  1  0  0  0  0
 14 15  1  0  0  0  0
 14 16  2  0  0  0  0
 11 12  1  0  0  0  0
 11 13  1  0  0  0  0
 11 14  1  0  0  0  0
  9 10  1  0  0  0  0
  9 11  1  0  0  0  0
  9 17  1  0  0  0  0
  7  8  1  0  0  0  0
  7  9  1  0  0  0  0
 21 22  1  0  0  0  0
 21 23  1  0  0  0  0
 21 24  1  0  0  0  0
 19 20  1  0  0  0  0
 19 21  1  0  0  0  0
M  CHG  1  15  -1
M  END
$$$$
default_name
  -OEChem-01062215323D

 24 23  0     1  0  0  0  0  0999 V2000
   -2.8347   -3.7166    0.8034 H   0  0  0  0  0  0  0  0  0  0  0  0
   -2.7728   -2.7096    0.3954 C   0  0  0  0  0  0  0  0  0  0  0  0
   -3.4267   -2.0426    0.9524 H   0  0  0  0  0  0  0  0  0  0  0  0
   -3.0538   -2.7186   -0.6556 H   0  0  0  0  0  0  0  0  0  0  0  0
   -1.3498   -2.2206    0.5184 C   0  0  0  0  0  0  0  0  0  0  0  0
   -0.4997   -2.9426    1.0194 O   0  0  0  0  0  0  0  0  0  0  0  0
   -1.1198   -0.9926    0.0674 N   0  0  0  0  0  0  0  0  0  0  0  0
   -1.8978   -0.4486   -0.2716 H   0  0  0  0  0  0  0  0  0  0  0  0
    0.1693   -0.2866    0.0854 C   0  0  1  0  0  0  0  0  0  0  0  0
    0.8425   -0.7905    0.7811 H   0  0  0  0  0  0  0  0  0  0  0  0
    0.7993   -0.3404   -1.3233 C   0  0  0  0  0  0  0  0  0  0  0  0
    0.0602   -0.0003   -2.0508 H   0  0  0  0  0  0  0  0  0  0  0  0
    1.6435    0.3518   -1.3578 H   0  0  0  0  0  0  0  0  0  0  0  0
    1.2708   -1.7368   -1.7581 C   0  0  0  0  0  0  0  0  0  0  0  0
    1.6382   -2.5470   -0.8747 O   0  5  0  0  0  0  0  0  0  0  0  0
    1.2777   -1.9769   -2.9846 O   0  0  0  0  0  0  0  0  0  0  0  0
   -0.0374    1.1645    0.5781 C   0  0  0  0  0  0  0  0  0  0  0  0
   -0.9362    1.4303    1.3849 O   0  0  0  0  0  0  0  0  0  0  0  0
    0.7930    2.1048    0.1164 N   0  0  0  0  0  0  0  0  0  0  0  0
    1.4448    1.8040   -0.6107 H   0  0  0  0  0  0  0  0  0  0  0  0
    0.7344    3.5215    0.4602 C   0  0  0  0  0  0  0  0  0  0  0  0
    0.5904    3.6336    1.5356 H   0  0  0  0  0  0  0  0  0  0  0  0
    1.6622    4.0088    0.1617 H   0  0  0  0  0  0  0  0  0  0  0  0
   -0.1033    3.9837   -0.0625 H   0  0  0  0  0  0  0  0  0  0  0  0
  5  6  2  0  0  0  0
  5  7  1  0  0  0  0
  2  3  1  0  0  0  0
  2  4  1  0  0  0  0
  2  5  1  0  0  0  0
  1  2  1  0  0  0  0
 17 18  2  0  0  0  0
 17 19  1  0  0  0  0
 14 15  1  0  0  0  0
 14 16  2  0  0  0  0
 11 12  1  0  0  0  0
 11 13  1  0  0  0  0
 11 14  1  0  0  0  0
  9 10  1  0  0  0  0
  9 11  1  0  0  0  0
  9 17  1  0  0  0  0
  7  8  1  0  0  0  0
  7  9  1  0  0  0  0
 21 22  1  0  0  0  0
 21 23  1  0  0  0  0
 21 24  1  0  0  0  0
 19 20  1  0  0  0  0
 19 21  1  0  0  0  0
M  CHG  1  15  -1
M  END
$$$$
default_name
  -OEChem-01062215323D

 24 23  0     1  0  0  0  0  0999 V2000
   -2.8347   -3.7166    0.8034 H   0  0  0  0  0  0  0  0  0  0  0  0
   -2.7728   -2.7096    0.3954 C   0  0  0  0  0  0  0  0  0  0  0  0
   -3.4267   -2.0426    0.9524 H   0  0  0  0  0  0  0  0  0  0  0  0
   -3.0538   -2.7186   -0.6556 H   0  0  0  0  0  0  0  0  0  0  0  0
   -1.3498   -2.2206    0.5184 C   0  0  0  0  0  0  0  0  0  0  0  0
   -0.4997   -2.9426    1.0194 O   0  0  0  0  0  0  0  0  0  0  0  0
   -1.1198   -0.9926    0.0674 N   0  0  0  0  0  0  0  0  0  0  0  0
   -1.8978   -0.4486   -0.2716 H   0  0  0  0  0  0  0  0  0  0  0  0
    0.1693   -0.2866    0.0854 C   0  0  1  0  0  0  0  0  0  0  0  0
    0.8425   -0.7905    0.7811 H   0  0  0  0  0  0  0  0  0  0  0  0
    0.7993   -0.3404   -1.3233 C   0  0  0  0  0  0  0  0  0  0  0  0
    0.0602   -0.0003   -2.0508 H   0  0  0  0  0  0  0  0  0  0  0  0
    1.6435    0.3518   -1.3578 H   0  0  0  0  0  0  0  0  0  0  0  0
    1.2708   -1.7368   -1.7581 C   0  0  0  0  0  0  0  0  0  0  0  0
    1.6382   -2.5470   -0.8747 O   0  5  0  0  0  0  0  0  0  0  0  0
    1.2777   -1.9769   -2.9846 O   0  0  0  0  0  0  0  0  0  0  0  0
   -0.0374    1.1645    0.5781 C   0  0  0  0  0  0  0  0  0  0  0  0
   -0.7344    1.3951    1.5733 O   0  0  0  0  0  0  0  0  0  0  0  0
    0.5722    2.1452   -0.0953 N   0  0  0  0  0  0  0  0  0  0  0  0
    1.0528    1.8640   -0.9520 H   0  0  0  0  0  0  0  0  0  0  0  0
    0.4756    3.5670    0.2177 C   0  0  0  0  0  0  0  0  0  0  0  0
    0.5864    3.7155    1.2927 H   0  0  0  0  0  0  0  0  0  0  0  0
    1.2581    4.1115   -0.3102 H   0  0  0  0  0  0  0  0  0  0  0  0
   -0.5003    3.9384   -0.0955 H   0  0  0  0  0  0  0  0  0  0  0  0
  5  6  2  0  0  0  0
  5  7  1  0  0  0  0
  2  3  1  0  0  0  0
  2  4  1  0  0  0  0
  2  5  1  0  0  0  0
  1  2  1  0  0  0  0
 17 18  2  0  0  0  0
 17 19  1  0  0  0  0
 14 15  1  0  0  0  0
 14 16  2  0  0  0  0
 11 12  1  0  0  0  0
 11 13  1  0  0  0  0
 11 14  1  0  0  0  0
  9 10  1  0  0  0  0
  9 11  1  0  0  0  0
  9 17  1  0  0  0  0
  7  8  1  0  0  0  0
  7  9  1  0  0  0  0
 21 22  1  0  0  0  0
 21 23  1  0  0  0  0
 21 24  1  0  0  0  0
 19 20  1  0  0  0  0
 19 21  1  0  0  0  0
M  CHG  1  15  -1
M  END
$$$$
default_name
  -OEChem-01062215323D

 24 23  0     1  0  0  0  0  0999 V2000
   -2.8347   -3.7166    0.8034 H   0  0  0  0  0  0  0  0  0  0  0  0
   -2.7728   -2.7096    0.3954 C   0  0  0  0  0  0  0  0  0  0  0  0
   -3.4267   -2.0426    0.9524 H   0  0  0  0  0  0  0  0  0  0  0  0
   -3.0538   -2.7186   -0.6556 H   0  0  0  0  0  0  0  0  0  0  0  0
   -1.3498   -2.2206    0.5184 C   0  0  0  0  0  0  0  0  0  0  0  0
   -0.4997   -2.9426    1.0194 O   0  0  0  0  0  0  0  0  0  0  0  0
   -1.1198   -0.9926    0.0674 N   0  0  0  0  0  0  0  0  0  0  0  0
   -1.8978   -0.4486   -0.2716 H   0  0  0  0  0  0  0  0  0  0  0  0
    0.1693   -0.2866    0.0854 C   0  0  1  0  0  0  0  0  0  0  0  0
    0.8425   -0.7905    0.7811 H   0  0  0  0  0  0  0  0  0  0  0  0
    0.7993   -0.3404   -1.3233 C   0  0  0  0  0  0  0  0  0  0  0  0
    0.0602   -0.0003   -2.0508 H   0  0  0  0  0  0  0  0  0  0  0  0
    1.6435    0.3518   -1.3578 H   0  0  0  0  0  0  0  0  0  0  0  0
    1.2708   -1.7368   -1.7581 C   0  0  0  0  0  0  0  0  0  0  0  0
    1.6382   -2.5470   -0.8747 O   0  5  0  0  0  0  0  0  0  0  0  0
    1.2777   -1.9769   -2.9846 O   0  0  0  0  0  0  0  0  0  0  0  0
   -0.0374    1.1645    0.5781 C   0  0  0  0  0  0  0  0  0  0  0  0
   -0.4908    1.3842    1.7075 O   0  0  0  0  0  0  0  0  0  0  0  0
    0.3042    2.1587   -0.2475 N   0  0  0  0  0  0  0  0  0  0  0  0
    0.5862    1.8779   -1.1886 H   0  0  0  0  0  0  0  0  0  0  0  0
    0.1631    3.5812    0.0448 C   0  0  0  0  0  0  0  0  0  0  0  0
    0.5168    3.7859    1.0561 H   0  0  0  0  0  0  0  0  0  0  0  0
    0.7447    4.1610   -0.6714 H   0  0  0  0  0  0  0  0  0  0  0  0
   -0.8880    3.8607   -0.0295 H   0  0  0  0  0  0  0  0  0  0  0  0
  5  6  2  0  0  0  0
  5  7  1  0  0  0  0
  2  3  1  0  0  0  0
  2  4  1  0  0  0  0
  2  5  1  0  0  0  0
  1  2  1  0  0  0  0
 17 18  2  0  0  0  0
 17 19  1  0  0  0  0
 14 15  1  0  0  0  0
 14 16  2  0  0  0  0
 11 12  1  0  0  0  0
 11 13  1  0  0  0  0
 11 14  1  0  0  0  0
  9 10  1  0  0  0  0
  9 11  1  0  0  0  0
  9 17  1  0  0  0  0
  7  8  1  0  0  0  0
  7  9  1  0  0  0  0
 21 22  1  0  0  0  0
 21 23  1  0  0  0  0
 21 24  1  0  0  0  0
 19 20  1  0  0  0  0
 19 21  1  0  0  0  0
M  CHG  1  15  -1
M  END
$$$$
default_name
  -OEChem-01062215323D

 24 23  0     1  0  0  0  0  0999 V2000
   -2.8347   -3.7166    0.8034 H   0  0  0  0  0  0  0  0  0  0  0  0
   -2.7728   -2.7096    0.3954 C   0  0  0  0  0  0  0  0  0  0  0  0
   -3.4267   -2.0426    0.9524 H   0  0  0  0  0  0  0  0  0  0  0  0
   -3.0538   -2.7186   -0.6556 H   0  0  0  0  0  0  0  0  0  0  0  0
   -1.3498   -2.2206    0.5184 C   0  0  0  0  0  0  0  0  0  0  0  0
   -0.4997   -2.9426    1.0194 O   0  0  0  0  0  0  0  0  0  0  0  0
   -1.1198   -0.9926    0.0674 N   0  0  0  0  0  0  0  0  0  0  0  0
   -1.8978   -0.4486   -0.2716 H   0  0  0  0  0  0  0  0  0  0  0  0
    0.1693   -0.2866    0.0854 C   0  0  1  0  0  0  0  0  0  0  0  0
    0.8425   -0.7905    0.7811 H   0  0  0  0  0  0  0  0  0  0  0  0
    0.7993   -0.3404   -1.3233 C   0  0  0  0  0  0  0  0  0  0  0  0
    0.0602   -0.0003   -2.0508 H   0  0  0  0  0  0  0  0  0  0  0  0
    1.6435    0.3518   -1.3578 H   0  0  0  0  0  0  0  0  0  0  0  0
    1.2708   -1.7368   -1.7581 C   0  0  0  0  0  0  0  0  0  0  0  0
    1.6382   -2.5470   -0.8747 O   0  5  0  0  0  0  0  0  0  0  0  0
    1.2777   -1.9769   -2.9846 O   0  0  0  0  0  0  0  0  0  0  0  0
   -0.0374    1.1645    0.5781 C   0  0  0  0  0  0  0  0  0  0  0  0
   -0.2220    1.3984    1.7784 O   0  0  0  0  0  0  0  0  0  0  0  0
    0.0072    2.1444   -0.3299 N   0  0  0  0  0  0  0  0  0  0  0  0
    0.0769    1.8447   -1.3043 H   0  0  0  0  0  0  0  0  0  0  0  0
   -0.1820    3.5632   -0.0468 C   0  0  0  0  0  0  0  0  0  0  0  0
    0.3863    3.8399    0.8421 H   0  0  0  0  0  0  0  0  0  0  0  0
    0.1569    4.1541   -0.8973 H   0  0  0  0  0  0  0  0  0  0  0  0
   -1.2401    3.7561    0.1312 H   0  0  0  0  0  0  0  0  0  0  0  0
  5  6  2  0  0  0  0
  5  7  1  0  0  0  0
  2  3  1  0  0  0  0
  2  4  1  0  0  0  0
  2  5  1  0  0  0  0
  1  2  1  0  0  0  0
 17 18  2  0  0  0  0
 17 19  1  0  0  0  0
 14 15  1  0  0  0  0
 14 16  2  0  0  0  0
 11 12  1  0  0  0  0
 11 13  1  0  0  0  0
 11 14  1  0  0  0  0
  9 10  1  0  0  0  0
  9 11  1  0  0  0  0
  9 17  1  0  0  0  0
  7  8  1  0  0  0  0
  7  9  1  0  0  0  0
 21 22  1  0  0  0  0
 21 23  1  0  0  0  0
 21 24  1  0  0  0  0
 19 20  1  0  0  0  0
 19 21  1  0  0  0  0
M  CHG  1  15  -1
M  END
$$$$
default_name
  -OEChem-01062215323D

 24 23  0     1  0  0  0  0  0999 V2000
   -2.8347   -3.7166    0.8034 H   0  0  0  0  0  0  0  0  0  0  0  0
   -2.7728   -2.7096    0.3954 C   0  0  0  0  0  0  0  0  0  0  0  0
   -3.4267   -2.0426    0.9524 H   0  0  0  0  0  0  0  0  0  0  0  0
   -3.0538   -2.7186   -0.6556 H   0  0  0  0  0  0  0  0  0  0  0  0
   -1.3498   -2.2206    0.5184 C   0  0  0  0  0  0  0  0  0  0  0  0
   -0.4997   -2.9426    1.0194 O   0  0  0  0  0  0  0  0  0  0  0  0
   -1.1198   -0.9926    0.0674 N   0  0  0  0  0  0  0  0  0  0  0  0
   -1.8978   -0.4486   -0.2716 H   0  0  0  0  0  0  0  0  0  0  0  0
    0.1693   -0.2866    0.0854 C   0  0  1  0  0  0  0  0  0  0  0  0
    0.8425   -0.7905    0.7811 H   0  0  0  0  0  0  0  0  0  0  0  0
    0.7993   -0.3404   -1.3233 C   0  0  0  0  0  0  0  0  0  0  0  0
    0.0602   -0.0003   -2.0508 H   0  0  0  0  0  0  0  0  0  0  0  0
    1.6435    0.3518   -1.3578 H   0  0  0  0  0  0  0  0  0  0  0  0
    1.2708   -1.7368   -1.7581 C   0  0  0  0  0  0  0  0  0  0  0  0
    1.6382   -2.5470   -0.8747 O   0  5  0  0  0  0  0  0  0  0  0  0
    1.2777   -1.9769   -2.9846 O   0  0  0  0  0  0  0  0  0  0  0  0
   -0.0374    1.1645    0.5781 C   0  0  0  0  0  0  0  0  0  0  0  0
    0.0537    1.4368    1.7810 O   0  0  0  0  0  0  0  0  0  0  0  0
   -0.2985    2.1033   -0.3369 N   0  0  0  0  0  0  0  0  0  0  0  0
   -0.4404    1.7666   -1.2912 H   0  0  0  0  0  0  0  0  0  0  0  0
   -0.5361    3.5141   -0.0509 C   0  0  0  0  0  0  0  0  0  0  0  0
    0.2038    3.8740    0.6653 H   0  0  0  0  0  0  0  0  0  0  0  0
   -0.4651    4.0910   -0.9726 H   0  0  0  0  0  0  0  0  0  0  0  0
   -1.5325    3.6315    0.3755 H   0  0  0  0  0  0  0  0  0  0  0  0
  5  6  2  0  0  0  0
  5  7  1  0  0  0  0
  2  3  1  0  0  0  0
  2  4  1  0  0  0  0
  2  5  1  0  0  0  0
  1  2  1  0  0  0  0
 17 18  2  0  0  0  0
 17 19  1  0  0  0  0
 14 15  1  0  0  0  0
 14 16  2  0  0  0  0
 11 12  1  0  0  0  0
 11 13  1  0  0  0  0
 11 14  1  0  0  0  0
  9 10  1  0  0  0  0
  9 11  1  0  0  0  0
  9 17  1  0  0  0  0
  7  8  1  0  0  0  0
  7  9  1  0  0  0  0
 21 22  1  0  0  0  0
 21 23  1  0  0  0  0
 21 24  1  0  0  0  0
 19 20  1  0  0  0  0
 19 21  1  0  0  0  0
M  CHG  1  15  -1
M  END
$$$$
default_name
  -OEChem-01062215323D

 24 23  0     1  0  0  0  0  0999 V2000
   -2.8347   -3.7166    0.8034 H   0  0  0  0  0  0  0  0  0  0  0  0
   -2.7728   -2.7096    0.3954 C   0  0  0  0  0  0  0  0  0  0  0  0
   -3.4267   -2.0426    0.9524 H   0  0  0  0  0  0  0  0  0  0  0  0
   -3.0538   -2.7186   -0.6556 H   0  0  0  0  0  0  0  0  0  0  0  0
   -1.3498   -2.2206    0.5184 C   0  0  0  0  0  0  0  0  0  0  0  0
   -0.4997   -2.9426    1.0194 O   0  0  0  0  0  0  0  0  0  0  0  0
   -1.1198   -0.9926    0.0674 N   0  0  0  0  0  0  0  0  0  0  0  0
   -1.8978   -0.4486   -0.2716 H   0  0  0  0  0  0  0  0  0  0  0  0
    0.1693   -0.2866    0.0854 C   0  0  1  0  0  0  0  0  0  0  0  0
    0.8425   -0.7905    0.7811 H   0  0  0  0  0  0  0  0  0  0  0  0
    0.7993   -0.3404   -1.3233 C   0  0  0  0  0  0  0  0  0  0  0  0
    0.0602   -0.0003   -2.0508 H   0  0  0  0  0  0  0  0  0  0  0  0
    1.6435    0.3518   -1.3578 H   0  0  0  0  0  0  0  0  0  0  0  0
    1.2708   -1.7368   -1.7581 C   0  0  0  0  0  0  0  0  0  0  0  0
    1.6382   -2.5470   -0.8747 O   0  5  0  0  0  0  0  0  0  0  0  0
    1.2777   -1.9769   -2.9846 O   0  0  0  0  0  0  0  0  0  0  0  0
   -0.0374    1.1645    0.5781 C   0  0  0  0  0  0  0  0  0  0  0  0
    0.3174    1.4967    1.7153 O   0  0  0  0  0  0  0  0  0  0  0  0
   -0.5921    2.0381   -0.2680 N   0  0  0  0  0  0  0  0  0  0  0  0
   -0.9304    1.6489   -1.1502 H   0  0  0  0  0  0  0  0  0  0  0  0
   -0.8750    3.4374    0.0329 C   0  0  0  0  0  0  0  0  0  0  0  0
   -0.0182    3.8857    0.5376 H   0  0  0  0  0  0  0  0  0  0  0  0
   -1.0790    3.9763   -0.8920 H   0  0  0  0  0  0  0  0  0  0  0  0
   -1.7453    3.4955    0.6868 H   0  0  0  0  0  0  0  0  0  0  0  0
  5  6  2  0  0  0  0
  5  7  1  0  0  0  0
  2  3  1  0  0  0  0
  2  4  1  0  0  0  0
  2  5  1  0  0  0  0
  1  2  1  0  0  0  0
 17 18  2  0  0  0  0
 17 19  1  0  0  0  0
 14 15  1  0  0  0  0
 14 16  2  0  0  0  0
 11 12  1  0  0  0  0
 11 13  1  0  0  0  0
 11 14  1  0  0  0  0
  9 10  1  0  0  0  0
  9 11  1  0  0  0  0
  9 17  1  0  0  0  0
  7  8  1  0  0  0  0
  7  9  1  0  0  0  0
 21 22  1  0  0  0  0
 21 23  1  0  0  0  0
 21 24  1  0  0  0  0
 19 20  1  0  0  0  0
 19 21  1  0  0  0  0
M  CHG  1  15  -1
M  END
$$$$
default_name
  -OEChem-01062215323D

 24 23  0     1  0  0  0  0  0999 V2000
   -2.8347   -3.7166    0.8034 H   0  0  0  0  0  0  0  0  0  0  0  0
   -2.7728   -2.7096    0.3954 C   0  0  0  0  0  0  0  0  0  0  0  0
   -3.4267   -2.0426    0.9524 H   0  0  0  0  0  0  0  0  0  0  0  0
   -3.0538   -2.7186   -0.6556 H   0  0  0  0  0  0  0  0  0  0  0  0
   -1.3498   -2.2206    0.5184 C   0  0  0  0  0  0  0  0  0  0  0  0
   -0.4997   -2.9426    1.0194 O   0  0  0  0  0  0  0  0  0  0  0  0
   -1.1198   -0.9926    0.0674 N   0  0  0  0  0  0  0  0  0  0  0  0
   -1.8978   -0.4486   -0.2716 H   0  0  0  0  0  0  0  0  0  0  0  0
    0.1693   -0.2866    0.0854 C   0  0  1  0  0  0  0  0  0  0  0  0
    0.8425   -0.7905    0.7811 H   0  0  0  0  0  0  0  0  0  0  0  0
    0.7993   -0.3404   -1.3233 C   0  0  0  0  0  0  0  0  0  0  0  0
    0.0602   -0.0003   -2.0508 H   0  0  0  0  0  0  0  0  0  0  0  0
    1.6435    0.3518   -1.3578 H   0  0  0  0  0  0  0  0  0  0  0  0
    1.2708   -1.7368   -1.7581 C   0  0  0  0  0  0  0  0  0  0  0  0
    1.6382   -2.5470   -0.8747 O   0  5  0  0  0  0  0  0  0  0  0  0
    1.2777   -1.9769   -2.9846 O   0  0  0  0  0  0  0  0  0  0  0  0
   -0.0374    1.1645    0.5781 C   0  0  0  0  0  0  0  0  0  0  0  0
    0.5513    1.5740    1.5857 O   0  0  0  0  0  0  0  0  0  0  0  0
   -0.8536    1.9533   -0.1279 N   0  0  0  0  0  0  0  0  0  0  0  0
   -1.3598    1.4997   -0.8909 H   0  0  0  0  0  0  0  0  0  0  0  0
   -1.1757    3.3383    0.1988 C   0  0  0  0  0  0  0  0  0  0  0  0
   -0.2646    3.8744    0.4677 H   0  0  0  0  0  0  0  0  0  0  0  0
   -1.6429    3.8176   -0.6611 H   0  0  0  0  0  0  0  0  0  0  0  0
   -1.8641    3.3573    1.0439 H   0  0  0  0  0  0  0  0  0  0  0  0
  5  6  2  0  0  0  0
  5  7  1  0  0  0  0
  2  3  1  0  0  0  0
  2  4  1  0  0  0  0
  2  5  1  0  0  0  0
  1  2  1  0  0  0  0
 17 18  2  0  0  0  0
 17 19  1  0  0  0  0
 14 15  1  0  0  0  0
 14 16  2  0  0  0  0
 11 12  1  0  0  0  0
 11 13  1  0  0  0  0
 11 14  1  0  0  0  0
  9 10  1  0  0  0  0
  9 11  1  0  0  0  0
  9 17  1  0  0  0  0
  7  8  1  0  0  0  0
  7  9  1  0  0  0  0
 21 22  1  0  0  0  0
 21 23  1  0  0  0  0
 21 24  1  0  0  0  0
 19 20  1  0  0  0  0
 19 21  1  0  0  0  0
M  CHG  1  15  -1
M  END
$$$$
default_name
  -OEChem-01062215323D

 24 23  0     1  0  0  0  0  0999 V2000
   -2.8347   -3.7166    0.8034 H   0  0  0  0  0  0  0  0  0  0  0  0
   -2.7728   -2.7096    0.3954 C   0  0  0  0  0  0  0  0  0  0  0  0
   -3.4267   -2.0426    0.9524 H   0  0  0  0  0  0  0  0  0  0  0  0
   -3.0538   -2.7186   -0.6556 H   0  0  0  0  0  0  0  0  0  0  0  0
   -1.3498   -2.2206    0.5184 C   0  0  0  0  0  0  0  0  0  0  0  0
   -0.4997   -2.9426    1.0194 O   0  0  0  0  0  0  0  0  0  0  0  0
   -1.1198   -0.9926    0.0674 N   0  0  0  0  0  0  0  0  0  0  0  0
   -1.8978   -0.4486   -0.2716 H   0  0  0  0  0  0  0  0  0  0  0  0
    0.1693   -0.2866    0.0854 C   0  0  1  0  0  0  0  0  0  0  0  0
    0.8425   -0.7905    0.7811 H   0  0  0  0  0  0  0  0  0  0  0  0
    0.7993   -0.3404   -1.3233 C   0  0  0  0  0  0  0  0  0  0  0  0
    0.0602   -0.0003   -2.0508 H   0  0  0  0  0  0  0  0  0  0  0  0
    1.6435    0.3518   -1.3578 H   0  0  0  0  0  0  0  0  0  0  0  0
    1.2708   -1.7368   -1.7581 C   0  0  0  0  0  0  0  0  0  0  0  0
    1.6382   -2.5470   -0.8747 O   0  5  0  0  0  0  0  0  0  0  0  0
    1.2777   -1.9769   -2.9846 O   0  0  0  0  0  0  0  0  0  0  0  0
   -0.0374    1.1645    0.5781 C   0  0  0  0  0  0  0  0  0  0  0  0
    0.7394    1.6634    1.4010 O   0  0  0  0  0  0  0  0  0  0  0  0
   -1.0651    1.8546    0.0739 N   0  0  0  0  0  0  0  0  0  0  0  0
   -1.6992    1.3292   -0.5310 H   0  0  0  0  0  0  0  0  0  0  0  0
   -1.4178    3.2234    0.4355 C   0  0  0  0  0  0  0  0  0  0  0  0
   -0.5187    3.8406    0.4605 H   0  0  0  0  0  0  0  0  0  0  0  0
   -2.1185    3.6258   -0.2956 H   0  0  0  0  0  0  0  0  0  0  0  0
   -1.8807    3.2264    1.4225 H   0  0  0  0  0  0  0  0  0  0  0  0
  5  6  2  0  0  0  0
  5  7  1  0  0  0  0
  2  3  1  0  0  0  0
  2  4  1  0  0  0  0
  2  5  1  0  0  0  0
  1  2  1  0  0  0  0
 17 18  2  0  0  0  0
 17 19  1  0  0  0  0
 14 15  1  0  0  0  0
 14 16  2  0  0  0  0
 11 12  1  0  0  0  0
 11 13  1  0  0  0  0
 11 14  1  0  0  0  0
  9 10  1  0  0  0  0
  9 11  1  0  0  0  0
  9 17  1  0  0  0  0
  7  8  1  0  0  0  0
  7  9  1  0  0  0  0
 21 22  1  0  0  0  0
 21 23  1  0  0  0  0
 21 24  1  0  0  0  0
 19 20  1  0  0  0  0
 19 21  1  0  0  0  0
M  CHG  1  15  -1
M  END
$$$$
default_name
  -OEChem-01062215323D

 24 23  0     1  0  0  0  0  0999 V2000
   -2.8347   -3.7166    0.8034 H   0  0  0  0  0  0  0  0  0  0  0  0
   -2.7728   -2.7096    0.3954 C   0  0  0  0  0  0  0  0  0  0  0  0
   -3.4267   -2.0426    0.9524 H   0  0  0  0  0  0  0  0  0  0  0  0
   -3.0538   -2.7186   -0.6556 H   0  0  0  0  0  0  0  0  0  0  0  0
   -1.3498   -2.2206    0.5184 C   0  0  0  0  0  0  0  0  0  0  0  0
   -0.4997   -2.9426    1.0194 O   0  0  0  0  0  0  0  0  0  0  0  0
   -1.1198   -0.9926    0.0674 N   0  0  0  0  0  0  0  0  0  0  0  0
   -1.8978   -0.4486   -0.2716 H   0  0  0  0  0  0  0  0  0  0  0  0
    0.1693   -0.2866    0.0854 C   0  0  1  0  0  0  0  0  0  0  0  0
    0.8425   -0.7905    0.7811 H   0  0  0  0  0  0  0  0  0  0  0  0
    0.7993   -0.3404   -1.3233 C   0  0  0  0  0  0  0  0  0  0  0  0
    0.0602   -0.0003   -2.0508 H   0  0  0  0  0  0  0  0  0  0  0  0
    1.6435    0.3518   -1.3578 H   0  0  0  0  0  0  0  0  0  0  0  0
    1.2708   -1.7368   -1.7581 C   0  0  0  0  0  0  0  0  0  0  0  0
    1.6382   -2.5470   -0.8747 O   0  5  0  0  0  0  0  0  0  0  0  0
    1.2777   -1.9769   -2.9846 O   0  0  0  0  0  0  0  0  0  0  0  0
   -0.0374    1.1645    0.5781 C   0  0  0  0  0  0  0  0  0  0  0  0
    0.8688    1.7590    1.1739 O   0  0  0  0  0  0  0  0  0  0  0  0
   -1.2123    1.7489    0.3236 N   0  0  0  0  0  0  0  0  0  0  0  0
   -1.9257    1.1490   -0.0950 H   0  0  0  0  0  0  0  0  0  0  0  0
   -1.5846    3.1008    0.7269 C   0  0  0  0  0  0  0  0  0  0  0  0
   -0.7631    3.7868    0.5164 H   0  0  0  0  0  0  0  0  0  0  0  0
   -2.4732    3.4139    0.1796 H   0  0  0  0  0  0  0  0  0  0  0  0
   -1.7940    3.1117    1.7967 H   0  0  0  0  0  0  0  0  0  0  0  0
  5  6  2  0  0  0  0
  5  7  1  0  0  0  0
  2  3  1  0  0  0  0
  2  4  1  0  0  0  0
  2  5  1  0  0  0  0
  1  2  1  0  0  0  0
 17 18  2  0  0  0  0
 17 19  1  0  0  0  0
 14 15  1  0  0  0  0
 14 16  2  0  0  0  0
 11 12  1  0  0  0  0
 11 13  1  0  0  0  0
 11 14  1  0  0  0  0
  9 10  1  0  0  0  0
  9 11  1  0  0  0  0
  9 17  1  0  0  0  0
  7  8  1  0  0  0  0
  7  9  1  0  0  0  0
 21 22  1  0  0  0  0
 21 23  1  0  0  0  0
 21 24  1  0  0  0  0
 19 20  1  0  0  0  0
 19 21  1  0  0  0  0
M  CHG  1  15  -1
M  END
$$$$
default_name
  -OEChem-01062215323D

 24 23  0     1  0  0  0  0  0999 V2000
   -2.8347   -3.7166    0.8034 H   0  0  0  0  0  0  0  0  0  0  0  0
   -2.7728   -2.7096    0.3954 C   0  0  0  0  0  0  0  0  0  0  0  0
   -3.4267   -2.0426    0.9524 H   0  0  0  0  0  0  0  0  0  0  0  0
   -3.0538   -2.7186   -0.6556 H   0  0  0  0  0  0  0  0  0  0  0  0
   -1.3498   -2.2206    0.5184 C   0  0  0  0  0  0  0  0  0  0  0  0
   -0.4997   -2.9426    1.0194 O   0  0  0  0  0  0  0  0  0  0  0  0
   -1.1198   -0.9926    0.0674 N   0  0  0  0  0  0  0  0  0  0  0  0
   -1.8978   -0.4486   -0.2716 H   0  0  0  0  0  0  0  0  0  0  0  0
    0.1693   -0.2866    0.0854 C   0  0  1  0  0  0  0  0  0  0  0  0
    0.8425   -0.7905    0.7811 H   0  0  0  0  0  0  0  0  0  0  0  0
    0.7993   -0.3404   -1.3233 C   0  0  0  0  0  0  0  0  0  0  0  0
    0.0602   -0.0003   -2.0508 H   0  0  0  0  0  0  0  0  0  0  0  0
    1.6435    0.3518   -1.3578 H   0  0  0  0  0  0  0  0  0  0  0  0
    1.2708   -1.7368   -1.7581 C   0  0  0  0  0  0  0  0  0  0  0  0
    1.6382   -2.5470   -0.8747 O   0  5  0  0  0  0  0  0  0  0  0  0
    1.2777   -1.9769   -2.9846 O   0  0  0  0  0  0  0  0  0  0  0  0
   -0.0374    1.1645    0.5781 C   0  0  0  0  0  0  0  0  0  0  0  0
    0.9307    1.8541    0.9197 O   0  0  0  0  0  0  0  0  0  0  0  0
   -1.2851    1.6433    0.6042 N   0  0  0  0  0  0  0  0  0  0  0  0
   -2.0236    0.9712    0.3874 H   0  0  0  0  0  0  0  0  0  0  0  0
   -1.6648    2.9786    1.0531 C   0  0  0  0  0  0  0  0  0  0  0  0
   -0.9811    3.7167    0.6317 H   0  0  0  0  0  0  0  0  0  0  0  0
   -2.6830    3.1965    0.7321 H   0  0  0  0  0  0  0  0  0  0  0  0
   -1.6098    3.0210    2.1411 H   0  0  0  0  0  0  0  0  0  0  0  0
  5  6  2  0  0  0  0
  5  7  1  0  0  0  0
  2  3  1  0  0  0  0
  2  4  1  0  0  0  0
  2  5  1  0  0  0  0
  1  2  1  0  0  0  0
 17 18  2  0  0  0  0
 17 19  1  0  0  0  0
 14 15  1  0  0  0  0
 14 16  2  0  0  0  0
 11 12  1  0  0  0  0
 11 13  1  0  0  0  0
 11 14  1  0  0  0  0
  9 10  1  0  0  0  0
  9 11  1  0  0  0  0
  9 17  1  0  0  0  0
  7  8  1  0  0  0  0
  7  9  1  0  0  0  0
 21 22  1  0  0  0  0
 21 23  1  0  0  0  0
 21 24  1  0  0  0  0
 19 20  1  0  0  0  0
 19 21  1  0  0  0  0
M  CHG  1  15  -1
M  END
$$$$
default_name
  -OEChem-01062215323D

 24 23  0     1  0  0  0  0  0999 V2000
   -2.8347   -3.7166    0.8034 H   0  0  0  0  0  0  0  0  0  0  0  0
   -2.7728   -2.7096    0.3954 C   0  0  0  0  0  0  0  0  0  0  0  0
   -3.4267   -2.0426    0.9524 H   0  0  0  0  0  0  0  0  0  0  0  0
   -3.0538   -2.7186   -0.6556 H   0  0  0  0  0  0  0  0  0  0  0  0
   -1.3498   -2.2206    0.5184 C   0  0  0  0  0  0  0  0  0  0  0  0
   -0.4997   -2.9426    1.0194 O   0  0  0  0  0  0  0  0  0  0  0  0
   -1.1198   -0.9926    0.0674 N   0  0  0  0  0  0  0  0  0  0  0  0
   -1.8978   -0.4486   -0.2716 H   0  0  0  0  0  0  0  0  0  0  0  0
    0.1693   -0.2866    0.0854 C   0  0  1  0  0  0  0  0  0  0  0  0
    0.8425   -0.7905    0.7811 H   0  0  0  0  0  0  0  0  0  0  0  0
    0.7993   -0.3404   -1.3233 C   0  0  0  0  0  0  0  0  0  0  0  0
    0.0602   -0.0003   -2.0508 H   0  0  0  0  0  0  0  0  0  0  0  0
    1.6435    0.3518   -1.3578 H   0  0  0  0  0  0  0  0  0  0  0  0
    1.2708   -1.7368   -1.7581 C   0  0  0  0  0  0  0  0  0  0  0  0
    1.6382   -2.5470   -0.8747 O   0  5  0  0  0  0  0  0  0  0  0  0
    1.2777   -1.9769   -2.9846 O   0  0  0  0  0  0  0  0  0  0  0  0
   -0.0374    1.1645    0.5781 C   0  0  0  0  0  0  0  0  0  0  0  0
    0.9210    1.9423    0.6559 O   0  0  0  0  0  0  0  0  0  0  0  0
   -1.2786    1.5449    0.8966 N   0  0  0  0  0  0  0  0  0  0  0  0
   -1.9864    0.8082    0.8832 H   0  0  0  0  0  0  0  0  0  0  0  0
   -1.6530    2.8652    1.3920 C   0  0  0  0  0  0  0  0  0  0  0  0
   -1.1580    3.6349    0.7984 H   0  0  0  0  0  0  0  0  0  0  0  0
   -2.7335    2.9883    1.3242 H   0  0  0  0  0  0  0  0  0  0  0  0
   -1.3409    2.9605    2.4322 H   0  0  0  0  0  0  0  0  0  0  0  0
  5  6  2  0  0  0  0
  5  7  1  0  0  0  0
  2  3  1  0  0  0  0
  2  4  1  0  0  0  0
  2  5  1  0  0  0  0
  1  2  1  0  0  0  0
 17 18  2  0  0  0  0
 17 19  1  0  0  0  0
 14 15  1  0  0  0  0
 14 16  2  0  0  0  0
 11 12  1  0  0  0  0
 11 13  1  0  0  0  0
 11 14  1  0  0  0  0
  9 10  1  0  0  0  0
  9 11  1  0  0  0  0
  9 17  1  0  0  0  0
  7  8  1  0  0  0  0
  7  9  1  0  0  0  0
 21 22  1  0  0  0  0
 21 23  1  0  0  0  0
 21 24  1  0  0  0  0
 19 20  1  0  0  0  0
 19 21  1  0  0  0  0
M  CHG  1  15  -1
M  END
$$$$
default_name
  -OEChem-01062215323D

 24 23  0     1  0  0  0  0  0999 V2000
   -2.8347   -3.7166    0.8034 H   0  0  0  0  0  0  0  0  0  0  0  0
   -2.7728   -2.7096    0.3954 C   0  0  0  0  0  0  0  0  0  0  0  0
   -3.4267   -2.0426    0.9524 H   0  0  0  0  0  0  0  0  0  0  0  0
   -3.0538   -2.7186   -0.6556 H   0  0  0  0  0  0  0  0  0  0  0  0
   -1.3498   -2.2206    0.5184 C   0  0  0  0  0  0  0  0  0  0  0  0
   -0.4997   -2.9426    1.0194 O   0  0  0  0  0  0  0  0  0  0  0  0
   -1.1198   -0.9926    0.0674 N   0  0  0  0  0  0  0  0  0  0  0  0
   -1.8978   -0.4486   -0.2716 H   0  0  0  0  0  0  0  0  0  0  0  0
    0.1693   -0.2866    0.0854 C   0  0  1  0  0  0  0  0  0  0  0  0
    0.8425   -0.7905    0.7811 H   0  0  0  0  0  0  0  0  0  0  0  0
    0.7993   -0.3404   -1.3233 C   0  0  0  0  0  0  0  0  0  0  0  0
    0.0602   -0.0003   -2.0508 H   0  0  0  0  0  0  0  0  0  0  0  0
    1.6435    0.3518   -1.3578 H   0  0  0  0  0  0  0  0  0  0  0  0
    1.2708   -1.7368   -1.7581 C   0  0  0  0  0  0  0  0  0  0  0  0
    1.6382   -2.5470   -0.8747 O   0  5  0  0  0  0  0  0  0  0  0  0
    1.2777   -1.9769   -2.9846 O   0  0  0  0  0  0  0  0  0  0  0  0
   -0.0374    1.1645    0.5781 C   0  0  0  0  0  0  0  0  0  0  0  0
    0.8403    2.0175    0.4004 O   0  0  0  0  0  0  0  0  0  0  0  0
   -1.1931    1.4606    1.1809 N   0  0  0  0  0  0  0  0  0  0  0  0
   -1.8166    0.6709    1.3588 H   0  0  0  0  0  0  0  0  0  0  0  0
   -1.5499    2.7684    1.7203 C   0  0  0  0  0  0  0  0  0  0  0  0
   -1.2815    3.5471    1.0051 H   0  0  0  0  0  0  0  0  0  0  0  0
   -2.6214    2.8034    1.9156 H   0  0  0  0  0  0  0  0  0  0  0  0
   -1.0054    2.9343    2.6501 H   0  0  0  0  0  0  0  0  0  0  0  0
  5  6  2  0  0  0  0
  5  7  1  0  0  0  0
  2  3  1  0  0  0  0
  2  4  1  0  0  0  0
  2  5  1  0  0  0  0
  1  2  1  0  0  0  0
 17 18  2  0  0  0  0
 17 19  1  0  0  0  0
 14 15  1  0  0  0  0
 14 16  2  0  0  0  0
 11 12  1  0  0  0  0
 11 13  1  0  0  0  0
 11 14  1  0  0  0  0
  9 10  1  0  0  0  0
  9 11  1  0  0  0  0
  9 17  1  0  0  0  0
  7  8  1  0  0  0  0
  7  9  1  0  0  0  0
 21 22  1  0  0  0  0
 21 23  1  0  0  0  0
 21 24  1  0  0  0  0
 19 20  1  0  0  0  0
 19 21  1  0  0  0  0
M  CHG  1  15  -1
M  END
$$$$
default_name
  -OEChem-01062215323D

 24 23  0     1  0  0  0  0  0999 V2000
   -2.8347   -3.7166    0.8034 H   0  0  0  0  0  0  0  0  0  0  0  0
   -2.7728   -2.7096    0.3954 C   0  0  0  0  0  0  0  0  0  0  0  0
   -3.4267   -2.0426    0.9524 H   0  0  0  0  0  0  0  0  0  0  0  0
   -3.0538   -2.7186   -0.6556 H   0  0  0  0  0  0  0  0  0  0  0  0
   -1.3498   -2.2206    0.5184 C   0  0  0  0  0  0  0  0  0  0  0  0
   -0.4997   -2.9426    1.0194 O   0  0  0  0  0  0  0  0  0  0  0  0
   -1.1198   -0.9926    0.0674 N   0  0  0  0  0  0  0  0  0  0  0  0
   -1.8978   -0.4486   -0.2716 H   0  0  0  0  0  0  0  0  0  0  0  0
    0.1693   -0.2866    0.0854 C   0  0  1  0  0  0  0  0  0  0  0  0
    0.8425   -0.7905    0.7811 H   0  0  0  0  0  0  0  0  0  0  0  0
    0.7993   -0.3404   -1.3233 C   0  0  0  0  0  0  0  0  0  0  0  0
    0.0602   -0.0003   -2.0508 H   0  0  0  0  0  0  0  0  0  0  0  0
    1.6435    0.3518   -1.3578 H   0  0  0  0  0  0  0  0  0  0  0  0
    1.2708   -1.7368   -1.7581 C   0  0  0  0  0  0  0  0  0  0  0  0
    1.6382   -2.5470   -0.8747 O   0  5  0  0  0  0  0  0  0  0  0  0
    1.2777   -1.9769   -2.9846 O   0  0  0  0  0  0  0  0  0  0  0  0
   -0.0374    1.1645    0.5781 C   0  0  0  0  0  0  0  0  0  0  0  0
    0.6940    2.0747    0.1706 O   0  0  0  0  0  0  0  0  0  0  0  0
   -1.0346    1.3960    1.4376 N   0  0  0  0  0  0  0  0  0  0  0  0
   -1.5258    0.5688    1.7817 H   0  0  0  0  0  0  0  0  0  0  0  0
   -1.3626    2.6948    2.0158 C   0  0  0  0  0  0  0  0  0  0  0  0
   -1.3435    3.4593    1.2379 H   0  0  0  0  0  0  0  0  0  0  0  0
   -2.3541    2.6546    2.4660 H   0  0  0  0  0  0  0  0  0  0  0  0
   -0.6263    2.9442    2.7800 H   0  0  0  0  0  0  0  0  0  0  0  0
  5  6  2  0  0  0  0
  5  7  1  0  0  0  0
  2  3  1  0  0  0  0
  2  4  1  0  0  0  0
  2  5  1  0  0  0  0
  1  2  1  0  0  0  0
 17 18  2  0  0  0  0
 17 19  1  0  0  0  0
 14 15  1  0  0  0  0
 14 16  2  0  0  0  0
 11 12  1  0  0  0  0
 11 13  1  0  0  0  0
 11 14  1  0  0  0  0
  9 10  1  0  0  0  0
  9 11  1  0  0  0  0
  9 17  1  0  0  0  0
  7  8  1  0  0  0  0
  7  9  1  0  0  0  0
 21 22  1  0  0  0  0
 21 23  1  0  0  0  0
 21 24  1  0  0  0  0
 19 20  1  0  0  0  0
 19 21  1  0  0  0  0
M  CHG  1  15  -1
M  END
$$$$
default_name
  -OEChem-01062215323D

 24 23  0     1  0  0  0  0  0999 V2000
   -2.8347   -3.7166    0.8034 H   0  0  0  0  0  0  0  0  0  0  0  0
   -2.7728   -2.7096    0.3954 C   0  0  0  0  0  0  0  0  0  0  0  0
   -3.4267   -2.0426    0.9524 H   0  0  0  0  0  0  0  0  0  0  0  0
   -3.0538   -2.7186   -0.6556 H   0  0  0  0  0  0  0  0  0  0  0  0
   -1.3498   -2.2206    0.5184 C   0  0  0  0  0  0  0  0  0  0  0  0
   -0.4997   -2.9426    1.0194 O   0  0  0  0  0  0  0  0  0  0  0  0
   -1.1198   -0.9926    0.0674 N   0  0  0  0  0  0  0  0  0  0  0  0
   -1.8978   -0.4486   -0.2716 H   0  0  0  0  0  0  0  0  0  0  0  0
    0.1693   -0.2866    0.0854 C   0  0  1  0  0  0  0  0  0  0  0  0
    0.8425   -0.7905    0.7811 H   0  0  0  0  0  0  0  0  0  0  0  0
    0.7993   -0.3404   -1.3233 C   0  0  0  0  0  0  0  0  0  0  0  0
    0.0602   -0.0003   -2.0508 H   0  0  0  0  0  0  0  0  0  0  0  0
    1.6435    0.3518   -1.3578 H   0  0  0  0  0  0  0  0  0  0  0  0
    1.2708   -1.7368   -1.7581 C   0  0  0  0  0  0  0  0  0  0  0  0
    1.6382   -2.5470   -0.8747 O   0  5  0  0  0  0  0  0  0  0  0  0
    1.2777   -1.9769   -2.9846 O   0  0  0  0  0  0  0  0  0  0  0  0
   -0.0374    1.1645    0.5781 C   0  0  0  0  0  0  0  0  0  0  0  0
    0.4922    2.1100   -0.0179 O   0  0  0  0  0  0  0  0  0  0  0  0
   -0.8138    1.3556    1.6493 N   0  0  0  0  0  0  0  0  0  0  0  0
   -1.1337    0.5087    2.1230 H   0  0  0  0  0  0  0  0  0  0  0  0
   -1.1039    2.6493    2.2582 C   0  0  0  0  0  0  0  0  0  0  0  0
   -1.3395    3.3773    1.4809 H   0  0  0  0  0  0  0  0  0  0  0  0
   -1.9500    2.5519    2.9379 H   0  0  0  0  0  0  0  0  0  0  0  0
   -0.2293    2.9895    2.8130 H   0  0  0  0  0  0  0  0  0  0  0  0
  5  6  2  0  0  0  0
  5  7  1  0  0  0  0
  2  3  1  0  0  0  0
  2  4  1  0  0  0  0
  2  5  1  0  0  0  0
  1  2  1  0  0  0  0
 17 18  2  0  0  0  0
 17 19  1  0  0  0  0
 14 15  1  0  0  0  0
 14 16  2  0  0  0  0
 11 12  1  0  0  0  0
 11 13  1  0  0  0  0
 11 14  1  0  0  0  0
  9 10  1  0  0  0  0
  9 11  1  0  0  0  0
  9 17  1  0  0  0  0
  7  8  1  0  0  0  0
  7  9  1  0  0  0  0
 21 22  1  0  0  0  0
 21 23  1  0  0  0  0
 21 24  1  0  0  0  0
 19 20  1  0  0  0  0
 19 21  1  0  0  0  0
M  CHG  1  15  -1
M  END
$$$$
default_name
  -OEChem-01062215323D

 24 23  0     1  0  0  0  0  0999 V2000
   -2.8347   -3.7166    0.8034 H   0  0  0  0  0  0  0  0  0  0  0  0
   -2.7728   -2.7096    0.3954 C   0  0  0  0  0  0  0  0  0  0  0  0
   -3.4267   -2.0426    0.9524 H   0  0  0  0  0  0  0  0  0  0  0  0
   -3.0538   -2.7186   -0.6556 H   0  0  0  0  0  0  0  0  0  0  0  0
   -1.3498   -2.2206    0.5184 C   0  0  0  0  0  0  0  0  0  0  0  0
   -0.4997   -2.9426    1.0194 O   0  0  0  0  0  0  0  0  0  0  0  0
   -1.1198   -0.9926    0.0674 N   0  0  0  0  0  0  0  0  0  0  0  0
   -1.8978   -0.4486   -0.2716 H   0  0  0  0  0  0  0  0  0  0  0  0
    0.1693   -0.2866    0.0854 C   0  0  1  0  0  0  0  0  0  0  0  0
    0.8425   -0.7905    0.7811 H   0  0  0  0  0  0  0  0  0  0  0  0
    0.7993   -0.3404   -1.3233 C   0  0  0  0  0  0  0  0  0  0  0  0
    0.0602   -0.0003   -2.0508 H   0  0  0  0  0  0  0  0  0  0  0  0
    1.6435    0.3518   -1.3578 H   0  0  0  0  0  0  0  0  0  0  0  0
    1.2708   -1.7368   -1.7581 C   0  0  0  0  0  0  0  0  0  0  0  0
    1.6382   -2.5470   -0.8747 O   0  5  0  0  0  0  0  0  0  0  0  0
    1.2777   -1.9769   -2.9846 O   0  0  0  0  0  0  0  0  0  0  0  0
   -0.0374    1.1645    0.5781 C   0  0  0  0  0  0  0  0  0  0  0  0
    0.2486    2.1208   -0.1521 O   0  0  0  0  0  0  0  0  0  0  0  0
   -0.5458    1.3421    1.8015 N   0  0  0  0  0  0  0  0  0  0  0  0
   -0.6672    0.4948    2.3596 H   0  0  0  0  0  0  0  0  0  0  0  0
   -0.7914    2.6351    2.4311 C   0  0  0  0  0  0  0  0  0  0  0  0
   -1.2699    3.3070    1.7174 H   0  0  0  0  0  0  0  0  0  0  0  0
   -1.4366    2.5024    3.2991 H   0  0  0  0  0  0  0  0  0  0  0  0
    0.1584    3.0671    2.7470 H   0  0  0  0  0  0  0  0  0  0  0  0
  5  6  2  0  0  0  0
  5  7  1  0  0  0  0
  2  3  1  0  0  0  0
  2  4  1  0  0  0  0
  2  5  1  0  0  0  0
  1  2  1  0  0  0  0
 17 18  2  0  0  0  0
 17 19  1  0  0  0  0
 14 15  1  0  0  0  0
 14 16  2  0  0  0  0
 11 12  1  0  0  0  0
 11 13  1  0  0  0  0
 11 14  1  0  0  0  0
  9 10  1  0  0  0  0
  9 11  1  0  0  0  0
  9 17  1  0  0  0  0
  7  8  1  0  0  0  0
  7  9  1  0  0  0  0
 21 22  1  0  0  0  0
 21 23  1  0  0  0  0
 21 24  1  0  0  0  0
 19 20  1  0  0  0  0
 19 21  1  0  0  0  0
M  CHG  1  15  -1
M  END
$$$$
default_name
  -OEChem-01062215323D

 24 23  0     1  0  0  0  0  0999 V2000
   -2.8347   -3.7166    0.8034 H   0  0  0  0  0  0  0  0  0  0  0  0
   -2.7728   -2.7096    0.3954 C   0  0  0  0  0  0  0  0  0  0  0  0
   -3.4267   -2.0426    0.9524 H   0  0  0  0  0  0  0  0  0  0  0  0
   -3.0538   -2.7186   -0.6556 H   0  0  0  0  0  0  0  0  0  0  0  0
   -1.3498   -2.2206    0.5184 C   0  0  0  0  0  0  0  0  0  0  0  0
   -0.4997   -2.9426    1.0194 O   0  0  0  0  0  0  0  0  0  0  0  0
   -1.1198   -0.9926    0.0674 N   0  0  0  0  0  0  0  0  0  0  0  0
   -1.8978   -0.4486   -0.2716 H   0  0  0  0  0  0  0  0  0  0  0  0
    0.1693   -0.2866    0.0854 C   0  0  1  0  0  0  0  0  0  0  0  0
    0.8425   -0.7905    0.7811 H   0  0  0  0  0  0  0  0  0  0  0  0
    0.7993   -0.3404   -1.3233 C   0  0  0  0  0  0  0  0  0  0  0  0
    0.0602   -0.0003   -2.0508 H   0  0  0  0  0  0  0  0  0  0  0  0
    1.6435    0.3518   -1.3578 H   0  0  0  0  0  0  0  0  0  0  0  0
    1.2708   -1.7368   -1.7581 C   0  0  0  0  0  0  0  0  0  0  0  0
    1.6382   -2.5470   -0.8747 O   0  5  0  0  0  0  0  0  0  0  0  0
    1.2777   -1.9769   -2.9846 O   0  0  0  0  0  0  0  0  0  0  0  0
   -0.0374    1.1645    0.5781 C   0  0  0  0  0  0  0  0  0  0  0  0
   -0.0202    2.1066   -0.2229 O   0  0  0  0  0  0  0  0  0  0  0  0
   -0.2488    1.3564    1.8839 N   0  0  0  0  0  0  0  0  0  0  0  0
   -0.1579    0.5281    2.4753 H   0  0  0  0  0  0  0  0  0  0  0  0
   -0.4463    2.6531    2.5228 C   0  0  0  0  0  0  0  0  0  0  0  0
   -1.1394    3.2529    1.9314 H   0  0  0  0  0  0  0  0  0  0  0  0
   -0.8489    2.5094    3.5251 H   0  0  0  0  0  0  0  0  0  0  0  0
    0.5105    3.1718    2.5863 H   0  0  0  0  0  0  0  0  0  0  0  0
  5  6  2  0  0  0  0
  5  7  1  0  0  0  0
  2  3  1  0  0  0  0
  2  4  1  0  0  0  0
  2  5  1  0  0  0  0
  1  2  1  0  0  0  0
 17 18  2  0  0  0  0
 17 19  1  0  0  0  0
 14 15  1  0  0  0  0
 14 16  2  0  0  0  0
 11 12  1  0  0  0  0
 11 13  1  0  0  0  0
 11 14  1  0  0  0  0
  9 10  1  0  0  0  0
  9 11  1  0  0  0  0
  9 17  1  0  0  0  0
  7  8  1  0  0  0  0
  7  9  1  0  0  0  0
 21 22  1  0  0  0  0
 21 23  1  0  0  0  0
 21 24  1  0  0  0  0
 19 20  1  0  0  0  0
 19 21  1  0  0  0  0
M  CHG  1  15  -1
M  END
$$$$
default_name
  -OEChem-01062215323D

 24 23  0     1  0  0  0  0  0999 V2000
   -2.8347   -3.7166    0.8034 H   0  0  0  0  0  0  0  0  0  0  0  0
   -2.7728   -2.7096    0.3954 C   0  0  0  0  0  0  0  0  0  0  0  0
   -3.4267   -2.0426    0.9524 H   0  0  0  0  0  0  0  0  0  0  0  0
   -3.0538   -2.7186   -0.6556 H   0  0  0  0  0  0  0  0  0  0  0  0
   -1.3498   -2.2206    0.5184 C   0  0  0  0  0  0  0  0  0  0  0  0
   -0.4997   -2.9426    1.0194 O   0  0  0  0  0  0  0  0  0  0  0  0
   -1.1198   -0.9926    0.0674 N   0  0  0  0  0  0  0  0  0  0  0  0
   -1.8978   -0.4486   -0.2716 H   0  0  0  0  0  0  0  0  0  0  0  0
    0.1693   -0.2866    0.0854 C   0  0  1  0  0  0  0  0  0  0  0  0
    0.8425   -0.7905    0.7811 H   0  0  0  0  0  0  0  0  0  0  0  0
    0.7993   -0.3404   -1.3233 C   0  0  0  0  0  0  0  0  0  0  0  0
    0.0602   -0.0003   -2.0508 H   0  0  0  0  0  0  0  0  0  0  0  0
    1.6435    0.3518   -1.3578 H   0  0  0  0  0  0  0  0  0  0  0  0
    1.2708   -1.7368   -1.7581 C   0  0  0  0  0  0  0  0  0  0  0  0
    1.6382   -2.5470   -0.8747 O   0  5  0  0  0  0  0  0  0  0  0  0
    1.2777   -1.9769   -2.9846 O   0  0  0  0  0  0  0  0  0  0  0  0
   -0.0374    1.1645    0.5781 C   0  0  0  0  0  0  0  0  0  0  0  0
   -0.2959    2.0683   -0.2256 O   0  0  0  0  0  0  0  0  0  0  0  0
    0.0569    1.3975    1.8909 N   0  0  0  0  0  0  0  0  0  0  0  0
    0.3594    0.6062    2.4622 H   0  0  0  0  0  0  0  0  0  0  0  0
   -0.0922    2.7022    2.5268 C   0  0  0  0  0  0  0  0  0  0  0  0
   -0.9569    3.2188    2.1082 H   0  0  0  0  0  0  0  0  0  0  0  0
   -0.2269    2.5724    3.6003 H   0  0  0  0  0  0  0  0  0  0  0  0
    0.8029    3.2964    2.3420 H   0  0  0  0  0  0  0  0  0  0  0  0
  5  6  2  0  0  0  0
  5  7  1  0  0  0  0
  2  3  1  0  0  0  0
  2  4  1  0  0  0  0
  2  5  1  0  0  0  0
  1  2  1  0  0  0  0
 17 18  2  0  0  0  0
 17 19  1  0  0  0  0
 14 15  1  0  0  0  0
 14 16  2  0  0  0  0
 11 12  1  0  0  0  0
 11 13  1  0  0  0  0
 11 14  1  0  0  0  0
  9 10  1  0  0  0  0
  9 11  1  0  0  0  0
  9 17  1  0  0  0  0
  7  8  1  0  0  0  0
  7  9  1  0  0  0  0
 21 22  1  0  0  0  0
 21 23  1  0  0  0  0
 21 24  1  0  0  0  0
 19 20  1  0  0  0  0
 19 21  1  0  0  0  0
M  CHG  1  15  -1
M  END
$$$$
default_name
  -OEChem-01062215323D

 24 23  0     1  0  0  0  0  0999 V2000
   -2.8347   -3.7166    0.8034 H   0  0  0  0  0  0  0  0  0  0  0  0
   -2.7728   -2.7096    0.3954 C   0  0  0  0  0  0  0  0  0  0  0  0
   -3.4267   -2.0426    0.9524 H   0  0  0  0  0  0  0  0  0  0  0  0
   -3.0538   -2.7186   -0.6556 H   0  0  0  0  0  0  0  0  0  0  0  0
   -1.3498   -2.2206    0.5184 C   0  0  0  0  0  0  0  0  0  0  0  0
   -0.4997   -2.9426    1.0194 O   0  0  0  0  0  0  0  0  0  0  0  0
   -1.1198   -0.9926    0.0674 N   0  0  0  0  0  0  0  0  0  0  0  0
   -1.8978   -0.4486   -0.2716 H   0  0  0  0  0  0  0  0  0  0  0  0
    0.1693   -0.2866    0.0854 C   0  0  1  0  0  0  0  0  0  0  0  0
    0.8425   -0.7905    0.7811 H   0  0  0  0  0  0  0  0  0  0  0  0
    0.7993   -0.3404   -1.3233 C   0  0  0  0  0  0  0  0  0  0  0  0
    0.0602   -0.0003   -2.0508 H   0  0  0  0  0  0  0  0  0  0  0  0
    1.6435    0.3518   -1.3578 H   0  0  0  0  0  0  0  0  0  0  0  0
    1.2708   -1.7368   -1.7581 C   0  0  0  0  0  0  0  0  0  0  0  0
    1.6382   -2.5470   -0.8747 O   0  5  0  0  0  0  0  0  0  0  0  0
    1.2777   -1.9769   -2.9846 O   0  0  0  0  0  0  0  0  0  0  0  0
   -0.0374    1.1645    0.5781 C   0  0  0  0  0  0  0  0  0  0  0  0
   -0.5597    2.0084   -0.1599 O   0  0  0  0  0  0  0  0  0  0  0  0
    0.3505    1.4627    1.8220 N   0  0  0  0  0  0  0  0  0  0  0  0
    0.8494    0.7238    2.3212 H   0  0  0  0  0  0  0  0  0  0  0  0
    0.2467    2.7789    2.4430 C   0  0  0  0  0  0  0  0  0  0  0  0
   -0.7349    3.2071    2.2359 H   0  0  0  0  0  0  0  0  0  0  0  0
    0.3870    2.6872    3.5197 H   0  0  0  0  0  0  0  0  0  0  0  0
    1.0158    3.4324    2.0307 H   0  0  0  0  0  0  0  0  0  0  0  0
  5  6  2  0  0  0  0
  5  7  1  0  0  0  0
  2  3  1  0  0  0  0
  2  4  1  0  0  0  0
  2  5  1  0  0  0  0
  1  2  1  0  0  0  0
 17 18  2  0  0  0  0
 17 19  1  0  0  0  0
 14 15  1  0  0  0  0
 14 16  2  0  0  0  0
 11 12  1  0  0  0  0
 11 13  1  0  0  0  0
 11 14  1  0  0  0  0
  9 10  1  0  0  0  0
  9 11  1  0  0  0  0
  9 17  1  0  0  0  0
  7  8  1  0  0  0  0
  7  9  1  0  0  0  0
 21 22  1  0  0  0  0
 21 23  1  0  0  0  0
 21 24  1  0  0  0  0
 19 20  1  0  0  0  0
 19 21  1  0  0  0  0
M  CHG  1  15  -1
M  END
$$$$
default_name
  -OEChem-01062215323D

 24 23  0     1  0  0  0  0  0999 V2000
   -2.8347   -3.7166    0.8034 H   0  0  0  0  0  0  0  0  0  0  0  0
   -2.7728   -2.7096    0.3954 C   0  0  0  0  0  0  0  0  0  0  0  0
   -3.4267   -2.0426    0.9524 H   0  0  0  0  0  0  0  0  0  0  0  0
   -3.0538   -2.7186   -0.6556 H   0  0  0  0  0  0  0  0  0  0  0  0
   -1.3498   -2.2206    0.5184 C   0  0  0  0  0  0  0  0  0  0  0  0
   -0.4997   -2.9426    1.0194 O   0  0  0  0  0  0  0  0  0  0  0  0
   -1.1198   -0.9926    0.0674 N   0  0  0  0  0  0  0  0  0  0  0  0
   -1.8978   -0.4486   -0.2716 H   0  0  0  0  0  0  0  0  0  0  0  0
    0.1693   -0.2866    0.0854 C   0  0  1  0  0  0  0  0  0  0  0  0
    0.8425   -0.7905    0.7811 H   0  0  0  0  0  0  0  0  0  0  0  0
    0.7993   -0.3404   -1.3233 C   0  0  0  0  0  0  0  0  0  0  0  0
    0.0602   -0.0003   -2.0508 H   0  0  0  0  0  0  0  0  0  0  0  0
    1.6435    0.3518   -1.3578 H   0  0  0  0  0  0  0  0  0  0  0  0
    1.2708   -1.7368   -1.7581 C   0  0  0  0  0  0  0  0  0  0  0  0
    1.6382   -2.5470   -0.8747 O   0  5  0  0  0  0  0  0  0  0  0  0
    1.2777   -1.9769   -2.9846 O   0  0  0  0  0  0  0  0  0  0  0  0
   -0.0374    1.1645    0.5781 C   0  0  0  0  0  0  0  0  0  0  0  0
   -0.7935    1.9311   -0.0302 O   0  0  0  0  0  0  0  0  0  0  0  0
    0.6120    1.5475    1.6819 N   0  0  0  0  0  0  0  0  0  0  0  0
    1.2788    0.8730    2.0619 H   0  0  0  0  0  0  0  0  0  0  0  0
    0.5475    2.8780    2.2771 C   0  0  0  0  0  0  0  0  0  0  0  0
   -0.4884    3.2185    2.3058 H   0  0  0  0  0  0  0  0  0  0  0  0
    0.9510    2.8459    3.2888 H   0  0  0  0  0  0  0  0  0  0  0  0
    1.1345    3.5705    1.6736 H   0  0  0  0  0  0  0  0  0  0  0  0
  5  6  2  0  0  0  0
  5  7  1  0  0  0  0
  2  3  1  0  0  0  0
  2  4  1  0  0  0  0
  2  5  1  0  0  0  0
  1  2  1  0  0  0  0
 17 18  2  0  0  0  0
 17 19  1  0  0  0  0
 14 15  1  0  0  0  0
 14 16  2  0  0  0  0
 11 12  1  0  0  0  0
 11 13  1  0  0  0  0
 11 14  1  0  0  0  0
  9 10  1  0  0  0  0
  9 11  1  0  0  0  0
  9 17  1  0  0  0  0
  7  8  1  0  0  0  0
  7  9  1  0  0  0  0
 21 22  1  0  0  0  0
 21 23  1  0  0  0  0
 21 24  1  0  0  0  0
 19 20  1  0  0  0  0
 19 21  1  0  0  0  0
M  CHG  1  15  -1
M  END
$$$$
default_name
  -OEChem-01062215323D

 24 23  0     1  0  0  0  0  0999 V2000
   -2.8347   -3.7166    0.8034 H   0  0  0  0  0  0  0  0  0  0  0  0
   -2.7728   -2.7096    0.3954 C   0  0  0  0  0  0  0  0  0  0  0  0
   -3.4267   -2.0426    0.9524 H   0  0  0  0  0  0  0  0  0  0  0  0
   -3.0538   -2.7186   -0.6556 H   0  0  0  0  0  0  0  0  0  0  0  0
   -1.3498   -2.2206    0.5184 C   0  0  0  0  0  0  0  0  0  0  0  0
   -0.4997   -2.9426    1.0194 O   0  0  0  0  0  0  0  0  0  0  0  0
   -1.1198   -0.9926    0.0674 N   0  0  0  0  0  0  0  0  0  0  0  0
   -1.8978   -0.4486   -0.2716 H   0  0  0  0  0  0  0  0  0  0  0  0
    0.1693   -0.2866    0.0854 C   0  0  1  0  0  0  0  0  0  0  0  0
    0.8425   -0.7905    0.7811 H   0  0  0  0  0  0  0  0  0  0  0  0
    0.7993   -0.3404   -1.3233 C   0  0  0  0  0  0  0  0  0  0  0  0
    0.0602   -0.0003   -2.0508 H   0  0  0  0  0  0  0  0  0  0  0  0
    1.6435    0.3518   -1.3578 H   0  0  0  0  0  0  0  0  0  0  0  0
    1.2708   -1.7368   -1.7581 C   0  0  0  0  0  0  0  0  0  0  0  0
    1.6382   -2.5470   -0.8747 O   0  5  0  0  0  0  0  0  0  0  0  0
    1.2777   -1.9769   -2.9846 O   0  0  0  0  0  0  0  0  0  0  0  0
   -0.0374    1.1645    0.5781 C   0  0  0  0  0  0  0  0  0  0  0  0
   -0.9816    1.8416    0.1544 O   0  0  0  0  0  0  0  0  0  0  0  0
    0.8235    1.6462    1.4801 N   0  0  0  0  0  0  0  0  0  0  0  0
    1.6183    1.0435    1.7020 H   0  0  0  0  0  0  0  0  0  0  0  0
    0.7895    2.9929    2.0404 C   0  0  0  0  0  0  0  0  0  0  0  0
   -0.2344    3.2522    2.3130 H   0  0  0  0  0  0  0  0  0  0  0  0
    1.4265    3.0377    2.9233 H   0  0  0  0  0  0  0  0  0  0  0  0
    1.1511    3.7014    1.2950 H   0  0  0  0  0  0  0  0  0  0  0  0
  5  6  2  0  0  0  0
  5  7  1  0  0  0  0
  2  3  1  0  0  0  0
  2  4  1  0  0  0  0
  2  5  1  0  0  0  0
  1  2  1  0  0  0  0
 17 18  2  0  0  0  0
 17 19  1  0  0  0  0
 14 15  1  0  0  0  0
 14 16  2  0  0  0  0
 11 12  1  0  0  0  0
 11 13  1  0  0  0  0
 11 14  1  0  0  0  0
  9 10  1  0  0  0  0
  9 11  1  0  0  0  0
  9 17  1  0  0  0  0
  7  8  1  0  0  0  0
  7  9  1  0  0  0  0
 21 22  1  0  0  0  0
 21 23  1  0  0  0  0
 21 24  1  0  0  0  0
 19 20  1  0  0  0  0
 19 21  1  0  0  0  0
M  CHG  1  15  -1
M  END
$$$$
default_name
  -OEChem-01062215323D

 24 23  0     1  0  0  0  0  0999 V2000
   -2.8347   -3.7166    0.8034 H   0  0  0  0  0  0  0  0  0  0  0  0
   -2.7728   -2.7096    0.3954 C   0  0  0  0  0  0  0  0  0  0  0  0
   -3.4267   -2.0426    0.9524 H   0  0  0  0  0  0  0  0  0  0  0  0
   -3.0538   -2.7186   -0.6556 H   0  0  0  0  0  0  0  0  0  0  0  0
   -1.3498   -2.2206    0.5184 C   0  0  0  0  0  0  0  0  0  0  0  0
   -0.4997   -2.9426    1.0194 O   0  0  0  0  0  0  0  0  0  0  0  0
   -1.1198   -0.9926    0.0674 N   0  0  0  0  0  0  0  0  0  0  0  0
   -1.8978   -0.4486   -0.2716 H   0  0  0  0  0  0  0  0  0  0  0  0
    0.1693   -0.2866    0.0854 C   0  0  1  0  0  0  0  0  0  0  0  0
    0.8425   -0.7905    0.7811 H   0  0  0  0  0  0  0  0  0  0  0  0
    0.7993   -0.3404   -1.3233 C   0  0  0  0  0  0  0  0  0  0  0  0
    0.0602   -0.0003   -2.0508 H   0  0  0  0  0  0  0  0  0  0  0  0
    1.6435    0.3518   -1.3578 H   0  0  0  0  0  0  0  0  0  0  0  0
    1.2708   -1.7368   -1.7581 C   0  0  0  0  0  0  0  0  0  0  0  0
    1.6382   -2.5470   -0.8747 O   0  5  0  0  0  0  0  0  0  0  0  0
    1.2777   -1.9769   -2.9846 O   0  0  0  0  0  0  0  0  0  0  0  0
   -0.0374    1.1645    0.5781 C   0  0  0  0  0  0  0  0  0  0  0  0
   -1.1110    1.7461    0.3816 O   0  0  0  0  0  0  0  0  0  0  0  0
    0.9707    1.7519    1.2304 N   0  0  0  0  0  0  0  0  0  0  0  0
    1.8447    1.2238    1.2660 H   0  0  0  0  0  0  0  0  0  0  0  0
    0.9563    3.1155    1.7490 C   0  0  0  0  0  0  0  0  0  0  0  0
    0.0100    3.3060    2.2571 H   0  0  0  0  0  0  0  0  0  0  0  0
    1.7813    3.2495    2.4482 H   0  0  0  0  0  0  0  0  0  0  0  0
    1.0644    3.8161    0.9208 H   0  0  0  0  0  0  0  0  0  0  0  0
  5  6  2  0  0  0  0
  5  7  1  0  0  0  0
  2  3  1  0  0  0  0
  2  4  1  0  0  0  0
  2  5  1  0  0  0  0
  1  2  1  0  0  0  0
 17 18  2  0  0  0  0
 17 19  1  0  0  0  0
 14 15  1  0  0  0  0
 14 16  2  0  0  0  0
 11 12  1  0  0  0  0
 11 13  1  0  0  0  0
 11 14  1  0  0  0  0
  9 10  1  0  0  0  0
  9 11  1  0  0  0  0
  9 17  1  0  0  0  0
  7  8  1  0  0  0  0
  7  9  1  0  0  0  0
 21 22  1  0  0  0  0
 21 23  1  0  0  0  0
 21 24  1  0  0  0  0
 19 20  1  0  0  0  0
 19 21  1  0  0  0  0
M  CHG  1  15  -1
M  END
$$$$
default_name
  -OEChem-01062215323D

 24 23  0     1  0  0  0  0  0999 V2000
   -2.8347   -3.7166    0.8034 H   0  0  0  0  0  0  0  0  0  0  0  0
   -2.7728   -2.7096    0.3954 C   0  0  0  0  0  0  0  0  0  0  0  0
   -3.4267   -2.0426    0.9524 H   0  0  0  0  0  0  0  0  0  0  0  0
   -3.0538   -2.7186   -0.6556 H   0  0  0  0  0  0  0  0  0  0  0  0
   -1.3498   -2.2206    0.5184 C   0  0  0  0  0  0  0  0  0  0  0  0
   -0.4997   -2.9426    1.0194 O   0  0  0  0  0  0  0  0  0  0  0  0
   -1.1198   -0.9926    0.0674 N   0  0  0  0  0  0  0  0  0  0  0  0
   -1.8978   -0.4486   -0.2716 H   0  0  0  0  0  0  0  0  0  0  0  0
    0.1693   -0.2866    0.0854 C   0  0  1  0  0  0  0  0  0  0  0  0
    0.8425   -0.7905    0.7811 H   0  0  0  0  0  0  0  0  0  0  0  0
    0.7993   -0.3404   -1.3233 C   0  0  0  0  0  0  0  0  0  0  0  0
    0.0602   -0.0003   -2.0508 H   0  0  0  0  0  0  0  0  0  0  0  0
    1.6435    0.3518   -1.3578 H   0  0  0  0  0  0  0  0  0  0  0  0
    1.2708   -1.7368   -1.7581 C   0  0  0  0  0  0  0  0  0  0  0  0
    1.6382   -2.5470   -0.8747 O   0  5  0  0  0  0  0  0  0  0  0  0
    1.2777   -1.9769   -2.9846 O   0  0  0  0  0  0  0  0  0  0  0  0
   -0.0374    1.1645    0.5781 C   0  0  0  0  0  0  0  0  0  0  0  0
   -1.1730    1.6510    0.6357 O   0  0  0  0  0  0  0  0  0  0  0  0
    1.0435    1.8575    0.9498 N   0  0  0  0  0  0  0  0  0  0  0  0
    1.9427    1.4015    0.7836 H   0  0  0  0  0  0  0  0  0  0  0  0
    1.0365    3.2377    1.4228 C   0  0  0  0  0  0  0  0  0  0  0  0
    0.2280    3.3761    2.1418 H   0  0  0  0  0  0  0  0  0  0  0  0
    1.9911    3.4670    1.8957 H   0  0  0  0  0  0  0  0  0  0  0  0
    0.8802    3.9068    0.5764 H   0  0  0  0  0  0  0  0  0  0  0  0
  5  6  2  0  0  0  0
  5  7  1  0  0  0  0
  2  3  1  0  0  0  0
  2  4  1  0  0  0  0
  2  5  1  0  0  0  0
  1  2  1  0  0  0  0
 17 18  2  0  0  0  0
 17 19  1  0  0  0  0
 14 15  1  0  0  0  0
 14 16  2  0  0  0  0
 11 12  1  0  0  0  0
 11 13  1  0  0  0  0
 11 14  1  0  0  0  0
  9 10  1  0  0  0  0
  9 11  1  0  0  0  0
  9 17  1  0  0  0  0
  7  8  1  0  0  0  0
  7  9  1  0  0  0  0
 21 22  1  0  0  0  0
 21 23  1  0  0  0  0
 21 24  1  0  0  0  0
 19 20  1  0  0  0  0
 19 21  1  0  0  0  0
M  CHG  1  15  -1
M  END
$$$$
default_name
  -OEChem-01062215323D

 24 23  0     1  0  0  0  0  0999 V2000
   -2.8347   -3.7166    0.8034 H   0  0  0  0  0  0  0  0  0  0  0  0
   -2.7728   -2.7096    0.3954 C   0  0  0  0  0  0  0  0  0  0  0  0
   -3.4267   -2.0426    0.9524 H   0  0  0  0  0  0  0  0  0  0  0  0
   -3.0538   -2.7186   -0.6556 H   0  0  0  0  0  0  0  0  0  0  0  0
   -1.3498   -2.2206    0.5184 C   0  0  0  0  0  0  0  0  0  0  0  0
   -0.4997   -2.9426    1.0194 O   0  0  0  0  0  0  0  0  0  0  0  0
   -1.1198   -0.9926    0.0674 N   0  0  0  0  0  0  0  0  0  0  0  0
   -1.8978   -0.4486   -0.2716 H   0  0  0  0  0  0  0  0  0  0  0  0
    0.1693   -0.2866    0.0854 C   0  0  1  0  0  0  0  0  0  0  0  0
    0.9183   -0.9233    0.5594 H   0  0  0  0  0  0  0  0  0  0  0  0
    0.6181   -0.0084   -1.3656 C   0  0  0  0  0  0  0  0  0  0  0  0
   -0.2021    0.4748   -1.8994 H   0  0  0  0  0  0  0  0  0  0  0  0
    1.4591    0.6882   -1.3464 H   0  0  0  0  0  0  0  0  0  0  0  0
    1.0161   -1.2614   -2.1613 C   0  0  0  0  0  0  0  0  0  0  0  0
    1.4816   -2.2443   -1.5376 O   0  5  0  0  0  0  0  0  0  0  0  0
    0.8673   -1.2169   -3.4014 O   0  0  0  0  0  0  0  0  0  0  0  0
    0.0419    1.0111    0.9166 C   0  0  0  0  0  0  0  0  0  0  0  0
   -1.0305    1.3063    1.4571 O   0  0  0  0  0  0  0  0  0  0  0  0
    1.1265    1.7826    1.0398 N   0  0  0  0  0  0  0  0  0  0  0  0
    1.9377    1.5005    0.4862 H   0  0  0  0  0  0  0  0  0  0  0  0
    1.1831    3.0443    1.7703 C   0  0  0  0  0  0  0  0  0  0  0  0
    0.6805    2.9353    2.7323 H   0  0  0  0  0  0  0  0  0  0  0  0
    2.2231    3.3279    1.9300 H   0  0  0  0  0  0  0  0  0  0  0  0
    0.6803    3.8182    1.1902 H   0  0  0  0  0  0  0  0  0  0  0  0
  5  6  2  0  0  0  0
  5  7  1  0  0  0  0
  2  3  1  0  0  0  0
  2  4  1  0  0  0  0
  2  5  1  0  0  0  0
  1  2  1  0  0  0  0
 17 18  2  0  0  0  0
 17 19  1  0  0  0  0
 14 15  1  0  0  0  0
 14 16  2  0  0  0  0
 11 12  1  0  0  0  0
 11 13  1  0  0  0  0
 11 14  1  0  0  0  0
  9 10  1  0  0  0  0
  9 11  1  0  0  0  0
  9 17  1  0  0  0  0
  7  8  1  0  0  0  0
  7  9  1  0  0  0  0
 21 22  1  0  0  0  0
 21 23  1  0  0  0  0
 21 24  1  0  0  0  0
 19 20  1  0  0  0  0
 19 21  1  0  0  0  0
M  CHG  1  15  -1
M  END
$$$$
default_name
  -OEChem-01062215323D

 24 23  0     1  0  0  0  0  0999 V2000
   -2.8347   -3.7166    0.8034 H   0  0  0  0  0  0  0  0  0  0  0  0
   -2.7728   -2.7096    0.3954 C   0  0  0  0  0  0  0  0  0  0  0  0
   -3.4267   -2.0426    0.9524 H   0  0  0  0  0  0  0  0  0  0  0  0
   -3.0538   -2.7186   -0.6556 H   0  0  0  0  0  0  0  0  0  0  0  0
   -1.3498   -2.2206    0.5184 C   0  0  0  0  0  0  0  0  0  0  0  0
   -0.4997   -2.9426    1.0194 O   0  0  0  0  0  0  0  0  0  0  0  0
   -1.1198   -0.9926    0.0674 N   0  0  0  0  0  0  0  0  0  0  0  0
   -1.8978   -0.4486   -0.2716 H   0  0  0  0  0  0  0  0  0  0  0  0
    0.1693   -0.2866    0.0854 C   0  0  1  0  0  0  0  0  0  0  0  0
    0.9183   -0.9233    0.5594 H   0  0  0  0  0  0  0  0  0  0  0  0
    0.6181   -0.0084   -1.3656 C   0  0  0  0  0  0  0  0  0  0  0  0
   -0.2021    0.4748   -1.8994 H   0  0  0  0  0  0  0  0  0  0  0  0
    1.4591    0.6882   -1.3464 H   0  0  0  0  0  0  0  0  0  0  0  0
    1.0161   -1.2614   -2.1613 C   0  0  0  0  0  0  0  0  0  0  0  0
    1.4816   -2.2443   -1.5376 O   0  5  0  0  0  0  0  0  0  0  0  0
    0.8673   -1.2169   -3.4014 O   0  0  0  0  0  0  0  0  0  0  0  0
    0.0419    1.0111    0.9166 C   0  0  0  0  0  0  0  0  0  0  0  0
   -0.9194    1.1765    1.6768 O   0  0  0  0  0  0  0  0  0  0  0  0
    1.0073    1.9277    0.7950 N   0  0  0  0  0  0  0  0  0  0  0  0
    1.7115    1.7391    0.0791 H   0  0  0  0  0  0  0  0  0  0  0  0
    1.0410    3.2112    1.4879 C   0  0  0  0  0  0  0  0  0  0  0  0
    0.7783    3.0699    2.5372 H   0  0  0  0  0  0  0  0  0  0  0  0
    2.0401    3.6400    1.4146 H   0  0  0  0  0  0  0  0  0  0  0  0
    0.3206    3.8873    1.0272 H   0  0  0  0  0  0  0  0  0  0  0  0
  5  6  2  0  0  0  0
  5  7  1  0  0  0  0
  2  3  1  0  0  0  0
  2  4  1  0  0  0  0
  2  5  1  0  0  0  0
  1  2  1  0  0  0  0
 17 18  2  0  0  0  0
 17 19  1  0  0  0  0
 14 15  1  0  0  0  0
 14 16  2  0  0  0  0
 11 12  1  0  0  0  0
 11 13  1  0  0  0  0
 11 14  1  0  0  0  0
  9 10  1  0  0  0  0
  9 11  1  0  0  0  0
  9 17  1  0  0  0  0
  7  8  1  0  0  0  0
  7  9  1  0  0  0  0
 21 22  1  0  0  0  0
 21 23  1  0  0  0  0
 21 24  1  0  0  0  0
 19 20  1  0  0  0  0
 19 21  1  0  0  0  0
M  CHG  1  15  -1
M  END
$$$$
default_name
  -OEChem-01062215323D

 24 23  0     1  0  0  0  0  0999 V2000
   -2.8347   -3.7166    0.8034 H   0  0  0  0  0  0  0  0  0  0  0  0
   -2.7728   -2.7096    0.3954 C   0  0  0  0  0  0  0  0  0  0  0  0
   -3.4267   -2.0426    0.9524 H   0  0  0  0  0  0  0  0  0  0  0  0
   -3.0538   -2.7186   -0.6556 H   0  0  0  0  0  0  0  0  0  0  0  0
   -1.3498   -2.2206    0.5184 C   0  0  0  0  0  0  0  0  0  0  0  0
   -0.4997   -2.9426    1.0194 O   0  0  0  0  0  0  0  0  0  0  0  0
   -1.1198   -0.9926    0.0674 N   0  0  0  0  0  0  0  0  0  0  0  0
   -1.8978   -0.4486   -0.2716 H   0  0  0  0  0  0  0  0  0  0  0  0
    0.1693   -0.2866    0.0854 C   0  0  1  0  0  0  0  0  0  0  0  0
    0.9183   -0.9233    0.5594 H   0  0  0  0  0  0  0  0  0  0  0  0
    0.6181   -0.0084   -1.3656 C   0  0  0  0  0  0  0  0  0  0  0  0
   -0.2021    0.4748   -1.8994 H   0  0  0  0  0  0  0  0  0  0  0  0
    1.4591    0.6882   -1.3464 H   0  0  0  0  0  0  0  0  0  0  0  0
    1.0161   -1.2614   -2.1613 C   0  0  0  0  0  0  0  0  0  0  0  0
    1.4816   -2.2443   -1.5376 O   0  5  0  0  0  0  0  0  0  0  0  0
    0.8673   -1.2169   -3.4014 O   0  0  0  0  0  0  0  0  0  0  0  0
    0.0419    1.0111    0.9166 C   0  0  0  0  0  0  0  0  0  0  0  0
   -0.7463    1.0713    1.8677 O   0  0  0  0  0  0  0  0  0  0  0  0
    0.8187    2.0460    0.5813 N   0  0  0  0  0  0  0  0  0  0  0  0
    1.3714    1.9294   -0.2701 H   0  0  0  0  0  0  0  0  0  0  0  0
    0.8192    3.3466    1.2425 C   0  0  0  0  0  0  0  0  0  0  0  0
    0.8117    3.2093    2.3246 H   0  0  0  0  0  0  0  0  0  0  0  0
    1.7080    3.9051    0.9499 H   0  0  0  0  0  0  0  0  0  0  0  0
   -0.0719    3.9005    0.9465 H   0  0  0  0  0  0  0  0  0  0  0  0
  5  6  2  0  0  0  0
  5  7  1  0  0  0  0
  2  3  1  0  0  0  0
  2  4  1  0  0  0  0
  2  5  1  0  0  0  0
  1  2  1  0  0  0  0
 17 18  2  0  0  0  0
 17 19  1  0  0  0  0
 14 15  1  0  0  0  0
 14 16  2  0  0  0  0
 11 12  1  0  0  0  0
 11 13  1  0  0  0  0
 11 14  1  0  0  0  0
  9 10  1  0  0  0  0
  9 11  1  0  0  0  0
  9 17  1  0  0  0  0
  7  8  1  0  0  0  0
  7  9  1  0  0  0  0
 21 22  1  0  0  0  0
 21 23  1  0  0  0  0
 21 24  1  0  0  0  0
 19 20  1  0  0  0  0
 19 21  1  0  0  0  0
M  CHG  1  15  -1
M  END
$$$$
default_name
  -OEChem-01062215323D

 24 23  0     1  0  0  0  0  0999 V2000
   -2.8347   -3.7166    0.8034 H   0  0  0  0  0  0  0  0  0  0  0  0
   -2.7728   -2.7096    0.3954 C   0  0  0  0  0  0  0  0  0  0  0  0
   -3.4267   -2.0426    0.9524 H   0  0  0  0  0  0  0  0  0  0  0  0
   -3.0538   -2.7186   -0.6556 H   0  0  0  0  0  0  0  0  0  0  0  0
   -1.3498   -2.2206    0.5184 C   0  0  0  0  0  0  0  0  0  0  0  0
   -0.4997   -2.9426    1.0194 O   0  0  0  0  0  0  0  0  0  0  0  0
   -1.1198   -0.9926    0.0674 N   0  0  0  0  0  0  0  0  0  0  0  0
   -1.8978   -0.4486   -0.2716 H   0  0  0  0  0  0  0  0  0  0  0  0
    0.1693   -0.2866    0.0854 C   0  0  1  0  0  0  0  0  0  0  0  0
    0.9183   -0.9233    0.5594 H   0  0  0  0  0  0  0  0  0  0  0  0
    0.6181   -0.0084   -1.3656 C   0  0  0  0  0  0  0  0  0  0  0  0
   -0.2021    0.4748   -1.8994 H   0  0  0  0  0  0  0  0  0  0  0  0
    1.4591    0.6882   -1.3464 H   0  0  0  0  0  0  0  0  0  0  0  0
    1.0161   -1.2614   -2.1613 C   0  0  0  0  0  0  0  0  0  0  0  0
    1.4816   -2.2443   -1.5376 O   0  5  0  0  0  0  0  0  0  0  0  0
    0.8673   -1.2169   -3.4014 O   0  0  0  0  0  0  0  0  0  0  0  0
    0.0419    1.0111    0.9166 C   0  0  0  0  0  0  0  0  0  0  0  0
   -0.5230    0.9978    2.0167 O   0  0  0  0  0  0  0  0  0  0  0  0
    0.5737    2.1295    0.4134 N   0  0  0  0  0  0  0  0  0  0  0  0
    0.9405    2.0584   -0.5376 H   0  0  0  0  0  0  0  0  0  0  0  0
    0.5328    3.4413    1.0507 C   0  0  0  0  0  0  0  0  0  0  0  0
    0.7784    3.3441    2.1090 H   0  0  0  0  0  0  0  0  0  0  0  0
    1.2494    4.1050    0.5675 H   0  0  0  0  0  0  0  0  0  0  0  0
   -0.4703    3.8569    0.9535 H   0  0  0  0  0  0  0  0  0  0  0  0
  5  6  2  0  0  0  0
  5  7  1  0  0  0  0
  2  3  1  0  0  0  0
  2  4  1  0  0  0  0
  2  5  1  0  0  0  0
  1  2  1  0  0  0  0
 17 18  2  0  0  0  0
 17 19  1  0  0  0  0
 14 15  1  0  0  0  0
 14 16  2  0  0  0  0
 11 12  1  0  0  0  0
 11 13  1  0  0  0  0
 11 14  1  0  0  0  0
  9 10  1  0  0  0  0
  9 11  1  0  0  0  0
  9 17  1  0  0  0  0
  7  8  1  0  0  0  0
  7  9  1  0  0  0  0
 21 22  1  0  0  0  0
 21 23  1  0  0  0  0
 21 24  1  0  0  0  0
 19 20  1  0  0  0  0
 19 21  1  0  0  0  0
M  CHG  1  15  -1
M  END
$$$$
default_name
  -OEChem-01062215323D

 24 23  0     1  0  0  0  0  0999 V2000
   -2.8347   -3.7166    0.8034 H   0  0  0  0  0  0  0  0  0  0  0  0
   -2.7728   -2.7096    0.3954 C   0  0  0  0  0  0  0  0  0  0  0  0
   -3.4267   -2.0426    0.9524 H   0  0  0  0  0  0  0  0  0  0  0  0
   -3.0538   -2.7186   -0.6556 H   0  0  0  0  0  0  0  0  0  0  0  0
   -1.3498   -2.2206    0.5184 C   0  0  0  0  0  0  0  0  0  0  0  0
   -0.4997   -2.9426    1.0194 O   0  0  0  0  0  0  0  0  0  0  0  0
   -1.1198   -0.9926    0.0674 N   0  0  0  0  0  0  0  0  0  0  0  0
   -1.8978   -0.4486   -0.2716 H   0  0  0  0  0  0  0  0  0  0  0  0
    0.1693   -0.2866    0.0854 C   0  0  1  0  0  0  0  0  0  0  0  0
    0.9183   -0.9233    0.5594 H   0  0  0  0  0  0  0  0  0  0  0  0
    0.6181   -0.0084   -1.3656 C   0  0  0  0  0  0  0  0  0  0  0  0
   -0.2021    0.4748   -1.8994 H   0  0  0  0  0  0  0  0  0  0  0  0
    1.4591    0.6882   -1.3464 H   0  0  0  0  0  0  0  0  0  0  0  0
    1.0161   -1.2614   -2.1613 C   0  0  0  0  0  0  0  0  0  0  0  0
    1.4816   -2.2443   -1.5376 O   0  5  0  0  0  0  0  0  0  0  0  0
    0.8673   -1.2169   -3.4014 O   0  0  0  0  0  0  0  0  0  0  0  0
    0.0419    1.0111    0.9166 C   0  0  0  0  0  0  0  0  0  0  0  0
   -0.2647    0.9610    2.1137 O   0  0  0  0  0  0  0  0  0  0  0  0
    0.2889    2.1725    0.3027 N   0  0  0  0  0  0  0  0  0  0  0  0
    0.4483    2.1174   -0.7051 H   0  0  0  0  0  0  0  0  0  0  0  0
    0.2013    3.4889    0.9256 C   0  0  0  0  0  0  0  0  0  0  0  0
    0.6806    3.4651    1.9052 H   0  0  0  0  0  0  0  0  0  0  0  0
    0.6955    4.2262    0.2935 H   0  0  0  0  0  0  0  0  0  0  0  0
   -0.8476    3.7595    1.0477 H   0  0  0  0  0  0  0  0  0  0  0  0
  5  6  2  0  0  0  0
  5  7  1  0  0  0  0
  2  3  1  0  0  0  0
  2  4  1  0  0  0  0
  2  5  1  0  0  0  0
  1  2  1  0  0  0  0
 17 18  2  0  0  0  0
 17 19  1  0  0  0  0
 14 15  1  0  0  0  0
 14 16  2  0  0  0  0
 11 12  1  0  0  0  0
 11 13  1  0  0  0  0
 11 14  1  0  0  0  0
  9 10  1  0  0  0  0
  9 11  1  0  0  0  0
  9 17  1  0  0  0  0
  7  8  1  0  0  0  0
  7  9  1  0  0  0  0
 21 22  1  0  0  0  0
 21 23  1  0  0  0  0
 21 24  1  0  0  0  0
 19 20  1  0  0  0  0
 19 21  1  0  0  0  0
M  CHG  1  15  -1
M  END
$$$$
default_name
  -OEChem-01062215323D

 24 23  0     1  0  0  0  0  0999 V2000
   -2.8347   -3.7166    0.8034 H   0  0  0  0  0  0  0  0  0  0  0  0
   -2.7728   -2.7096    0.3954 C   0  0  0  0  0  0  0  0  0  0  0  0
   -3.4267   -2.0426    0.9524 H   0  0  0  0  0  0  0  0  0  0  0  0
   -3.0538   -2.7186   -0.6556 H   0  0  0  0  0  0  0  0  0  0  0  0
   -1.3498   -2.2206    0.5184 C   0  0  0  0  0  0  0  0  0  0  0  0
   -0.4997   -2.9426    1.0194 O   0  0  0  0  0  0  0  0  0  0  0  0
   -1.1198   -0.9926    0.0674 N   0  0  0  0  0  0  0  0  0  0  0  0
   -1.8978   -0.4486   -0.2716 H   0  0  0  0  0  0  0  0  0  0  0  0
    0.1693   -0.2866    0.0854 C   0  0  1  0  0  0  0  0  0  0  0  0
    0.9183   -0.9233    0.5594 H   0  0  0  0  0  0  0  0  0  0  0  0
    0.6181   -0.0084   -1.3656 C   0  0  0  0  0  0  0  0  0  0  0  0
   -0.2021    0.4748   -1.8994 H   0  0  0  0  0  0  0  0  0  0  0  0
    1.4591    0.6882   -1.3464 H   0  0  0  0  0  0  0  0  0  0  0  0
    1.0161   -1.2614   -2.1613 C   0  0  0  0  0  0  0  0  0  0  0  0
    1.4816   -2.2443   -1.5376 O   0  5  0  0  0  0  0  0  0  0  0  0
    0.8673   -1.2169   -3.4014 O   0  0  0  0  0  0  0  0  0  0  0  0
    0.0419    1.0111    0.9166 C   0  0  0  0  0  0  0  0  0  0  0  0
    0.0110    0.9635    2.1520 O   0  0  0  0  0  0  0  0  0  0  0  0
   -0.0161    2.1721    0.2566 N   0  0  0  0  0  0  0  0  0  0  0  0
   -0.0718    2.1023   -0.7613 H   0  0  0  0  0  0  0  0  0  0  0  0
   -0.1526    3.4861    0.8758 C   0  0  0  0  0  0  0  0  0  0  0  0
    0.5251    3.5640    1.7269 H   0  0  0  0  0  0  0  0  0  0  0  0
    0.0841    4.2603    0.1465 H   0  0  0  0  0  0  0  0  0  0  0  0
   -1.1781    3.6150    1.2228 H   0  0  0  0  0  0  0  0  0  0  0  0
  5  6  2  0  0  0  0
  5  7  1  0  0  0  0
  2  3  1  0  0  0  0
  2  4  1  0  0  0  0
  2  5  1  0  0  0  0
  1  2  1  0  0  0  0
 17 18  2  0  0  0  0
 17 19  1  0  0  0  0
 14 15  1  0  0  0  0
 14 16  2  0  0  0  0
 11 12  1  0  0  0  0
 11 13  1  0  0  0  0
 11 14  1  0  0  0  0
  9 10  1  0  0  0  0
  9 11  1  0  0  0  0
  9 17  1  0  0  0  0
  7  8  1  0  0  0  0
  7  9  1  0  0  0  0
 21 22  1  0  0  0  0
 21 23  1  0  0  0  0
 21 24  1  0  0  0  0
 19 20  1  0  0  0  0
 19 21  1  0  0  0  0
M  CHG  1  15  -1
M  END
$$$$
default_name
  -OEChem-01062215323D

 24 23  0     1  0  0  0  0  0999 V2000
   -2.8347   -3.7166    0.8034 H   0  0  0  0  0  0  0  0  0  0  0  0
   -2.7728   -2.7096    0.3954 C   0  0  0  0  0  0  0  0  0  0  0  0
   -3.4267   -2.0426    0.9524 H   0  0  0  0  0  0  0  0  0  0  0  0
   -3.0538   -2.7186   -0.6556 H   0  0  0  0  0  0  0  0  0  0  0  0
   -1.3498   -2.2206    0.5184 C   0  0  0  0  0  0  0  0  0  0  0  0
   -0.4997   -2.9426    1.0194 O   0  0  0  0  0  0  0  0  0  0  0  0
   -1.1198   -0.9926    0.0674 N   0  0  0  0  0  0  0  0  0  0  0  0
   -1.8978   -0.4486   -0.2716 H   0  0  0  0  0  0  0  0  0  0  0  0
    0.1693   -0.2866    0.0854 C   0  0  1  0  0  0  0  0  0  0  0  0
    0.9183   -0.9233    0.5594 H   0  0  0  0  0  0  0  0  0  0  0  0
    0.6181   -0.0084   -1.3656 C   0  0  0  0  0  0  0  0  0  0  0  0
   -0.2021    0.4748   -1.8994 H   0  0  0  0  0  0  0  0  0  0  0  0
    1.4591    0.6882   -1.3464 H   0  0  0  0  0  0  0  0  0  0  0  0
    1.0161   -1.2614   -2.1613 C   0  0  0  0  0  0  0  0  0  0  0  0
    1.4816   -2.2443   -1.5376 O   0  5  0  0  0  0  0  0  0  0  0  0
    0.8673   -1.2169   -3.4014 O   0  0  0  0  0  0  0  0  0  0  0  0
    0.0419    1.0111    0.9166 C   0  0  0  0  0  0  0  0  0  0  0  0
    0.2853    1.0051    2.1291 O   0  0  0  0  0  0  0  0  0  0  0  0
   -0.3208    2.1282    0.2784 N   0  0  0  0  0  0  0  0  0  0  0  0
   -0.5842    2.0142   -0.7022 H   0  0  0  0  0  0  0  0  0  0  0  0
   -0.5050    3.4331    0.9047 C   0  0  0  0  0  0  0  0  0  0  0  0
    0.3224    3.6340    1.5865 H   0  0  0  0  0  0  0  0  0  0  0  0
   -0.5431    4.2051    0.1366 H   0  0  0  0  0  0  0  0  0  0  0  0
   -1.4391    3.4332    1.4667 H   0  0  0  0  0  0  0  0  0  0  0  0
  5  6  2  0  0  0  0
  5  7  1  0  0  0  0
  2  3  1  0  0  0  0
  2  4  1  0  0  0  0
  2  5  1  0  0  0  0
  1  2  1  0  0  0  0
 17 18  2  0  0  0  0
 17 19  1  0  0  0  0
 14 15  1  0  0  0  0
 14 16  2  0  0  0  0
 11 12  1  0  0  0  0
 11 13  1  0  0  0  0
 11 14  1  0  0  0  0
  9 10  1  0  0  0  0
  9 11  1  0  0  0  0
  9 17  1  0  0  0  0
  7  8  1  0  0  0  0
  7  9  1  0  0  0  0
 21 22  1  0  0  0  0
 21 23  1  0  0  0  0
 21 24  1  0  0  0  0
 19 20  1  0  0  0  0
 19 21  1  0  0  0  0
M  CHG  1  15  -1
M  END
$$$$
default_name
  -OEChem-01062215323D

 24 23  0     1  0  0  0  0  0999 V2000
   -2.8347   -3.7166    0.8034 H   0  0  0  0  0  0  0  0  0  0  0  0
   -2.7728   -2.7096    0.3954 C   0  0  0  0  0  0  0  0  0  0  0  0
   -3.4267   -2.0426    0.9524 H   0  0  0  0  0  0  0  0  0  0  0  0
   -3.0538   -2.7186   -0.6556 H   0  0  0  0  0  0  0  0  0  0  0  0
   -1.3498   -2.2206    0.5184 C   0  0  0  0  0  0  0  0  0  0  0  0
   -0.4997   -2.9426    1.0194 O   0  0  0  0  0  0  0  0  0  0  0  0
   -1.1198   -0.9926    0.0674 N   0  0  0  0  0  0  0  0  0  0  0  0
   -1.8978   -0.4486   -0.2716 H   0  0  0  0  0  0  0  0  0  0  0  0
    0.1693   -0.2866    0.0854 C   0  0  1  0  0  0  0  0  0  0  0  0
    0.9183   -0.9233    0.5594 H   0  0  0  0  0  0  0  0  0  0  0  0
    0.6181   -0.0084   -1.3656 C   0  0  0  0  0  0  0  0  0  0  0  0
   -0.2021    0.4748   -1.8994 H   0  0  0  0  0  0  0  0  0  0  0  0
    1.4591    0.6882   -1.3464 H   0  0  0  0  0  0  0  0  0  0  0  0
    1.0161   -1.2614   -2.1613 C   0  0  0  0  0  0  0  0  0  0  0  0
    1.4816   -2.2443   -1.5376 O   0  5  0  0  0  0  0  0  0  0  0  0
    0.8673   -1.2169   -3.4014 O   0  0  0  0  0  0  0  0  0  0  0  0
    0.0419    1.0111    0.9166 C   0  0  0  0  0  0  0  0  0  0  0  0
    0.5394    1.0829    2.0465 O   0  0  0  0  0  0  0  0  0  0  0  0
   -0.6042    2.0439    0.3665 N   0  0  0  0  0  0  0  0  0  0  0  0
   -1.0542    1.8591   -0.5320 H   0  0  0  0  0  0  0  0  0  0  0  0
   -0.8317    3.3334    1.0102 C   0  0  0  0  0  0  0  0  0  0  0  0
    0.0863    3.6705    1.4933 H   0  0  0  0  0  0  0  0  0  0  0  0
   -1.1433    4.0643    0.2645 H   0  0  0  0  0  0  0  0  0  0  0  0
   -1.6130    3.2264    1.7629 H   0  0  0  0  0  0  0  0  0  0  0  0
  5  6  2  0  0  0  0
  5  7  1  0  0  0  0
  2  3  1  0  0  0  0
  2  4  1  0  0  0  0
  2  5  1  0  0  0  0
  1  2  1  0  0  0  0
 17 18  2  0  0  0  0
 17 19  1  0  0  0  0
 14 15  1  0  0  0  0
 14 16  2  0  0  0  0
 11 12  1  0  0  0  0
 11 13  1  0  0  0  0
 11 14  1  0  0  0  0
  9 10  1  0  0  0  0
  9 11  1  0  0  0  0
  9 17  1  0  0  0  0
  7  8  1  0  0  0  0
  7  9  1  0  0  0  0
 21 22  1  0  0  0  0
 21 23  1  0  0  0  0
 21 24  1  0  0  0  0
 19 20  1  0  0  0  0
 19 21  1  0  0  0  0
M  CHG  1  15  -1
M  END
$$$$
default_name
  -OEChem-01062215323D

 24 23  0     1  0  0  0  0  0999 V2000
   -2.8347   -3.7166    0.8034 H   0  0  0  0  0  0  0  0  0  0  0  0
   -2.7728   -2.7096    0.3954 C   0  0  0  0  0  0  0  0  0  0  0  0
   -3.4267   -2.0426    0.9524 H   0  0  0  0  0  0  0  0  0  0  0  0
   -3.0538   -2.7186   -0.6556 H   0  0  0  0  0  0  0  0  0  0  0  0
   -1.3498   -2.2206    0.5184 C   0  0  0  0  0  0  0  0  0  0  0  0
   -0.4997   -2.9426    1.0194 O   0  0  0  0  0  0  0  0  0  0  0  0
   -1.1198   -0.9926    0.0674 N   0  0  0  0  0  0  0  0  0  0  0  0
   -1.8978   -0.4486   -0.2716 H   0  0  0  0  0  0  0  0  0  0  0  0
    0.1693   -0.2866    0.0854 C   0  0  1  0  0  0  0  0  0  0  0  0
    0.9183   -0.9233    0.5594 H   0  0  0  0  0  0  0  0  0  0  0  0
    0.6181   -0.0084   -1.3656 C   0  0  0  0  0  0  0  0  0  0  0  0
   -0.2021    0.4748   -1.8994 H   0  0  0  0  0  0  0  0  0  0  0  0
    1.4591    0.6882   -1.3464 H   0  0  0  0  0  0  0  0  0  0  0  0
    1.0161   -1.2614   -2.1613 C   0  0  0  0  0  0  0  0  0  0  0  0
    1.4816   -2.2443   -1.5376 O   0  5  0  0  0  0  0  0  0  0  0  0
    0.8673   -1.2169   -3.4014 O   0  0  0  0  0  0  0  0  0  0  0  0
    0.0419    1.0111    0.9166 C   0  0  0  0  0  0  0  0  0  0  0  0
    0.7562    1.1917    1.9099 O   0  0  0  0  0  0  0  0  0  0  0  0
   -0.8471    1.9250    0.5150 N   0  0  0  0  0  0  0  0  0  0  0  0
   -1.4495    1.6475   -0.2622 H   0  0  0  0  0  0  0  0  0  0  0  0
   -1.1105    3.1940    1.1852 C   0  0  0  0  0  0  0  0  0  0  0  0
   -0.1670    3.6710    1.4538 H   0  0  0  0  0  0  0  0  0  0  0  0
   -1.6758    3.8475    0.5214 H   0  0  0  0  0  0  0  0  0  0  0  0
   -1.6878    3.0088    2.0912 H   0  0  0  0  0  0  0  0  0  0  0  0
  5  6  2  0  0  0  0
  5  7  1  0  0  0  0
  2  3  1  0  0  0  0
  2  4  1  0  0  0  0
  2  5  1  0  0  0  0
  1  2  1  0  0  0  0
 17 18  2  0  0  0  0
 17 19  1  0  0  0  0
 14 15  1  0  0  0  0
 14 16  2  0  0  0  0
 11 12  1  0  0  0  0
 11 13  1  0  0  0  0
 11 14  1  0  0  0  0
  9 10  1  0  0  0  0
  9 11  1  0  0  0  0
  9 17  1  0  0  0  0
  7  8  1  0  0  0  0
  7  9  1  0  0  0  0
 21 22  1  0  0  0  0
 21 23  1  0  0  0  0
 21 24  1  0  0  0  0
 19 20  1  0  0  0  0
 19 21  1  0  0  0  0
M  CHG  1  15  -1
M  END
$$$$
default_name
  -OEChem-01062215323D

 24 23  0     1  0  0  0  0  0999 V2000
   -2.8347   -3.7166    0.8034 H   0  0  0  0  0  0  0  0  0  0  0  0
   -2.7728   -2.7096    0.3954 C   0  0  0  0  0  0  0  0  0  0  0  0
   -3.4267   -2.0426    0.9524 H   0  0  0  0  0  0  0  0  0  0  0  0
   -3.0538   -2.7186   -0.6556 H   0  0  0  0  0  0  0  0  0  0  0  0
   -1.3498   -2.2206    0.5184 C   0  0  0  0  0  0  0  0  0  0  0  0
   -0.4997   -2.9426    1.0194 O   0  0  0  0  0  0  0  0  0  0  0  0
   -1.1198   -0.9926    0.0674 N   0  0  0  0  0  0  0  0  0  0  0  0
   -1.8978   -0.4486   -0.2716 H   0  0  0  0  0  0  0  0  0  0  0  0
    0.1693   -0.2866    0.0854 C   0  0  1  0  0  0  0  0  0  0  0  0
    0.9183   -0.9233    0.5594 H   0  0  0  0  0  0  0  0  0  0  0  0
    0.6181   -0.0084   -1.3656 C   0  0  0  0  0  0  0  0  0  0  0  0
   -0.2021    0.4748   -1.8994 H   0  0  0  0  0  0  0  0  0  0  0  0
    1.4591    0.6882   -1.3464 H   0  0  0  0  0  0  0  0  0  0  0  0
    1.0161   -1.2614   -2.1613 C   0  0  0  0  0  0  0  0  0  0  0  0
    1.4816   -2.2443   -1.5376 O   0  5  0  0  0  0  0  0  0  0  0  0
    0.8673   -1.2169   -3.4014 O   0  0  0  0  0  0  0  0  0  0  0  0
    0.0419    1.0111    0.9166 C   0  0  0  0  0  0  0  0  0  0  0  0
    0.9207    1.3240    1.7285 O   0  0  0  0  0  0  0  0  0  0  0  0
   -1.0329    1.7795    0.7138 N   0  0  0  0  0  0  0  0  0  0  0  0
   -1.7433    1.3939    0.0887 H   0  0  0  0  0  0  0  0  0  0  0  0
   -1.3224    3.0242    1.4177 C   0  0  0  0  0  0  0  0  0  0  0  0
   -0.4204    3.6353    1.4707 H   0  0  0  0  0  0  0  0  0  0  0  0
   -2.1042    3.5695    0.8898 H   0  0  0  0  0  0  0  0  0  0  0  0
   -1.6585    2.7952    2.4292 H   0  0  0  0  0  0  0  0  0  0  0  0
  5  6  2  0  0  0  0
  5  7  1  0  0  0  0
  2  3  1  0  0  0  0
  2  4  1  0  0  0  0
  2  5  1  0  0  0  0
  1  2  1  0  0  0  0
 17 18  2  0  0  0  0
 17 19  1  0  0  0  0
 14 15  1  0  0  0  0
 14 16  2  0  0  0  0
 11 12  1  0  0  0  0
 11 13  1  0  0  0  0
 11 14  1  0  0  0  0
  9 10  1  0  0  0  0
  9 11  1  0  0  0  0
  9 17  1  0  0  0  0
  7  8  1  0  0  0  0
  7  9  1  0  0  0  0
 21 22  1  0  0  0  0
 21 23  1  0  0  0  0
 21 24  1  0  0  0  0
 19 20  1  0  0  0  0
 19 21  1  0  0  0  0
M  CHG  1  15  -1
M  END
$$$$
default_name
  -OEChem-01062215323D

 24 23  0     1  0  0  0  0  0999 V2000
   -2.8347   -3.7166    0.8034 H   0  0  0  0  0  0  0  0  0  0  0  0
   -2.7728   -2.7096    0.3954 C   0  0  0  0  0  0  0  0  0  0  0  0
   -3.4267   -2.0426    0.9524 H   0  0  0  0  0  0  0  0  0  0  0  0
   -3.0538   -2.7186   -0.6556 H   0  0  0  0  0  0  0  0  0  0  0  0
   -1.3498   -2.2206    0.5184 C   0  0  0  0  0  0  0  0  0  0  0  0
   -0.4997   -2.9426    1.0194 O   0  0  0  0  0  0  0  0  0  0  0  0
   -1.1198   -0.9926    0.0674 N   0  0  0  0  0  0  0  0  0  0  0  0
   -1.8978   -0.4486   -0.2716 H   0  0  0  0  0  0  0  0  0  0  0  0
    0.1693   -0.2866    0.0854 C   0  0  1  0  0  0  0  0  0  0  0  0
    0.9183   -0.9233    0.5594 H   0  0  0  0  0  0  0  0  0  0  0  0
    0.6181   -0.0084   -1.3656 C   0  0  0  0  0  0  0  0  0  0  0  0
   -0.2021    0.4748   -1.8994 H   0  0  0  0  0  0  0  0  0  0  0  0
    1.4591    0.6882   -1.3464 H   0  0  0  0  0  0  0  0  0  0  0  0
    1.0161   -1.2614   -2.1613 C   0  0  0  0  0  0  0  0  0  0  0  0
    1.4816   -2.2443   -1.5376 O   0  5  0  0  0  0  0  0  0  0  0  0
    0.8673   -1.2169   -3.4014 O   0  0  0  0  0  0  0  0  0  0  0  0
    0.0419    1.0111    0.9166 C   0  0  0  0  0  0  0  0  0  0  0  0
    1.0219    1.4708    1.5148 O   0  0  0  0  0  0  0  0  0  0  0  0
   -1.1490    1.6173    0.9492 N   0  0  0  0  0  0  0  0  0  0  0  0
   -1.9156    1.1155    0.4970 H   0  0  0  0  0  0  0  0  0  0  0  0
   -1.4529    2.8358    1.6920 C   0  0  0  0  0  0  0  0  0  0  0  0
   -0.6565    3.5660    1.5428 H   0  0  0  0  0  0  0  0  0  0  0  0
   -2.3993    3.2493    1.3446 H   0  0  0  0  0  0  0  0  0  0  0  0
   -1.5271    2.6001    2.7538 H   0  0  0  0  0  0  0  0  0  0  0  0
  5  6  2  0  0  0  0
  5  7  1  0  0  0  0
  2  3  1  0  0  0  0
  2  4  1  0  0  0  0
  2  5  1  0  0  0  0
  1  2  1  0  0  0  0
 17 18  2  0  0  0  0
 17 19  1  0  0  0  0
 14 15  1  0  0  0  0
 14 16  2  0  0  0  0
 11 12  1  0  0  0  0
 11 13  1  0  0  0  0
 11 14  1  0  0  0  0
  9 10  1  0  0  0  0
  9 11  1  0  0  0  0
  9 17  1  0  0  0  0
  7  8  1  0  0  0  0
  7  9  1  0  0  0  0
 21 22  1  0  0  0  0
 21 23  1  0  0  0  0
 21 24  1  0  0  0  0
 19 20  1  0  0  0  0
 19 21  1  0  0  0  0
M  CHG  1  15  -1
M  END
$$$$
default_name
  -OEChem-01062215323D

 24 23  0     1  0  0  0  0  0999 V2000
   -2.8347   -3.7166    0.8034 H   0  0  0  0  0  0  0  0  0  0  0  0
   -2.7728   -2.7096    0.3954 C   0  0  0  0  0  0  0  0  0  0  0  0
   -3.4267   -2.0426    0.9524 H   0  0  0  0  0  0  0  0  0  0  0  0
   -3.0538   -2.7186   -0.6556 H   0  0  0  0  0  0  0  0  0  0  0  0
   -1.3498   -2.2206    0.5184 C   0  0  0  0  0  0  0  0  0  0  0  0
   -0.4997   -2.9426    1.0194 O   0  0  0  0  0  0  0  0  0  0  0  0
   -1.1198   -0.9926    0.0674 N   0  0  0  0  0  0  0  0  0  0  0  0
   -1.8978   -0.4486   -0.2716 H   0  0  0  0  0  0  0  0  0  0  0  0
    0.1693   -0.2866    0.0854 C   0  0  1  0  0  0  0  0  0  0  0  0
    0.9183   -0.9233    0.5594 H   0  0  0  0  0  0  0  0  0  0  0  0
    0.6181   -0.0084   -1.3656 C   0  0  0  0  0  0  0  0  0  0  0  0
   -0.2021    0.4748   -1.8994 H   0  0  0  0  0  0  0  0  0  0  0  0
    1.4591    0.6882   -1.3464 H   0  0  0  0  0  0  0  0  0  0  0  0
    1.0161   -1.2614   -2.1613 C   0  0  0  0  0  0  0  0  0  0  0  0
    1.4816   -2.2443   -1.5376 O   0  5  0  0  0  0  0  0  0  0  0  0
    0.8673   -1.2169   -3.4014 O   0  0  0  0  0  0  0  0  0  0  0  0
    0.0419    1.0111    0.9166 C   0  0  0  0  0  0  0  0  0  0  0  0
    1.0527    1.6221    1.2832 O   0  0  0  0  0  0  0  0  0  0  0  0
   -1.1874    1.4495    1.2053 N   0  0  0  0  0  0  0  0  0  0  0  0
   -1.9547    0.8314    0.9347 H   0  0  0  0  0  0  0  0  0  0  0  0
   -1.4932    2.6414    1.9893 C   0  0  0  0  0  0  0  0  0  0  0  0
   -0.8592    3.4677    1.6651 H   0  0  0  0  0  0  0  0  0  0  0  0
   -2.5410    2.9086    1.8549 H   0  0  0  0  0  0  0  0  0  0  0  0
   -1.3025    2.4369    3.0430 H   0  0  0  0  0  0  0  0  0  0  0  0
  5  6  2  0  0  0  0
  5  7  1  0  0  0  0
  2  3  1  0  0  0  0
  2  4  1  0  0  0  0
  2  5  1  0  0  0  0
  1  2  1  0  0  0  0
 17 18  2  0  0  0  0
 17 19  1  0  0  0  0
 14 15  1  0  0  0  0
 14 16  2  0  0  0  0
 11 12  1  0  0  0  0
 11 13  1  0  0  0  0
 11 14  1  0  0  0  0
  9 10  1  0  0  0  0
  9 11  1  0  0  0  0
  9 17  1  0  0  0  0
  7  8  1  0  0  0  0
  7  9  1  0  0  0  0
 21 22  1  0  0  0  0
 21 23  1  0  0  0  0
 21 24  1  0  0  0  0
 19 20  1  0  0  0  0
 19 21  1  0  0  0  0
M  CHG  1  15  -1
M  END
$$$$
default_name
  -OEChem-01062215323D

 24 23  0     1  0  0  0  0  0999 V2000
   -2.8347   -3.7166    0.8034 H   0  0  0  0  0  0  0  0  0  0  0  0
   -2.7728   -2.7096    0.3954 C   0  0  0  0  0  0  0  0  0  0  0  0
   -3.4267   -2.0426    0.9524 H   0  0  0  0  0  0  0  0  0  0  0  0
   -3.0538   -2.7186   -0.6556 H   0  0  0  0  0  0  0  0  0  0  0  0
   -1.3498   -2.2206    0.5184 C   0  0  0  0  0  0  0  0  0  0  0  0
   -0.4997   -2.9426    1.0194 O   0  0  0  0  0  0  0  0  0  0  0  0
   -1.1198   -0.9926    0.0674 N   0  0  0  0  0  0  0  0  0  0  0  0
   -1.8978   -0.4486   -0.2716 H   0  0  0  0  0  0  0  0  0  0  0  0
    0.1693   -0.2866    0.0854 C   0  0  1  0  0  0  0  0  0  0  0  0
    0.9183   -0.9233    0.5594 H   0  0  0  0  0  0  0  0  0  0  0  0
    0.6181   -0.0084   -1.3656 C   0  0  0  0  0  0  0  0  0  0  0  0
   -0.2021    0.4748   -1.8994 H   0  0  0  0  0  0  0  0  0  0  0  0
    1.4591    0.6882   -1.3464 H   0  0  0  0  0  0  0  0  0  0  0  0
    1.0161   -1.2614   -2.1613 C   0  0  0  0  0  0  0  0  0  0  0  0
    1.4816   -2.2443   -1.5376 O   0  5  0  0  0  0  0  0  0  0  0  0
    0.8673   -1.2169   -3.4014 O   0  0  0  0  0  0  0  0  0  0  0  0
    0.0419    1.0111    0.9166 C   0  0  0  0  0  0  0  0  0  0  0  0
    1.0112    1.7677    1.0496 O   0  0  0  0  0  0  0  0  0  0  0  0
   -1.1456    1.2876    1.4645 N   0  0  0  0  0  0  0  0  0  0  0  0
   -1.8578    0.5608    1.3720 H   0  0  0  0  0  0  0  0  0  0  0  0
   -1.4405    2.4544    2.2894 C   0  0  0  0  0  0  0  0  0  0  0  0
   -1.0148    3.3472    1.8295 H   0  0  0  0  0  0  0  0  0  0  0  0
   -2.5196    2.5706    2.3858 H   0  0  0  0  0  0  0  0  0  0  0  0
   -1.0001    2.3167    3.2771 H   0  0  0  0  0  0  0  0  0  0  0  0
  5  6  2  0  0  0  0
  5  7  1  0  0  0  0
  2  3  1  0  0  0  0
  2  4  1  0  0  0  0
  2  5  1  0  0  0  0
  1  2  1  0  0  0  0
 17 18  2  0  0  0  0
 17 19  1  0  0  0  0
 14 15  1  0  0  0  0
 14 16  2  0  0  0  0
 11 12  1  0  0  0  0
 11 13  1  0  0  0  0
 11 14  1  0  0  0  0
  9 10  1  0  0  0  0
  9 11  1  0  0  0  0
  9 17  1  0  0  0  0
  7  8  1  0  0  0  0
  7  9  1  0  0  0  0
 21 22  1  0  0  0  0
 21 23  1  0  0  0  0
 21 24  1  0  0  0  0
 19 20  1  0  0  0  0
 19 21  1  0  0  0  0
M  CHG  1  15  -1
M  END
$$$$
default_name
  -OEChem-01062215323D

 24 23  0     1  0  0  0  0  0999 V2000
   -2.8347   -3.7166    0.8034 H   0  0  0  0  0  0  0  0  0  0  0  0
   -2.7728   -2.7096    0.3954 C   0  0  0  0  0  0  0  0  0  0  0  0
   -3.4267   -2.0426    0.9524 H   0  0  0  0  0  0  0  0  0  0  0  0
   -3.0538   -2.7186   -0.6556 H   0  0  0  0  0  0  0  0  0  0  0  0
   -1.3498   -2.2206    0.5184 C   0  0  0  0  0  0  0  0  0  0  0  0
   -0.4997   -2.9426    1.0194 O   0  0  0  0  0  0  0  0  0  0  0  0
   -1.1198   -0.9926    0.0674 N   0  0  0  0  0  0  0  0  0  0  0  0
   -1.8978   -0.4486   -0.2716 H   0  0  0  0  0  0  0  0  0  0  0  0
    0.1693   -0.2866    0.0854 C   0  0  1  0  0  0  0  0  0  0  0  0
    0.9183   -0.9233    0.5594 H   0  0  0  0  0  0  0  0  0  0  0  0
    0.6181   -0.0084   -1.3656 C   0  0  0  0  0  0  0  0  0  0  0  0
   -0.2021    0.4748   -1.8994 H   0  0  0  0  0  0  0  0  0  0  0  0
    1.4591    0.6882   -1.3464 H   0  0  0  0  0  0  0  0  0  0  0  0
    1.0161   -1.2614   -2.1613 C   0  0  0  0  0  0  0  0  0  0  0  0
    1.4816   -2.2443   -1.5376 O   0  5  0  0  0  0  0  0  0  0  0  0
    0.8673   -1.2169   -3.4014 O   0  0  0  0  0  0  0  0  0  0  0  0
    0.0419    1.0111    0.9166 C   0  0  0  0  0  0  0  0  0  0  0  0
    0.9000    1.8975    0.8299 O   0  0  0  0  0  0  0  0  0  0  0  0
   -1.0263    1.1425    1.7093 N   0  0  0  0  0  0  0  0  0  0  0  0
   -1.6315    0.3222    1.7791 H   0  0  0  0  0  0  0  0  0  0  0  0
   -1.2984    2.2875    2.5718 C   0  0  0  0  0  0  0  0  0  0  0  0
   -1.1126    3.2126    2.0246 H   0  0  0  0  0  0  0  0  0  0  0  0
   -2.3366    2.2585    2.9012 H   0  0  0  0  0  0  0  0  0  0  0  0
   -0.6403    2.2477    3.4400 H   0  0  0  0  0  0  0  0  0  0  0  0
  5  6  2  0  0  0  0
  5  7  1  0  0  0  0
  2  3  1  0  0  0  0
  2  4  1  0  0  0  0
  2  5  1  0  0  0  0
  1  2  1  0  0  0  0
 17 18  2  0  0  0  0
 17 19  1  0  0  0  0
 14 15  1  0  0  0  0
 14 16  2  0  0  0  0
 11 12  1  0  0  0  0
 11 13  1  0  0  0  0
 11 14  1  0  0  0  0
  9 10  1  0  0  0  0
  9 11  1  0  0  0  0
  9 17  1  0  0  0  0
  7  8  1  0  0  0  0
  7  9  1  0  0  0  0
 21 22  1  0  0  0  0
 21 23  1  0  0  0  0
 21 24  1  0  0  0  0
 19 20  1  0  0  0  0
 19 21  1  0  0  0  0
M  CHG  1  15  -1
M  END
$$$$
default_name
  -OEChem-01062215323D

 24 23  0     1  0  0  0  0  0999 V2000
   -2.8347   -3.7166    0.8034 H   0  0  0  0  0  0  0  0  0  0  0  0
   -2.7728   -2.7096    0.3954 C   0  0  0  0  0  0  0  0  0  0  0  0
   -3.4267   -2.0426    0.9524 H   0  0  0  0  0  0  0  0  0  0  0  0
   -3.0538   -2.7186   -0.6556 H   0  0  0  0  0  0  0  0  0  0  0  0
   -1.3498   -2.2206    0.5184 C   0  0  0  0  0  0  0  0  0  0  0  0
   -0.4997   -2.9426    1.0194 O   0  0  0  0  0  0  0  0  0  0  0  0
   -1.1198   -0.9926    0.0674 N   0  0  0  0  0  0  0  0  0  0  0  0
   -1.8978   -0.4486   -0.2716 H   0  0  0  0  0  0  0  0  0  0  0  0
    0.1693   -0.2866    0.0854 C   0  0  1  0  0  0  0  0  0  0  0  0
    0.9183   -0.9233    0.5594 H   0  0  0  0  0  0  0  0  0  0  0  0
    0.6181   -0.0084   -1.3656 C   0  0  0  0  0  0  0  0  0  0  0  0
   -0.2021    0.4748   -1.8994 H   0  0  0  0  0  0  0  0  0  0  0  0
    1.4591    0.6882   -1.3464 H   0  0  0  0  0  0  0  0  0  0  0  0
    1.0161   -1.2614   -2.1613 C   0  0  0  0  0  0  0  0  0  0  0  0
    1.4816   -2.2443   -1.5376 O   0  5  0  0  0  0  0  0  0  0  0  0
    0.8673   -1.2169   -3.4014 O   0  0  0  0  0  0  0  0  0  0  0  0
    0.0419    1.0111    0.9166 C   0  0  0  0  0  0  0  0  0  0  0  0
    0.7269    2.0027    0.6391 O   0  0  0  0  0  0  0  0  0  0  0  0
   -0.8377    1.0242    1.9230 N   0  0  0  0  0  0  0  0  0  0  0  0
   -1.2914    0.1320    2.1283 H   0  0  0  0  0  0  0  0  0  0  0  0
   -1.0766    2.1520    2.8172 C   0  0  0  0  0  0  0  0  0  0  0  0
   -1.1460    3.0732    2.2372 H   0  0  0  0  0  0  0  0  0  0  0  0
   -2.0045    1.9934    3.3659 H   0  0  0  0  0  0  0  0  0  0  0  0
   -0.2479    2.2345    3.5208 H   0  0  0  0  0  0  0  0  0  0  0  0
  5  6  2  0  0  0  0
  5  7  1  0  0  0  0
  2  3  1  0  0  0  0
  2  4  1  0  0  0  0
  2  5  1  0  0  0  0
  1  2  1  0  0  0  0
 17 18  2  0  0  0  0
 17 19  1  0  0  0  0
 14 15  1  0  0  0  0
 14 16  2  0  0  0  0
 11 12  1  0  0  0  0
 11 13  1  0  0  0  0
 11 14  1  0  0  0  0
  9 10  1  0  0  0  0
  9 11  1  0  0  0  0
  9 17  1  0  0  0  0
  7  8  1  0  0  0  0
  7  9  1  0  0  0  0
 21 22  1  0  0  0  0
 21 23  1  0  0  0  0
 21 24  1  0  0  0  0
 19 20  1  0  0  0  0
 19 21  1  0  0  0  0
M  CHG  1  15  -1
M  END
$$$$
default_name
  -OEChem-01062215323D

 24 23  0     1  0  0  0  0  0999 V2000
   -2.8347   -3.7166    0.8034 H   0  0  0  0  0  0  0  0  0  0  0  0
   -2.7728   -2.7096    0.3954 C   0  0  0  0  0  0  0  0  0  0  0  0
   -3.4267   -2.0426    0.9524 H   0  0  0  0  0  0  0  0  0  0  0  0
   -3.0538   -2.7186   -0.6556 H   0  0  0  0  0  0  0  0  0  0  0  0
   -1.3498   -2.2206    0.5184 C   0  0  0  0  0  0  0  0  0  0  0  0
   -0.4997   -2.9426    1.0194 O   0  0  0  0  0  0  0  0  0  0  0  0
   -1.1198   -0.9926    0.0674 N   0  0  0  0  0  0  0  0  0  0  0  0
   -1.8978   -0.4486   -0.2716 H   0  0  0  0  0  0  0  0  0  0  0  0
    0.1693   -0.2866    0.0854 C   0  0  1  0  0  0  0  0  0  0  0  0
    0.9183   -0.9233    0.5594 H   0  0  0  0  0  0  0  0  0  0  0  0
    0.6181   -0.0084   -1.3656 C   0  0  0  0  0  0  0  0  0  0  0  0
   -0.2021    0.4748   -1.8994 H   0  0  0  0  0  0  0  0  0  0  0  0
    1.4591    0.6882   -1.3464 H   0  0  0  0  0  0  0  0  0  0  0  0
    1.0161   -1.2614   -2.1613 C   0  0  0  0  0  0  0  0  0  0  0  0
    1.4816   -2.2443   -1.5376 O   0  5  0  0  0  0  0  0  0  0  0  0
    0.8673   -1.2169   -3.4014 O   0  0  0  0  0  0  0  0  0  0  0  0
    0.0419    1.0111    0.9166 C   0  0  0  0  0  0  0  0  0  0  0  0
    0.5036    2.0762    0.4901 O   0  0  0  0  0  0  0  0  0  0  0  0
   -0.5927    0.9407    2.0909 N   0  0  0  0  0  0  0  0  0  0  0  0
   -0.8605    0.0029    2.3958 H   0  0  0  0  0  0  0  0  0  0  0  0
   -0.7901    2.0573    3.0090 C   0  0  0  0  0  0  0  0  0  0  0  0
   -1.1126    2.9384    2.4527 H   0  0  0  0  0  0  0  0  0  0  0  0
   -1.5459    1.7935    3.7483 H   0  0  0  0  0  0  0  0  0  0  0  0
    0.1506    2.2780    3.5138 H   0  0  0  0  0  0  0  0  0  0  0  0
  5  6  2  0  0  0  0
  5  7  1  0  0  0  0
  2  3  1  0  0  0  0
  2  4  1  0  0  0  0
  2  5  1  0  0  0  0
  1  2  1  0  0  0  0
 17 18  2  0  0  0  0
 17 19  1  0  0  0  0
 14 15  1  0  0  0  0
 14 16  2  0  0  0  0
 11 12  1  0  0  0  0
 11 13  1  0  0  0  0
 11 14  1  0  0  0  0
  9 10  1  0  0  0  0
  9 11  1  0  0  0  0
  9 17  1  0  0  0  0
  7  8  1  0  0  0  0
  7  9  1  0  0  0  0
 21 22  1  0  0  0  0
 21 23  1  0  0  0  0
 21 24  1  0  0  0  0
 19 20  1  0  0  0  0
 19 21  1  0  0  0  0
M  CHG  1  15  -1
M  END
$$$$
default_name
  -OEChem-01062215323D

 24 23  0     1  0  0  0  0  0999 V2000
   -2.8347   -3.7166    0.8034 H   0  0  0  0  0  0  0  0  0  0  0  0
   -2.7728   -2.7096    0.3954 C   0  0  0  0  0  0  0  0  0  0  0  0
   -3.4267   -2.0426    0.9524 H   0  0  0  0  0  0  0  0  0  0  0  0
   -3.0538   -2.7186   -0.6556 H   0  0  0  0  0  0  0  0  0  0  0  0
   -1.3498   -2.2206    0.5184 C   0  0  0  0  0  0  0  0  0  0  0  0
   -0.4997   -2.9426    1.0194 O   0  0  0  0  0  0  0  0  0  0  0  0
   -1.1198   -0.9926    0.0674 N   0  0  0  0  0  0  0  0  0  0  0  0
   -1.8978   -0.4486   -0.2716 H   0  0  0  0  0  0  0  0  0  0  0  0
    0.1693   -0.2866    0.0854 C   0  0  1  0  0  0  0  0  0  0  0  0
    0.9183   -0.9233    0.5594 H   0  0  0  0  0  0  0  0  0  0  0  0
    0.6181   -0.0084   -1.3656 C   0  0  0  0  0  0  0  0  0  0  0  0
   -0.2021    0.4748   -1.8994 H   0  0  0  0  0  0  0  0  0  0  0  0
    1.4591    0.6882   -1.3464 H   0  0  0  0  0  0  0  0  0  0  0  0
    1.0161   -1.2614   -2.1613 C   0  0  0  0  0  0  0  0  0  0  0  0
    1.4816   -2.2443   -1.5376 O   0  5  0  0  0  0  0  0  0  0  0  0
    0.8673   -1.2169   -3.4014 O   0  0  0  0  0  0  0  0  0  0  0  0
    0.0419    1.0111    0.9166 C   0  0  0  0  0  0  0  0  0  0  0  0
    0.2453    2.1130    0.3931 O   0  0  0  0  0  0  0  0  0  0  0  0
   -0.3080    0.8977    2.2017 N   0  0  0  0  0  0  0  0  0  0  0  0
   -0.3683   -0.0561    2.5633 H   0  0  0  0  0  0  0  0  0  0  0  0
   -0.4586    2.0097    3.1341 C   0  0  0  0  0  0  0  0  0  0  0  0
   -1.0149    2.8174    2.6566 H   0  0  0  0  0  0  0  0  0  0  0  0
   -0.9921    1.6724    4.0223 H   0  0  0  0  0  0  0  0  0  0  0  0
    0.5279    2.3754    3.4196 H   0  0  0  0  0  0  0  0  0  0  0  0
  5  6  2  0  0  0  0
  5  7  1  0  0  0  0
  2  3  1  0  0  0  0
  2  4  1  0  0  0  0
  2  5  1  0  0  0  0
  1  2  1  0  0  0  0
 17 18  2  0  0  0  0
 17 19  1  0  0  0  0
 14 15  1  0  0  0  0
 14 16  2  0  0  0  0
 11 12  1  0  0  0  0
 11 13  1  0  0  0  0
 11 14  1  0  0  0  0
  9 10  1  0  0  0  0
  9 11  1  0  0  0  0
  9 17  1  0  0  0  0
  7  8  1  0  0  0  0
  7  9  1  0  0  0  0
 21 22  1  0  0  0  0
 21 23  1  0  0  0  0
 21 24  1  0  0  0  0
 19 20  1  0  0  0  0
 19 21  1  0  0  0  0
M  CHG  1  15  -1
M  END
$$$$
default_name
  -OEChem-01062215323D

 24 23  0     1  0  0  0  0  0999 V2000
   -2.8347   -3.7166    0.8034 H   0  0  0  0  0  0  0  0  0  0  0  0
   -2.7728   -2.7096    0.3954 C   0  0  0  0  0  0  0  0  0  0  0  0
   -3.4267   -2.0426    0.9524 H   0  0  0  0  0  0  0  0  0  0  0  0
   -3.0538   -2.7186   -0.6556 H   0  0  0  0  0  0  0  0  0  0  0  0
   -1.3498   -2.2206    0.5184 C   0  0  0  0  0  0  0  0  0  0  0  0
   -0.4997   -2.9426    1.0194 O   0  0  0  0  0  0  0  0  0  0  0  0
   -1.1198   -0.9926    0.0674 N   0  0  0  0  0  0  0  0  0  0  0  0
   -1.8978   -0.4486   -0.2716 H   0  0  0  0  0  0  0  0  0  0  0  0
    0.1693   -0.2866    0.0854 C   0  0  1  0  0  0  0  0  0  0  0  0
    0.9183   -0.9233    0.5594 H   0  0  0  0  0  0  0  0  0  0  0  0
    0.6181   -0.0084   -1.3656 C   0  0  0  0  0  0  0  0  0  0  0  0
   -0.2021    0.4748   -1.8994 H   0  0  0  0  0  0  0  0  0  0  0  0
    1.4591    0.6882   -1.3464 H   0  0  0  0  0  0  0  0  0  0  0  0
    1.0161   -1.2614   -2.1613 C   0  0  0  0  0  0  0  0  0  0  0  0
    1.4816   -2.2443   -1.5376 O   0  5  0  0  0  0  0  0  0  0  0  0
    0.8673   -1.2169   -3.4014 O   0  0  0  0  0  0  0  0  0  0  0  0
    0.0419    1.0111    0.9166 C   0  0  0  0  0  0  0  0  0  0  0  0
   -0.0304    2.1105    0.3548 O   0  0  0  0  0  0  0  0  0  0  0  0
   -0.0029    0.8981    2.2477 N   0  0  0  0  0  0  0  0  0  0  0  0
    0.1518   -0.0410    2.6195 H   0  0  0  0  0  0  0  0  0  0  0  0
   -0.1047    2.0126    3.1839 C   0  0  0  0  0  0  0  0  0  0  0  0
   -0.8593    2.7186    2.8348 H   0  0  0  0  0  0  0  0  0  0  0  0
   -0.3807    1.6382    4.1693 H   0  0  0  0  0  0  0  0  0  0  0  0
    0.8583    2.5200    3.2445 H   0  0  0  0  0  0  0  0  0  0  0  0
  5  6  2  0  0  0  0
  5  7  1  0  0  0  0
  2  3  1  0  0  0  0
  2  4  1  0  0  0  0
  2  5  1  0  0  0  0
  1  2  1  0  0  0  0
 17 18  2  0  0  0  0
 17 19  1  0  0  0  0
 14 15  1  0  0  0  0
 14 16  2  0  0  0  0
 11 12  1  0  0  0  0
 11 13  1  0  0  0  0
 11 14  1  0  0  0  0
  9 10  1  0  0  0  0
  9 11  1  0  0  0  0
  9 17  1  0  0  0  0
  7  8  1  0  0  0  0
  7  9  1  0  0  0  0
 21 22  1  0  0  0  0
 21 23  1  0  0  0  0
 21 24  1  0  0  0  0
 19 20  1  0  0  0  0
 19 21  1  0  0  0  0
M  CHG  1  15  -1
M  END
$$$$
default_name
  -OEChem-01062215323D

 24 23  0     1  0  0  0  0  0999 V2000
   -2.8347   -3.7166    0.8034 H   0  0  0  0  0  0  0  0  0  0  0  0
   -2.7728   -2.7096    0.3954 C   0  0  0  0  0  0  0  0  0  0  0  0
   -3.4267   -2.0426    0.9524 H   0  0  0  0  0  0  0  0  0  0  0  0
   -3.0538   -2.7186   -0.6556 H   0  0  0  0  0  0  0  0  0  0  0  0
   -1.3498   -2.2206    0.5184 C   0  0  0  0  0  0  0  0  0  0  0  0
   -0.4997   -2.9426    1.0194 O   0  0  0  0  0  0  0  0  0  0  0  0
   -1.1198   -0.9926    0.0674 N   0  0  0  0  0  0  0  0  0  0  0  0
   -1.8978   -0.4486   -0.2716 H   0  0  0  0  0  0  0  0  0  0  0  0
    0.1693   -0.2866    0.0854 C   0  0  1  0  0  0  0  0  0  0  0  0
    0.9183   -0.9233    0.5594 H   0  0  0  0  0  0  0  0  0  0  0  0
    0.6181   -0.0084   -1.3656 C   0  0  0  0  0  0  0  0  0  0  0  0
   -0.2021    0.4748   -1.8994 H   0  0  0  0  0  0  0  0  0  0  0  0
    1.4591    0.6882   -1.3464 H   0  0  0  0  0  0  0  0  0  0  0  0
    1.0161   -1.2614   -2.1613 C   0  0  0  0  0  0  0  0  0  0  0  0
    1.4816   -2.2443   -1.5376 O   0  5  0  0  0  0  0  0  0  0  0  0
    0.8673   -1.2169   -3.4014 O   0  0  0  0  0  0  0  0  0  0  0  0
    0.0419    1.0111    0.9166 C   0  0  0  0  0  0  0  0  0  0  0  0
   -0.3047    2.0689    0.3777 O   0  0  0  0  0  0  0  0  0  0  0  0
    0.3018    0.9419    2.2260 N   0  0  0  0  0  0  0  0  0  0  0  0
    0.6642    0.0471    2.5604 H   0  0  0  0  0  0  0  0  0  0  0  0
    0.2477    2.0656    3.1551 C   0  0  0  0  0  0  0  0  0  0  0  0
   -0.6566    2.6485    2.9753 H   0  0  0  0  0  0  0  0  0  0  0  0
    0.2465    1.6934    4.1792 H   0  0  0  0  0  0  0  0  0  0  0  0
    1.1194    2.7018    3.0006 H   0  0  0  0  0  0  0  0  0  0  0  0
  5  6  2  0  0  0  0
  5  7  1  0  0  0  0
  2  3  1  0  0  0  0
  2  4  1  0  0  0  0
  2  5  1  0  0  0  0
  1  2  1  0  0  0  0
 17 18  2  0  0  0  0
 17 19  1  0  0  0  0
 14 15  1  0  0  0  0
 14 16  2  0  0  0  0
 11 12  1  0  0  0  0
 11 13  1  0  0  0  0
 11 14  1  0  0  0  0
  9 10  1  0  0  0  0
  9 11  1  0  0  0  0
  9 17  1  0  0  0  0
  7  8  1  0  0  0  0
  7  9  1  0  0  0  0
 21 22  1  0  0  0  0
 21 23  1  0  0  0  0
 21 24  1  0  0  0  0
 19 20  1  0  0  0  0
 19 21  1  0  0  0  0
M  CHG  1  15  -1
M  END
$$$$
default_name
  -OEChem-01062215323D

 24 23  0     1  0  0  0  0  0999 V2000
   -2.8347   -3.7166    0.8034 H   0  0  0  0  0  0  0  0  0  0  0  0
   -2.7728   -2.7096    0.3954 C   0  0  0  0  0  0  0  0  0  0  0  0
   -3.4267   -2.0426    0.9524 H   0  0  0  0  0  0  0  0  0  0  0  0
   -3.0538   -2.7186   -0.6556 H   0  0  0  0  0  0  0  0  0  0  0  0
   -1.3498   -2.2206    0.5184 C   0  0  0  0  0  0  0  0  0  0  0  0
   -0.4997   -2.9426    1.0194 O   0  0  0  0  0  0  0  0  0  0  0  0
   -1.1198   -0.9926    0.0674 N   0  0  0  0  0  0  0  0  0  0  0  0
   -1.8978   -0.4486   -0.2716 H   0  0  0  0  0  0  0  0  0  0  0  0
    0.1693   -0.2866    0.0854 C   0  0  1  0  0  0  0  0  0  0  0  0
    0.9183   -0.9233    0.5594 H   0  0  0  0  0  0  0  0  0  0  0  0
    0.6181   -0.0084   -1.3656 C   0  0  0  0  0  0  0  0  0  0  0  0
   -0.2021    0.4748   -1.8994 H   0  0  0  0  0  0  0  0  0  0  0  0
    1.4591    0.6882   -1.3464 H   0  0  0  0  0  0  0  0  0  0  0  0
    1.0161   -1.2614   -2.1613 C   0  0  0  0  0  0  0  0  0  0  0  0
    1.4816   -2.2443   -1.5376 O   0  5  0  0  0  0  0  0  0  0  0  0
    0.8673   -1.2169   -3.4014 O   0  0  0  0  0  0  0  0  0  0  0  0
    0.0419    1.0111    0.9166 C   0  0  0  0  0  0  0  0  0  0  0  0
   -0.5588    1.9911    0.4602 O   0  0  0  0  0  0  0  0  0  0  0  0
    0.5852    1.0262    2.1378 N   0  0  0  0  0  0  0  0  0  0  0  0
    1.1341    0.2022    2.3902 H   0  0  0  0  0  0  0  0  0  0  0  0
    0.5744    2.1652    3.0495 C   0  0  0  0  0  0  0  0  0  0  0  0
   -0.4206    2.6120    3.0685 H   0  0  0  0  0  0  0  0  0  0  0  0
    0.8468    1.8342    4.0513 H   0  0  0  0  0  0  0  0  0  0  0  0
    1.2932    2.9086    2.7044 H   0  0  0  0  0  0  0  0  0  0  0  0
  5  6  2  0  0  0  0
  5  7  1  0  0  0  0
  2  3  1  0  0  0  0
  2  4  1  0  0  0  0
  2  5  1  0  0  0  0
  1  2  1  0  0  0  0
 17 18  2  0  0  0  0
 17 19  1  0  0  0  0
 14 15  1  0  0  0  0
 14 16  2  0  0  0  0
 11 12  1  0  0  0  0
 11 13  1  0  0  0  0
 11 14  1  0  0  0  0
  9 10  1  0  0  0  0
  9 11  1  0  0  0  0
  9 17  1  0  0  0  0
  7  8  1  0  0  0  0
  7  9  1  0  0  0  0
 21 22  1  0  0  0  0
 21 23  1  0  0  0  0
 21 24  1  0  0  0  0
 19 20  1  0  0  0  0
 19 21  1  0  0  0  0
M  CHG  1  15  -1
M  END
$$$$
default_name
  -OEChem-01062215323D

 24 23  0     1  0  0  0  0  0999 V2000
   -2.8347   -3.7166    0.8034 H   0  0  0  0  0  0  0  0  0  0  0  0
   -2.7728   -2.7096    0.3954 C   0  0  0  0  0  0  0  0  0  0  0  0
   -3.4267   -2.0426    0.9524 H   0  0  0  0  0  0  0  0  0  0  0  0
   -3.0538   -2.7186   -0.6556 H   0  0  0  0  0  0  0  0  0  0  0  0
   -1.3498   -2.2206    0.5184 C   0  0  0  0  0  0  0  0  0  0  0  0
   -0.4997   -2.9426    1.0194 O   0  0  0  0  0  0  0  0  0  0  0  0
   -1.1198   -0.9926    0.0674 N   0  0  0  0  0  0  0  0  0  0  0  0
   -1.8978   -0.4486   -0.2716 H   0  0  0  0  0  0  0  0  0  0  0  0
    0.1693   -0.2866    0.0854 C   0  0  1  0  0  0  0  0  0  0  0  0
    0.9183   -0.9233    0.5594 H   0  0  0  0  0  0  0  0  0  0  0  0
    0.6181   -0.0084   -1.3656 C   0  0  0  0  0  0  0  0  0  0  0  0
   -0.2021    0.4748   -1.8994 H   0  0  0  0  0  0  0  0  0  0  0  0
    1.4591    0.6882   -1.3464 H   0  0  0  0  0  0  0  0  0  0  0  0
    1.0161   -1.2614   -2.1613 C   0  0  0  0  0  0  0  0  0  0  0  0
    1.4816   -2.2443   -1.5376 O   0  5  0  0  0  0  0  0  0  0  0  0
    0.8673   -1.2169   -3.4014 O   0  0  0  0  0  0  0  0  0  0  0  0
    0.0419    1.0111    0.9166 C   0  0  0  0  0  0  0  0  0  0  0  0
   -0.7756    1.8823    0.5969 O   0  0  0  0  0  0  0  0  0  0  0  0
    0.8281    1.1452    1.9893 N   0  0  0  0  0  0  0  0  0  0  0  0
    1.5295    0.4138    2.1205 H   0  0  0  0  0  0  0  0  0  0  0  0
    0.8532    2.3047    2.8745 C   0  0  0  0  0  0  0  0  0  0  0  0
   -0.1672    2.6115    3.1080 H   0  0  0  0  0  0  0  0  0  0  0  0
    1.3793    2.0510    3.7945 H   0  0  0  0  0  0  0  0  0  0  0  0
    1.3681    3.1262    2.3761 H   0  0  0  0  0  0  0  0  0  0  0  0
  5  6  2  0  0  0  0
  5  7  1  0  0  0  0
  2  3  1  0  0  0  0
  2  4  1  0  0  0  0
  2  5  1  0  0  0  0
  1  2  1  0  0  0  0
 17 18  2  0  0  0  0
 17 19  1  0  0  0  0
 14 15  1  0  0  0  0
 14 16  2  0  0  0  0
 11 12  1  0  0  0  0
 11 13  1  0  0  0  0
 11 14  1  0  0  0  0
  9 10  1  0  0  0  0
  9 11  1  0  0  0  0
  9 17  1  0  0  0  0
  7  8  1  0  0  0  0
  7  9  1  0  0  0  0
 21 22  1  0  0  0  0
 21 23  1  0  0  0  0
 21 24  1  0  0  0  0
 19 20  1  0  0  0  0
 19 21  1  0  0  0  0
M  CHG  1  15  -1
M  END
$$$$
default_name
  -OEChem-01062215323D

 24 23  0     1  0  0  0  0  0999 V2000
   -2.8347   -3.7166    0.8034 H   0  0  0  0  0  0  0  0  0  0  0  0
   -2.7728   -2.7096    0.3954 C   0  0  0  0  0  0  0  0  0  0  0  0
   -3.4267   -2.0426    0.9524 H   0  0  0  0  0  0  0  0  0  0  0  0
   -3.0538   -2.7186   -0.6556 H   0  0  0  0  0  0  0  0  0  0  0  0
   -1.3498   -2.2206    0.5184 C   0  0  0  0  0  0  0  0  0  0  0  0
   -0.4997   -2.9426    1.0194 O   0  0  0  0  0  0  0  0  0  0  0  0
   -1.1198   -0.9926    0.0674 N   0  0  0  0  0  0  0  0  0  0  0  0
   -1.8978   -0.4486   -0.2716 H   0  0  0  0  0  0  0  0  0  0  0  0
    0.1693   -0.2866    0.0854 C   0  0  1  0  0  0  0  0  0  0  0  0
    0.9183   -0.9233    0.5594 H   0  0  0  0  0  0  0  0  0  0  0  0
    0.6181   -0.0084   -1.3656 C   0  0  0  0  0  0  0  0  0  0  0  0
   -0.2021    0.4748   -1.8994 H   0  0  0  0  0  0  0  0  0  0  0  0
    1.4591    0.6882   -1.3464 H   0  0  0  0  0  0  0  0  0  0  0  0
    1.0161   -1.2614   -2.1613 C   0  0  0  0  0  0  0  0  0  0  0  0
    1.4816   -2.2443   -1.5376 O   0  5  0  0  0  0  0  0  0  0  0  0
    0.8673   -1.2169   -3.4014 O   0  0  0  0  0  0  0  0  0  0  0  0
    0.0419    1.0111    0.9166 C   0  0  0  0  0  0  0  0  0  0  0  0
   -0.9401    1.7500    0.7782 O   0  0  0  0  0  0  0  0  0  0  0  0
    1.0139    1.2907    1.7906 N   0  0  0  0  0  0  0  0  0  0  0  0
    1.8233    0.6674    1.7695 H   0  0  0  0  0  0  0  0  0  0  0  0
    1.0650    2.4744    2.6420 C   0  0  0  0  0  0  0  0  0  0  0  0
    0.0861    2.6472    3.0911 H   0  0  0  0  0  0  0  0  0  0  0  0
    1.8077    2.3290    3.4260 H   0  0  0  0  0  0  0  0  0  0  0  0
    1.3388    3.3398    2.0381 H   0  0  0  0  0  0  0  0  0  0  0  0
  5  6  2  0  0  0  0
  5  7  1  0  0  0  0
  2  3  1  0  0  0  0
  2  4  1  0  0  0  0
  2  5  1  0  0  0  0
  1  2  1  0  0  0  0
 17 18  2  0  0  0  0
 17 19  1  0  0  0  0
 14 15  1  0  0  0  0
 14 16  2  0  0  0  0
 11 12  1  0  0  0  0
 11 13  1  0  0  0  0
 11 14  1  0  0  0  0
  9 10  1  0  0  0  0
  9 11  1  0  0  0  0
  9 17  1  0  0  0  0
  7  8  1  0  0  0  0
  7  9  1  0  0  0  0
 21 22  1  0  0  0  0
 21 23  1  0  0  0  0
 21 24  1  0  0  0  0
 19 20  1  0  0  0  0
 19 21  1  0  0  0  0
M  CHG  1  15  -1
M  END
$$$$
default_name
  -OEChem-01062215323D

 24 23  0     1  0  0  0  0  0999 V2000
   -2.8347   -3.7166    0.8034 H   0  0  0  0  0  0  0  0  0  0  0  0
   -2.7728   -2.7096    0.3954 C   0  0  0  0  0  0  0  0  0  0  0  0
   -3.4267   -2.0426    0.9524 H   0  0  0  0  0  0  0  0  0  0  0  0
   -3.0538   -2.7186   -0.6556 H   0  0  0  0  0  0  0  0  0  0  0  0
   -1.3498   -2.2206    0.5184 C   0  0  0  0  0  0  0  0  0  0  0  0
   -0.4997   -2.9426    1.0194 O   0  0  0  0  0  0  0  0  0  0  0  0
   -1.1198   -0.9926    0.0674 N   0  0  0  0  0  0  0  0  0  0  0  0
   -1.8978   -0.4486   -0.2716 H   0  0  0  0  0  0  0  0  0  0  0  0
    0.1693   -0.2866    0.0854 C   0  0  1  0  0  0  0  0  0  0  0  0
    0.9183   -0.9233    0.5594 H   0  0  0  0  0  0  0  0  0  0  0  0
    0.6181   -0.0084   -1.3656 C   0  0  0  0  0  0  0  0  0  0  0  0
   -0.2021    0.4748   -1.8994 H   0  0  0  0  0  0  0  0  0  0  0  0
    1.4591    0.6882   -1.3464 H   0  0  0  0  0  0  0  0  0  0  0  0
    1.0161   -1.2614   -2.1613 C   0  0  0  0  0  0  0  0  0  0  0  0
    1.4816   -2.2443   -1.5376 O   0  5  0  0  0  0  0  0  0  0  0  0
    0.8673   -1.2169   -3.4014 O   0  0  0  0  0  0  0  0  0  0  0  0
    0.0419    1.0111    0.9166 C   0  0  0  0  0  0  0  0  0  0  0  0
   -1.0413    1.6032    0.9920 O   0  0  0  0  0  0  0  0  0  0  0  0
    1.1300    1.4529    1.5551 N   0  0  0  0  0  0  0  0  0  0  0  0
    1.9956    0.9458    1.3612 H   0  0  0  0  0  0  0  0  0  0  0  0
    1.1956    2.6629    2.3677 C   0  0  0  0  0  0  0  0  0  0  0  0
    0.3222    2.7165    3.0190 H   0  0  0  0  0  0  0  0  0  0  0  0
    2.1028    2.6493    2.9712 H   0  0  0  0  0  0  0  0  0  0  0  0
    1.2074    3.5348    1.7134 H   0  0  0  0  0  0  0  0  0  0  0  0
  5  6  2  0  0  0  0
  5  7  1  0  0  0  0
  2  3  1  0  0  0  0
  2  4  1  0  0  0  0
  2  5  1  0  0  0  0
  1  2  1  0  0  0  0
 17 18  2  0  0  0  0
 17 19  1  0  0  0  0
 14 15  1  0  0  0  0
 14 16  2  0  0  0  0
 11 12  1  0  0  0  0
 11 13  1  0  0  0  0
 11 14  1  0  0  0  0
  9 10  1  0  0  0  0
  9 11  1  0  0  0  0
  9 17  1  0  0  0  0
  7  8  1  0  0  0  0
  7  9  1  0  0  0  0
 21 22  1  0  0  0  0
 21 23  1  0  0  0  0
 21 24  1  0  0  0  0
 19 20  1  0  0  0  0
 19 21  1  0  0  0  0
M  CHG  1  15  -1
M  END
$$$$
default_name
  -OEChem-01062215323D

 24 23  0     1  0  0  0  0  0999 V2000
   -2.8347   -3.7166    0.8034 H   0  0  0  0  0  0  0  0  0  0  0  0
   -2.7728   -2.7096    0.3954 C   0  0  0  0  0  0  0  0  0  0  0  0
   -3.4267   -2.0426    0.9524 H   0  0  0  0  0  0  0  0  0  0  0  0
   -3.0538   -2.7186   -0.6556 H   0  0  0  0  0  0  0  0  0  0  0  0
   -1.3498   -2.2206    0.5184 C   0  0  0  0  0  0  0  0  0  0  0  0
   -0.4997   -2.9426    1.0194 O   0  0  0  0  0  0  0  0  0  0  0  0
   -1.1198   -0.9926    0.0674 N   0  0  0  0  0  0  0  0  0  0  0  0
   -1.8978   -0.4486   -0.2716 H   0  0  0  0  0  0  0  0  0  0  0  0
    0.1693   -0.2866    0.0854 C   0  0  1  0  0  0  0  0  0  0  0  0
    0.9183   -0.9233    0.5594 H   0  0  0  0  0  0  0  0  0  0  0  0
    0.6181   -0.0084   -1.3656 C   0  0  0  0  0  0  0  0  0  0  0  0
   -0.2021    0.4748   -1.8994 H   0  0  0  0  0  0  0  0  0  0  0  0
    1.4591    0.6882   -1.3464 H   0  0  0  0  0  0  0  0  0  0  0  0
    1.0161   -1.2614   -2.1613 C   0  0  0  0  0  0  0  0  0  0  0  0
    1.4816   -2.2443   -1.5376 O   0  5  0  0  0  0  0  0  0  0  0  0
    0.8673   -1.2169   -3.4014 O   0  0  0  0  0  0  0  0  0  0  0  0
    0.0419    1.0111    0.9166 C   0  0  0  0  0  0  0  0  0  0  0  0
   -1.0721    1.4519    1.2235 O   0  0  0  0  0  0  0  0  0  0  0  0
    1.1684    1.6206    1.2991 N   0  0  0  0  0  0  0  0  0  0  0  0
    2.0346    1.2300    0.9235 H   0  0  0  0  0  0  0  0  0  0  0  0
    1.2359    2.8573    2.0704 C   0  0  0  0  0  0  0  0  0  0  0  0
    0.5250    2.8148    2.8966 H   0  0  0  0  0  0  0  0  0  0  0  0
    2.2444    2.9900    2.4609 H   0  0  0  0  0  0  0  0  0  0  0  0
    0.9828    3.6980    1.4242 H   0  0  0  0  0  0  0  0  0  0  0  0
  5  6  2  0  0  0  0
  5  7  1  0  0  0  0
  2  3  1  0  0  0  0
  2  4  1  0  0  0  0
  2  5  1  0  0  0  0
  1  2  1  0  0  0  0
 17 18  2  0  0  0  0
 17 19  1  0  0  0  0
 14 15  1  0  0  0  0
 14 16  2  0  0  0  0
 11 12  1  0  0  0  0
 11 13  1  0  0  0  0
 11 14  1  0  0  0  0
  9 10  1  0  0  0  0
  9 11  1  0  0  0  0
  9 17  1  0  0  0  0
  7  8  1  0  0  0  0
  7  9  1  0  0  0  0
 21 22  1  0  0  0  0
 21 23  1  0  0  0  0
 21 24  1  0  0  0  0
 19 20  1  0  0  0  0
 19 21  1  0  0  0  0
M  CHG  1  15  -1
M  END
$$$$
default_name
  -OEChem-01062215323D

 24 23  0     1  0  0  0  0  0999 V2000
   -2.8347   -3.7166    0.8034 H   0  0  0  0  0  0  0  0  0  0  0  0
   -2.7728   -2.7096    0.3954 C   0  0  0  0  0  0  0  0  0  0  0  0
   -3.4267   -2.0426    0.9524 H   0  0  0  0  0  0  0  0  0  0  0  0
   -3.0538   -2.7186   -0.6556 H   0  0  0  0  0  0  0  0  0  0  0  0
   -1.3498   -2.2206    0.5184 C   0  0  0  0  0  0  0  0  0  0  0  0
   -0.4997   -2.9426    1.0194 O   0  0  0  0  0  0  0  0  0  0  0  0
   -1.1198   -0.9926    0.0674 N   0  0  0  0  0  0  0  0  0  0  0  0
   -1.8978   -0.4486   -0.2716 H   0  0  0  0  0  0  0  0  0  0  0  0
    0.1693   -0.2866    0.0854 C   0  0  1  0  0  0  0  0  0  0  0  0
    0.9644   -1.0010    0.3058 H   0  0  0  0  0  0  0  0  0  0  0  0
    0.4368    0.3212   -1.3086 C   0  0  0  0  0  0  0  0  0  0  0  0
   -0.4381    0.8984   -1.6128 H   0  0  0  0  0  0  0  0  0  0  0  0
    1.2813    1.0099   -1.2360 H   0  0  0  0  0  0  0  0  0  0  0  0
    0.7184   -0.7115   -2.4112 C   0  0  0  0  0  0  0  0  0  0  0  0
    1.2470   -1.8019   -2.0898 O   0  5  0  0  0  0  0  0  0  0  0  0
    0.4166   -0.3895   -3.5805 O   0  0  0  0  0  0  0  0  0  0  0  0
    0.1611    0.7864    1.1989 C   0  0  0  0  0  0  0  0  0  0  0  0
   -0.8323    0.9325    1.9210 O   0  0  0  0  0  0  0  0  0  0  0  0
    1.2611    1.5287    1.3587 N   0  0  0  0  0  0  0  0  0  0  0  0
    1.9938    1.3938    0.6594 H   0  0  0  0  0  0  0  0  0  0  0  0
    1.4225    2.5926    2.3440 C   0  0  0  0  0  0  0  0  0  0  0  0
    1.0426    2.2596    3.3107 H   0  0  0  0  0  0  0  0  0  0  0  0
    2.4773    2.8508    2.4338 H   0  0  0  0  0  0  0  0  0  0  0  0
    0.8599    3.4691    2.0217 H   0  0  0  0  0  0  0  0  0  0  0  0
  5  6  2  0  0  0  0
  5  7  1  0  0  0  0
  2  3  1  0  0  0  0
  2  4  1  0  0  0  0
  2  5  1  0  0  0  0
  1  2  1  0  0  0  0
 17 18  2  0  0  0  0
 17 19  1  0  0  0  0
 14 15  1  0  0  0  0
 14 16  2  0  0  0  0
 11 12  1  0  0  0  0
 11 13  1  0  0  0  0
 11 14  1  0  0  0  0
  9 10  1  0  0  0  0
  9 11  1  0  0  0  0
  9 17  1  0  0  0  0
  7  8  1  0  0  0  0
  7  9  1  0  0  0  0
 21 22  1  0  0  0  0
 21 23  1  0  0  0  0
 21 24  1  0  0  0  0
 19 20  1  0  0  0  0
 19 21  1  0  0  0  0
M  CHG  1  15  -1
M  END
$$$$
default_name
  -OEChem-01062215323D

 24 23  0     1  0  0  0  0  0999 V2000
   -2.8347   -3.7166    0.8034 H   0  0  0  0  0  0  0  0  0  0  0  0
   -2.7728   -2.7096    0.3954 C   0  0  0  0  0  0  0  0  0  0  0  0
   -3.4267   -2.0426    0.9524 H   0  0  0  0  0  0  0  0  0  0  0  0
   -3.0538   -2.7186   -0.6556 H   0  0  0  0  0  0  0  0  0  0  0  0
   -1.3498   -2.2206    0.5184 C   0  0  0  0  0  0  0  0  0  0  0  0
   -0.4997   -2.9426    1.0194 O   0  0  0  0  0  0  0  0  0  0  0  0
   -1.1198   -0.9926    0.0674 N   0  0  0  0  0  0  0  0  0  0  0  0
   -1.8978   -0.4486   -0.2716 H   0  0  0  0  0  0  0  0  0  0  0  0
    0.1693   -0.2866    0.0854 C   0  0  1  0  0  0  0  0  0  0  0  0
    0.9644   -1.0010    0.3058 H   0  0  0  0  0  0  0  0  0  0  0  0
    0.4368    0.3212   -1.3086 C   0  0  0  0  0  0  0  0  0  0  0  0
   -0.4381    0.8984   -1.6128 H   0  0  0  0  0  0  0  0  0  0  0  0
    1.2813    1.0099   -1.2360 H   0  0  0  0  0  0  0  0  0  0  0  0
    0.7184   -0.7115   -2.4112 C   0  0  0  0  0  0  0  0  0  0  0  0
    1.2470   -1.8019   -2.0898 O   0  5  0  0  0  0  0  0  0  0  0  0
    0.4166   -0.3895   -3.5805 O   0  0  0  0  0  0  0  0  0  0  0  0
    0.1611    0.7864    1.1989 C   0  0  0  0  0  0  0  0  0  0  0  0
   -0.6961    0.7582    2.0900 O   0  0  0  0  0  0  0  0  0  0  0  0
    1.1139    1.7234    1.1700 N   0  0  0  0  0  0  0  0  0  0  0  0
    1.7212    1.7145    0.3483 H   0  0  0  0  0  0  0  0  0  0  0  0
    1.2482    2.8167    2.1267 C   0  0  0  0  0  0  0  0  0  0  0  0
    1.1168    2.4366    3.1407 H   0  0  0  0  0  0  0  0  0  0  0  0
    2.2350    3.2685    2.0295 H   0  0  0  0  0  0  0  0  0  0  0  0
    0.4835    3.5670    1.9246 H   0  0  0  0  0  0  0  0  0  0  0  0
  5  6  2  0  0  0  0
  5  7  1  0  0  0  0
  2  3  1  0  0  0  0
  2  4  1  0  0  0  0
  2  5  1  0  0  0  0
  1  2  1  0  0  0  0
 17 18  2  0  0  0  0
 17 19  1  0  0  0  0
 14 15  1  0  0  0  0
 14 16  2  0  0  0  0
 11 12  1  0  0  0  0
 11 13  1  0  0  0  0
 11 14  1  0  0  0  0
  9 10  1  0  0  0  0
  9 11  1  0  0  0  0
  9 17  1  0  0  0  0
  7  8  1  0  0  0  0
  7  9  1  0  0  0  0
 21 22  1  0  0  0  0
 21 23  1  0  0  0  0
 21 24  1  0  0  0  0
 19 20  1  0  0  0  0
 19 21  1  0  0  0  0
M  CHG  1  15  -1
M  END
$$$$
default_name
  -OEChem-01062215323D

 24 23  0     1  0  0  0  0  0999 V2000
   -2.8347   -3.7166    0.8034 H   0  0  0  0  0  0  0  0  0  0  0  0
   -2.7728   -2.7096    0.3954 C   0  0  0  0  0  0  0  0  0  0  0  0
   -3.4267   -2.0426    0.9524 H   0  0  0  0  0  0  0  0  0  0  0  0
   -3.0538   -2.7186   -0.6556 H   0  0  0  0  0  0  0  0  0  0  0  0
   -1.3498   -2.2206    0.5184 C   0  0  0  0  0  0  0  0  0  0  0  0
   -0.4997   -2.9426    1.0194 O   0  0  0  0  0  0  0  0  0  0  0  0
   -1.1198   -0.9926    0.0674 N   0  0  0  0  0  0  0  0  0  0  0  0
   -1.8978   -0.4486   -0.2716 H   0  0  0  0  0  0  0  0  0  0  0  0
    0.1693   -0.2866    0.0854 C   0  0  1  0  0  0  0  0  0  0  0  0
    0.9644   -1.0010    0.3058 H   0  0  0  0  0  0  0  0  0  0  0  0
    0.4368    0.3212   -1.3086 C   0  0  0  0  0  0  0  0  0  0  0  0
   -0.4381    0.8984   -1.6128 H   0  0  0  0  0  0  0  0  0  0  0  0
    1.2813    1.0099   -1.2360 H   0  0  0  0  0  0  0  0  0  0  0  0
    0.7184   -0.7115   -2.4112 C   0  0  0  0  0  0  0  0  0  0  0  0
    1.2470   -1.8019   -2.0898 O   0  5  0  0  0  0  0  0  0  0  0  0
    0.4166   -0.3895   -3.5805 O   0  0  0  0  0  0  0  0  0  0  0  0
    0.1611    0.7864    1.1989 C   0  0  0  0  0  0  0  0  0  0  0  0
   -0.5017    0.6154    2.2290 O   0  0  0  0  0  0  0  0  0  0  0  0
    0.9015    1.8838    1.0139 N   0  0  0  0  0  0  0  0  0  0  0  0
    1.3424    1.9730    0.0964 H   0  0  0  0  0  0  0  0  0  0  0  0
    0.9990    3.0004    1.9479 C   0  0  0  0  0  0  0  0  0  0  0  0
    1.1250    2.6211    2.9629 H   0  0  0  0  0  0  0  0  0  0  0  0
    1.8505    3.6261    1.6820 H   0  0  0  0  0  0  0  0  0  0  0  0
    0.0842    3.5912    1.8983 H   0  0  0  0  0  0  0  0  0  0  0  0
  5  6  2  0  0  0  0
  5  7  1  0  0  0  0
  2  3  1  0  0  0  0
  2  4  1  0  0  0  0
  2  5  1  0  0  0  0
  1  2  1  0  0  0  0
 17 18  2  0  0  0  0
 17 19  1  0  0  0  0
 14 15  1  0  0  0  0
 14 16  2  0  0  0  0
 11 12  1  0  0  0  0
 11 13  1  0  0  0  0
 11 14  1  0  0  0  0
  9 10  1  0  0  0  0
  9 11  1  0  0  0  0
  9 17  1  0  0  0  0
  7  8  1  0  0  0  0
  7  9  1  0  0  0  0
 21 22  1  0  0  0  0
 21 23  1  0  0  0  0
 21 24  1  0  0  0  0
 19 20  1  0  0  0  0
 19 21  1  0  0  0  0
M  CHG  1  15  -1
M  END
$$$$
default_name
  -OEChem-01062215323D

 24 23  0     1  0  0  0  0  0999 V2000
   -2.8347   -3.7166    0.8034 H   0  0  0  0  0  0  0  0  0  0  0  0
   -2.7728   -2.7096    0.3954 C   0  0  0  0  0  0  0  0  0  0  0  0
   -3.4267   -2.0426    0.9524 H   0  0  0  0  0  0  0  0  0  0  0  0
   -3.0538   -2.7186   -0.6556 H   0  0  0  0  0  0  0  0  0  0  0  0
   -1.3498   -2.2206    0.5184 C   0  0  0  0  0  0  0  0  0  0  0  0
   -0.4997   -2.9426    1.0194 O   0  0  0  0  0  0  0  0  0  0  0  0
   -1.1198   -0.9926    0.0674 N   0  0  0  0  0  0  0  0  0  0  0  0
   -1.8978   -0.4486   -0.2716 H   0  0  0  0  0  0  0  0  0  0  0  0
    0.1693   -0.2866    0.0854 C   0  0  1  0  0  0  0  0  0  0  0  0
    0.9644   -1.0010    0.3058 H   0  0  0  0  0  0  0  0  0  0  0  0
    0.4368    0.3212   -1.3086 C   0  0  0  0  0  0  0  0  0  0  0  0
   -0.4381    0.8984   -1.6128 H   0  0  0  0  0  0  0  0  0  0  0  0
    1.2813    1.0099   -1.2360 H   0  0  0  0  0  0  0  0  0  0  0  0
    0.7184   -0.7115   -2.4112 C   0  0  0  0  0  0  0  0  0  0  0  0
    1.2470   -1.8019   -2.0898 O   0  5  0  0  0  0  0  0  0  0  0  0
    0.4166   -0.3895   -3.5805 O   0  0  0  0  0  0  0  0  0  0  0  0
    0.1611    0.7864    1.1989 C   0  0  0  0  0  0  0  0  0  0  0  0
   -0.2623    0.5140    2.3285 O   0  0  0  0  0  0  0  0  0  0  0  0
    0.6384    1.9989    0.9010 N   0  0  0  0  0  0  0  0  0  0  0  0
    0.8830    2.1517   -0.0792 H   0  0  0  0  0  0  0  0  0  0  0  0
    0.6920    3.1311    1.8197 C   0  0  0  0  0  0  0  0  0  0  0  0
    1.0665    2.8007    2.7894 H   0  0  0  0  0  0  0  0  0  0  0  0
    1.3501    3.8995    1.4149 H   0  0  0  0  0  0  0  0  0  0  0  0
   -0.3107    3.5402    1.9445 H   0  0  0  0  0  0  0  0  0  0  0  0
  5  6  2  0  0  0  0
  5  7  1  0  0  0  0
  2  3  1  0  0  0  0
  2  4  1  0  0  0  0
  2  5  1  0  0  0  0
  1  2  1  0  0  0  0
 17 18  2  0  0  0  0
 17 19  1  0  0  0  0
 14 15  1  0  0  0  0
 14 16  2  0  0  0  0
 11 12  1  0  0  0  0
 11 13  1  0  0  0  0
 11 14  1  0  0  0  0
  9 10  1  0  0  0  0
  9 11  1  0  0  0  0
  9 17  1  0  0  0  0
  7  8  1  0  0  0  0
  7  9  1  0  0  0  0
 21 22  1  0  0  0  0
 21 23  1  0  0  0  0
 21 24  1  0  0  0  0
 19 20  1  0  0  0  0
 19 21  1  0  0  0  0
M  CHG  1  15  -1
M  END
$$$$
default_name
  -OEChem-01062215323D

 24 23  0     1  0  0  0  0  0999 V2000
   -2.8347   -3.7166    0.8034 H   0  0  0  0  0  0  0  0  0  0  0  0
   -2.7728   -2.7096    0.3954 C   0  0  0  0  0  0  0  0  0  0  0  0
   -3.4267   -2.0426    0.9524 H   0  0  0  0  0  0  0  0  0  0  0  0
   -3.0538   -2.7186   -0.6556 H   0  0  0  0  0  0  0  0  0  0  0  0
   -1.3498   -2.2206    0.5184 C   0  0  0  0  0  0  0  0  0  0  0  0
   -0.4997   -2.9426    1.0194 O   0  0  0  0  0  0  0  0  0  0  0  0
   -1.1198   -0.9926    0.0674 N   0  0  0  0  0  0  0  0  0  0  0  0
   -1.8978   -0.4486   -0.2716 H   0  0  0  0  0  0  0  0  0  0  0  0
    0.1693   -0.2866    0.0854 C   0  0  1  0  0  0  0  0  0  0  0  0
    0.9644   -1.0010    0.3058 H   0  0  0  0  0  0  0  0  0  0  0  0
    0.4368    0.3212   -1.3086 C   0  0  0  0  0  0  0  0  0  0  0  0
   -0.4381    0.8984   -1.6128 H   0  0  0  0  0  0  0  0  0  0  0  0
    1.2813    1.0099   -1.2360 H   0  0  0  0  0  0  0  0  0  0  0  0
    0.7184   -0.7115   -2.4112 C   0  0  0  0  0  0  0  0  0  0  0  0
    1.2470   -1.8019   -2.0898 O   0  5  0  0  0  0  0  0  0  0  0  0
    0.4166   -0.3895   -3.5805 O   0  0  0  0  0  0  0  0  0  0  0  0
    0.1611    0.7864    1.1989 C   0  0  0  0  0  0  0  0  0  0  0  0
    0.0056    0.4607    2.3818 O   0  0  0  0  0  0  0  0  0  0  0  0
    0.3426    2.0609    0.8391 N   0  0  0  0  0  0  0  0  0  0  0  0
    0.3744    2.2386   -0.1666 H   0  0  0  0  0  0  0  0  0  0  0  0
    0.3481    3.2000    1.7508 C   0  0  0  0  0  0  0  0  0  0  0  0
    0.9455    2.9630    2.6321 H   0  0  0  0  0  0  0  0  0  0  0  0
    0.7678    4.0699    1.2464 H   0  0  0  0  0  0  0  0  0  0  0  0
   -0.6744    3.4174    2.0602 H   0  0  0  0  0  0  0  0  0  0  0  0
  5  6  2  0  0  0  0
  5  7  1  0  0  0  0
  2  3  1  0  0  0  0
  2  4  1  0  0  0  0
  2  5  1  0  0  0  0
  1  2  1  0  0  0  0
 17 18  2  0  0  0  0
 17 19  1  0  0  0  0
 14 15  1  0  0  0  0
 14 16  2  0  0  0  0
 11 12  1  0  0  0  0
 11 13  1  0  0  0  0
 11 14  1  0  0  0  0
  9 10  1  0  0  0  0
  9 11  1  0  0  0  0
  9 17  1  0  0  0  0
  7  8  1  0  0  0  0
  7  9  1  0  0  0  0
 21 22  1  0  0  0  0
 21 23  1  0  0  0  0
 21 24  1  0  0  0  0
 19 20  1  0  0  0  0
 19 21  1  0  0  0  0
M  CHG  1  15  -1
M  END
$$$$
default_name
  -OEChem-01062215323D

 24 23  0     1  0  0  0  0  0999 V2000
   -2.8347   -3.7166    0.8034 H   0  0  0  0  0  0  0  0  0  0  0  0
   -2.7728   -2.7096    0.3954 C   0  0  0  0  0  0  0  0  0  0  0  0
   -3.4267   -2.0426    0.9524 H   0  0  0  0  0  0  0  0  0  0  0  0
   -3.0538   -2.7186   -0.6556 H   0  0  0  0  0  0  0  0  0  0  0  0
   -1.3498   -2.2206    0.5184 C   0  0  0  0  0  0  0  0  0  0  0  0
   -0.4997   -2.9426    1.0194 O   0  0  0  0  0  0  0  0  0  0  0  0
   -1.1198   -0.9926    0.0674 N   0  0  0  0  0  0  0  0  0  0  0  0
   -1.8978   -0.4486   -0.2716 H   0  0  0  0  0  0  0  0  0  0  0  0
    0.1693   -0.2866    0.0854 C   0  0  1  0  0  0  0  0  0  0  0  0
    0.9644   -1.0010    0.3058 H   0  0  0  0  0  0  0  0  0  0  0  0
    0.4368    0.3212   -1.3086 C   0  0  0  0  0  0  0  0  0  0  0  0
   -0.4381    0.8984   -1.6128 H   0  0  0  0  0  0  0  0  0  0  0  0
    1.2813    1.0099   -1.2360 H   0  0  0  0  0  0  0  0  0  0  0  0
    0.7184   -0.7115   -2.4112 C   0  0  0  0  0  0  0  0  0  0  0  0
    1.2470   -1.8019   -2.0898 O   0  5  0  0  0  0  0  0  0  0  0  0
    0.4166   -0.3895   -3.5805 O   0  0  0  0  0  0  0  0  0  0  0  0
    0.1611    0.7864    1.1989 C   0  0  0  0  0  0  0  0  0  0  0  0
    0.2839    0.4593    2.3852 O   0  0  0  0  0  0  0  0  0  0  0  0
    0.0342    2.0655    0.8323 N   0  0  0  0  0  0  0  0  0  0  0  0
   -0.1488    2.2275   -0.1598 H   0  0  0  0  0  0  0  0  0  0  0  0
   -0.0094    3.2023    1.7459 C   0  0  0  0  0  0  0  0  0  0  0  0
    0.7700    3.0970    2.5017 H   0  0  0  0  0  0  0  0  0  0  0  0
    0.1433    4.1258    1.1880 H   0  0  0  0  0  0  0  0  0  0  0  0
   -0.9820    3.2312    2.2374 H   0  0  0  0  0  0  0  0  0  0  0  0
  5  6  2  0  0  0  0
  5  7  1  0  0  0  0
  2  3  1  0  0  0  0
  2  4  1  0  0  0  0
  2  5  1  0  0  0  0
  1  2  1  0  0  0  0
 17 18  2  0  0  0  0
 17 19  1  0  0  0  0
 14 15  1  0  0  0  0
 14 16  2  0  0  0  0
 11 12  1  0  0  0  0
 11 13  1  0  0  0  0
 11 14  1  0  0  0  0
  9 10  1  0  0  0  0
  9 11  1  0  0  0  0
  9 17  1  0  0  0  0
  7  8  1  0  0  0  0
  7  9  1  0  0  0  0
 21 22  1  0  0  0  0
 21 23  1  0  0  0  0
 21 24  1  0  0  0  0
 19 20  1  0  0  0  0
 19 21  1  0  0  0  0
M  CHG  1  15  -1
M  END
$$$$
default_name
  -OEChem-01062215323D

 24 23  0     1  0  0  0  0  0999 V2000
   -2.8347   -3.7166    0.8034 H   0  0  0  0  0  0  0  0  0  0  0  0
   -2.7728   -2.7096    0.3954 C   0  0  0  0  0  0  0  0  0  0  0  0
   -3.4267   -2.0426    0.9524 H   0  0  0  0  0  0  0  0  0  0  0  0
   -3.0538   -2.7186   -0.6556 H   0  0  0  0  0  0  0  0  0  0  0  0
   -1.3498   -2.2206    0.5184 C   0  0  0  0  0  0  0  0  0  0  0  0
   -0.4997   -2.9426    1.0194 O   0  0  0  0  0  0  0  0  0  0  0  0
   -1.1198   -0.9926    0.0674 N   0  0  0  0  0  0  0  0  0  0  0  0
   -1.8978   -0.4486   -0.2716 H   0  0  0  0  0  0  0  0  0  0  0  0
    0.1693   -0.2866    0.0854 C   0  0  1  0  0  0  0  0  0  0  0  0
    0.9644   -1.0010    0.3058 H   0  0  0  0  0  0  0  0  0  0  0  0
    0.4368    0.3212   -1.3086 C   0  0  0  0  0  0  0  0  0  0  0  0
   -0.4381    0.8984   -1.6128 H   0  0  0  0  0  0  0  0  0  0  0  0
    1.2813    1.0099   -1.2360 H   0  0  0  0  0  0  0  0  0  0  0  0
    0.7184   -0.7115   -2.4112 C   0  0  0  0  0  0  0  0  0  0  0  0
    1.2470   -1.8019   -2.0898 O   0  5  0  0  0  0  0  0  0  0  0  0
    0.4166   -0.3895   -3.5805 O   0  0  0  0  0  0  0  0  0  0  0  0
    0.1611    0.7864    1.1989 C   0  0  0  0  0  0  0  0  0  0  0  0
    0.5536    0.5098    2.3386 O   0  0  0  0  0  0  0  0  0  0  0  0
   -0.2659    2.0126    0.8812 N   0  0  0  0  0  0  0  0  0  0  0  0
   -0.6508    2.1194   -0.0593 H   0  0  0  0  0  0  0  0  0  0  0  0
   -0.3559    3.1379    1.8054 C   0  0  0  0  0  0  0  0  0  0  0  0
    0.5522    3.1935    2.4070 H   0  0  0  0  0  0  0  0  0  0  0  0
   -0.4808    4.0633    1.2436 H   0  0  0  0  0  0  0  0  0  0  0  0
   -1.2126    2.9942    2.4641 H   0  0  0  0  0  0  0  0  0  0  0  0
  5  6  2  0  0  0  0
  5  7  1  0  0  0  0
  2  3  1  0  0  0  0
  2  4  1  0  0  0  0
  2  5  1  0  0  0  0
  1  2  1  0  0  0  0
 17 18  2  0  0  0  0
 17 19  1  0  0  0  0
 14 15  1  0  0  0  0
 14 16  2  0  0  0  0
 11 12  1  0  0  0  0
 11 13  1  0  0  0  0
 11 14  1  0  0  0  0
  9 10  1  0  0  0  0
  9 11  1  0  0  0  0
  9 17  1  0  0  0  0
  7  8  1  0  0  0  0
  7  9  1  0  0  0  0
 21 22  1  0  0  0  0
 21 23  1  0  0  0  0
 21 24  1  0  0  0  0
 19 20  1  0  0  0  0
 19 21  1  0  0  0  0
M  CHG  1  15  -1
M  END
$$$$
default_name
  -OEChem-01062215323D

 24 23  0     1  0  0  0  0  0999 V2000
   -2.8347   -3.7166    0.8034 H   0  0  0  0  0  0  0  0  0  0  0  0
   -2.7728   -2.7096    0.3954 C   0  0  0  0  0  0  0  0  0  0  0  0
   -3.4267   -2.0426    0.9524 H   0  0  0  0  0  0  0  0  0  0  0  0
   -3.0538   -2.7186   -0.6556 H   0  0  0  0  0  0  0  0  0  0  0  0
   -1.3498   -2.2206    0.5184 C   0  0  0  0  0  0  0  0  0  0  0  0
   -0.4997   -2.9426    1.0194 O   0  0  0  0  0  0  0  0  0  0  0  0
   -1.1198   -0.9926    0.0674 N   0  0  0  0  0  0  0  0  0  0  0  0
   -1.8978   -0.4486   -0.2716 H   0  0  0  0  0  0  0  0  0  0  0  0
    0.1693   -0.2866    0.0854 C   0  0  1  0  0  0  0  0  0  0  0  0
    0.9644   -1.0010    0.3058 H   0  0  0  0  0  0  0  0  0  0  0  0
    0.4368    0.3212   -1.3086 C   0  0  0  0  0  0  0  0  0  0  0  0
   -0.4381    0.8984   -1.6128 H   0  0  0  0  0  0  0  0  0  0  0  0
    1.2813    1.0099   -1.2360 H   0  0  0  0  0  0  0  0  0  0  0  0
    0.7184   -0.7115   -2.4112 C   0  0  0  0  0  0  0  0  0  0  0  0
    1.2470   -1.8019   -2.0898 O   0  5  0  0  0  0  0  0  0  0  0  0
    0.4166   -0.3895   -3.5805 O   0  0  0  0  0  0  0  0  0  0  0  0
    0.1611    0.7864    1.1989 C   0  0  0  0  0  0  0  0  0  0  0  0
    0.7964    0.6087    2.2450 O   0  0  0  0  0  0  0  0  0  0  0  0
   -0.5370    1.9056    0.9823 N   0  0  0  0  0  0  0  0  0  0  0  0
   -1.0975    1.9215    0.1281 H   0  0  0  0  0  0  0  0  0  0  0  0
   -0.6680    3.0113    1.9251 C   0  0  0  0  0  0  0  0  0  0  0  0
    0.3068    3.2461    2.3546 H   0  0  0  0  0  0  0  0  0  0  0  0
   -1.0620    3.8867    1.4095 H   0  0  0  0  0  0  0  0  0  0  0  0
   -1.3505    2.7226    2.7248 H   0  0  0  0  0  0  0  0  0  0  0  0
  5  6  2  0  0  0  0
  5  7  1  0  0  0  0
  2  3  1  0  0  0  0
  2  4  1  0  0  0  0
  2  5  1  0  0  0  0
  1  2  1  0  0  0  0
 17 18  2  0  0  0  0
 17 19  1  0  0  0  0
 14 15  1  0  0  0  0
 14 16  2  0  0  0  0
 11 12  1  0  0  0  0
 11 13  1  0  0  0  0
 11 14  1  0  0  0  0
  9 10  1  0  0  0  0
  9 11  1  0  0  0  0
  9 17  1  0  0  0  0
  7  8  1  0  0  0  0
  7  9  1  0  0  0  0
 21 22  1  0  0  0  0
 21 23  1  0  0  0  0
 21 24  1  0  0  0  0
 19 20  1  0  0  0  0
 19 21  1  0  0  0  0
M  CHG  1  15  -1
M  END
$$$$
default_name
  -OEChem-01062215323D

 24 23  0     1  0  0  0  0  0999 V2000
   -2.8347   -3.7166    0.8034 H   0  0  0  0  0  0  0  0  0  0  0  0
   -2.7728   -2.7096    0.3954 C   0  0  0  0  0  0  0  0  0  0  0  0
   -3.4267   -2.0426    0.9524 H   0  0  0  0  0  0  0  0  0  0  0  0
   -3.0538   -2.7186   -0.6556 H   0  0  0  0  0  0  0  0  0  0  0  0
   -1.3498   -2.2206    0.5184 C   0  0  0  0  0  0  0  0  0  0  0  0
   -0.4997   -2.9426    1.0194 O   0  0  0  0  0  0  0  0  0  0  0  0
   -1.1198   -0.9926    0.0674 N   0  0  0  0  0  0  0  0  0  0  0  0
   -1.8978   -0.4486   -0.2716 H   0  0  0  0  0  0  0  0  0  0  0  0
    0.1693   -0.2866    0.0854 C   0  0  1  0  0  0  0  0  0  0  0  0
    0.9644   -1.0010    0.3058 H   0  0  0  0  0  0  0  0  0  0  0  0
    0.4368    0.3212   -1.3086 C   0  0  0  0  0  0  0  0  0  0  0  0
   -0.4381    0.8984   -1.6128 H   0  0  0  0  0  0  0  0  0  0  0  0
    1.2813    1.0099   -1.2360 H   0  0  0  0  0  0  0  0  0  0  0  0
    0.7184   -0.7115   -2.4112 C   0  0  0  0  0  0  0  0  0  0  0  0
    1.2470   -1.8019   -2.0898 O   0  5  0  0  0  0  0  0  0  0  0  0
    0.4166   -0.3895   -3.5805 O   0  0  0  0  0  0  0  0  0  0  0  0
    0.1611    0.7864    1.1989 C   0  0  0  0  0  0  0  0  0  0  0  0
    0.9956    0.7494    2.1108 O   0  0  0  0  0  0  0  0  0  0  0  0
   -0.7608    1.7518    1.1288 N   0  0  0  0  0  0  0  0  0  0  0  0
   -1.4585    1.6473    0.3897 H   0  0  0  0  0  0  0  0  0  0  0  0
   -0.9244    2.8309    2.0971 C   0  0  0  0  0  0  0  0  0  0  0  0
    0.0505    3.2510    2.3480 H   0  0  0  0  0  0  0  0  0  0  0  0
   -1.5607    3.6080    1.6744 H   0  0  0  0  0  0  0  0  0  0  0  0
   -1.3863    2.4350    3.0017 H   0  0  0  0  0  0  0  0  0  0  0  0
  5  6  2  0  0  0  0
  5  7  1  0  0  0  0
  2  3  1  0  0  0  0
  2  4  1  0  0  0  0
  2  5  1  0  0  0  0
  1  2  1  0  0  0  0
 17 18  2  0  0  0  0
 17 19  1  0  0  0  0
 14 15  1  0  0  0  0
 14 16  2  0  0  0  0
 11 12  1  0  0  0  0
 11 13  1  0  0  0  0
 11 14  1  0  0  0  0
  9 10  1  0  0  0  0
  9 11  1  0  0  0  0
  9 17  1  0  0  0  0
  7  8  1  0  0  0  0
  7  9  1  0  0  0  0
 21 22  1  0  0  0  0
 21 23  1  0  0  0  0
 21 24  1  0  0  0  0
 19 20  1  0  0  0  0
 19 21  1  0  0  0  0
M  CHG  1  15  -1
M  END
$$$$
default_name
  -OEChem-01062215323D

 24 23  0     1  0  0  0  0  0999 V2000
   -2.8347   -3.7166    0.8034 H   0  0  0  0  0  0  0  0  0  0  0  0
   -2.7728   -2.7096    0.3954 C   0  0  0  0  0  0  0  0  0  0  0  0
   -3.4267   -2.0426    0.9524 H   0  0  0  0  0  0  0  0  0  0  0  0
   -3.0538   -2.7186   -0.6556 H   0  0  0  0  0  0  0  0  0  0  0  0
   -1.3498   -2.2206    0.5184 C   0  0  0  0  0  0  0  0  0  0  0  0
   -0.4997   -2.9426    1.0194 O   0  0  0  0  0  0  0  0  0  0  0  0
   -1.1198   -0.9926    0.0674 N   0  0  0  0  0  0  0  0  0  0  0  0
   -1.8978   -0.4486   -0.2716 H   0  0  0  0  0  0  0  0  0  0  0  0
    0.1693   -0.2866    0.0854 C   0  0  1  0  0  0  0  0  0  0  0  0
    0.9644   -1.0010    0.3058 H   0  0  0  0  0  0  0  0  0  0  0  0
    0.4368    0.3212   -1.3086 C   0  0  0  0  0  0  0  0  0  0  0  0
   -0.4381    0.8984   -1.6128 H   0  0  0  0  0  0  0  0  0  0  0  0
    1.2813    1.0099   -1.2360 H   0  0  0  0  0  0  0  0  0  0  0  0
    0.7184   -0.7115   -2.4112 C   0  0  0  0  0  0  0  0  0  0  0  0
    1.2470   -1.8019   -2.0898 O   0  5  0  0  0  0  0  0  0  0  0  0
    0.4166   -0.3895   -3.5805 O   0  0  0  0  0  0  0  0  0  0  0  0
    0.1611    0.7864    1.1989 C   0  0  0  0  0  0  0  0  0  0  0  0
    1.1377    0.9223    1.9453 O   0  0  0  0  0  0  0  0  0  0  0  0
   -0.9220    1.5618    1.3108 N   0  0  0  0  0  0  0  0  0  0  0  0
   -1.7091    1.3156    0.7075 H   0  0  0  0  0  0  0  0  0  0  0  0
   -1.1075    2.6092    2.3094 C   0  0  0  0  0  0  0  0  0  0  0  0
   -0.1991    3.2080    2.3876 H   0  0  0  0  0  0  0  0  0  0  0  0
   -1.9429    3.2462    2.0202 H   0  0  0  0  0  0  0  0  0  0  0  0
   -1.3175    2.1509    3.2760 H   0  0  0  0  0  0  0  0  0  0  0  0
  5  6  2  0  0  0  0
  5  7  1  0  0  0  0
  2  3  1  0  0  0  0
  2  4  1  0  0  0  0
  2  5  1  0  0  0  0
  1  2  1  0  0  0  0
 17 18  2  0  0  0  0
 17 19  1  0  0  0  0
 14 15  1  0  0  0  0
 14 16  2  0  0  0  0
 11 12  1  0  0  0  0
 11 13  1  0  0  0  0
 11 14  1  0  0  0  0
  9 10  1  0  0  0  0
  9 11  1  0  0  0  0
  9 17  1  0  0  0  0
  7  8  1  0  0  0  0
  7  9  1  0  0  0  0
 21 22  1  0  0  0  0
 21 23  1  0  0  0  0
 21 24  1  0  0  0  0
 19 20  1  0  0  0  0
 19 21  1  0  0  0  0
M  CHG  1  15  -1
M  END
$$$$
default_name
  -OEChem-01062215323D

 24 23  0     1  0  0  0  0  0999 V2000
   -2.8347   -3.7166    0.8034 H   0  0  0  0  0  0  0  0  0  0  0  0
   -2.7728   -2.7096    0.3954 C   0  0  0  0  0  0  0  0  0  0  0  0
   -3.4267   -2.0426    0.9524 H   0  0  0  0  0  0  0  0  0  0  0  0
   -3.0538   -2.7186   -0.6556 H   0  0  0  0  0  0  0  0  0  0  0  0
   -1.3498   -2.2206    0.5184 C   0  0  0  0  0  0  0  0  0  0  0  0
   -0.4997   -2.9426    1.0194 O   0  0  0  0  0  0  0  0  0  0  0  0
   -1.1198   -0.9926    0.0674 N   0  0  0  0  0  0  0  0  0  0  0  0
   -1.8978   -0.4486   -0.2716 H   0  0  0  0  0  0  0  0  0  0  0  0
    0.1693   -0.2866    0.0854 C   0  0  1  0  0  0  0  0  0  0  0  0
    0.9644   -1.0010    0.3058 H   0  0  0  0  0  0  0  0  0  0  0  0
    0.4368    0.3212   -1.3086 C   0  0  0  0  0  0  0  0  0  0  0  0
   -0.4381    0.8984   -1.6128 H   0  0  0  0  0  0  0  0  0  0  0  0
    1.2813    1.0099   -1.2360 H   0  0  0  0  0  0  0  0  0  0  0  0
    0.7184   -0.7115   -2.4112 C   0  0  0  0  0  0  0  0  0  0  0  0
    1.2470   -1.8019   -2.0898 O   0  5  0  0  0  0  0  0  0  0  0  0
    0.4166   -0.3895   -3.5805 O   0  0  0  0  0  0  0  0  0  0  0  0
    0.1611    0.7864    1.1989 C   0  0  0  0  0  0  0  0  0  0  0  0
    1.2130    1.1155    1.7597 O   0  0  0  0  0  0  0  0  0  0  0  0
   -1.0096    1.3484    1.5157 N   0  0  0  0  0  0  0  0  0  0  0  0
   -1.8322    0.9489    1.0599 H   0  0  0  0  0  0  0  0  0  0  0  0
   -1.2049    2.3611    2.5477 C   0  0  0  0  0  0  0  0  0  0  0  0
   -0.4252    3.1200    2.4707 H   0  0  0  0  0  0  0  0  0  0  0  0
   -2.1825    2.8260    2.4234 H   0  0  0  0  0  0  0  0  0  0  0  0
   -1.1488    1.8896    3.5290 H   0  0  0  0  0  0  0  0  0  0  0  0
  5  6  2  0  0  0  0
  5  7  1  0  0  0  0
  2  3  1  0  0  0  0
  2  4  1  0  0  0  0
  2  5  1  0  0  0  0
  1  2  1  0  0  0  0
 17 18  2  0  0  0  0
 17 19  1  0  0  0  0
 14 15  1  0  0  0  0
 14 16  2  0  0  0  0
 11 12  1  0  0  0  0
 11 13  1  0  0  0  0
 11 14  1  0  0  0  0
  9 10  1  0  0  0  0
  9 11  1  0  0  0  0
  9 17  1  0  0  0  0
  7  8  1  0  0  0  0
  7  9  1  0  0  0  0
 21 22  1  0  0  0  0
 21 23  1  0  0  0  0
 21 24  1  0  0  0  0
 19 20  1  0  0  0  0
 19 21  1  0  0  0  0
M  CHG  1  15  -1
M  END
$$$$
default_name
  -OEChem-01062215323D

 24 23  0     1  0  0  0  0  0999 V2000
   -2.8347   -3.7166    0.8034 H   0  0  0  0  0  0  0  0  0  0  0  0
   -2.7728   -2.7096    0.3954 C   0  0  0  0  0  0  0  0  0  0  0  0
   -3.4267   -2.0426    0.9524 H   0  0  0  0  0  0  0  0  0  0  0  0
   -3.0538   -2.7186   -0.6556 H   0  0  0  0  0  0  0  0  0  0  0  0
   -1.3498   -2.2206    0.5184 C   0  0  0  0  0  0  0  0  0  0  0  0
   -0.4997   -2.9426    1.0194 O   0  0  0  0  0  0  0  0  0  0  0  0
   -1.1198   -0.9926    0.0674 N   0  0  0  0  0  0  0  0  0  0  0  0
   -1.8978   -0.4486   -0.2716 H   0  0  0  0  0  0  0  0  0  0  0  0
    0.1693   -0.2866    0.0854 C   0  0  1  0  0  0  0  0  0  0  0  0
    0.9644   -1.0010    0.3058 H   0  0  0  0  0  0  0  0  0  0  0  0
    0.4368    0.3212   -1.3086 C   0  0  0  0  0  0  0  0  0  0  0  0
   -0.4381    0.8984   -1.6128 H   0  0  0  0  0  0  0  0  0  0  0  0
    1.2813    1.0099   -1.2360 H   0  0  0  0  0  0  0  0  0  0  0  0
    0.7184   -0.7115   -2.4112 C   0  0  0  0  0  0  0  0  0  0  0  0
    1.2470   -1.8019   -2.0898 O   0  5  0  0  0  0  0  0  0  0  0  0
    0.4166   -0.3895   -3.5805 O   0  0  0  0  0  0  0  0  0  0  0  0
    0.1611    0.7864    1.1989 C   0  0  0  0  0  0  0  0  0  0  0  0
    1.2165    1.3159    1.5666 O   0  0  0  0  0  0  0  0  0  0  0  0
   -1.0177    1.1263    1.7297 N   0  0  0  0  0  0  0  0  0  0  0  0
   -1.8196    0.5722    1.4230 H   0  0  0  0  0  0  0  0  0  0  0  0
   -1.2100    2.1037    2.7957 C   0  0  0  0  0  0  0  0  0  0  0  0
   -0.6121    2.9930    2.5917 H   0  0  0  0  0  0  0  0  0  0  0  0
   -2.2633    2.3760    2.8564 H   0  0  0  0  0  0  0  0  0  0  0  0
   -0.8917    1.6690    3.7435 H   0  0  0  0  0  0  0  0  0  0  0  0
  5  6  2  0  0  0  0
  5  7  1  0  0  0  0
  2  3  1  0  0  0  0
  2  4  1  0  0  0  0
  2  5  1  0  0  0  0
  1  2  1  0  0  0  0
 17 18  2  0  0  0  0
 17 19  1  0  0  0  0
 14 15  1  0  0  0  0
 14 16  2  0  0  0  0
 11 12  1  0  0  0  0
 11 13  1  0  0  0  0
 11 14  1  0  0  0  0
  9 10  1  0  0  0  0
  9 11  1  0  0  0  0
  9 17  1  0  0  0  0
  7  8  1  0  0  0  0
  7  9  1  0  0  0  0
 21 22  1  0  0  0  0
 21 23  1  0  0  0  0
 21 24  1  0  0  0  0
 19 20  1  0  0  0  0
 19 21  1  0  0  0  0
M  CHG  1  15  -1
M  END
$$$$
default_name
  -OEChem-01062215323D

 24 23  0     1  0  0  0  0  0999 V2000
   -2.8347   -3.7166    0.8034 H   0  0  0  0  0  0  0  0  0  0  0  0
   -2.7728   -2.7096    0.3954 C   0  0  0  0  0  0  0  0  0  0  0  0
   -3.4267   -2.0426    0.9524 H   0  0  0  0  0  0  0  0  0  0  0  0
   -3.0538   -2.7186   -0.6556 H   0  0  0  0  0  0  0  0  0  0  0  0
   -1.3498   -2.2206    0.5184 C   0  0  0  0  0  0  0  0  0  0  0  0
   -0.4997   -2.9426    1.0194 O   0  0  0  0  0  0  0  0  0  0  0  0
   -1.1198   -0.9926    0.0674 N   0  0  0  0  0  0  0  0  0  0  0  0
   -1.8978   -0.4486   -0.2716 H   0  0  0  0  0  0  0  0  0  0  0  0
    0.1693   -0.2866    0.0854 C   0  0  1  0  0  0  0  0  0  0  0  0
    0.9644   -1.0010    0.3058 H   0  0  0  0  0  0  0  0  0  0  0  0
    0.4368    0.3212   -1.3086 C   0  0  0  0  0  0  0  0  0  0  0  0
   -0.4381    0.8984   -1.6128 H   0  0  0  0  0  0  0  0  0  0  0  0
    1.2813    1.0099   -1.2360 H   0  0  0  0  0  0  0  0  0  0  0  0
    0.7184   -0.7115   -2.4112 C   0  0  0  0  0  0  0  0  0  0  0  0
    1.2470   -1.8019   -2.0898 O   0  5  0  0  0  0  0  0  0  0  0  0
    0.4166   -0.3895   -3.5805 O   0  0  0  0  0  0  0  0  0  0  0  0
    0.1611    0.7864    1.1989 C   0  0  0  0  0  0  0  0  0  0  0  0
    1.1477    1.5099    1.3791 O   0  0  0  0  0  0  0  0  0  0  0  0
   -0.9456    0.9105    1.9382 N   0  0  0  0  0  0  0  0  0  0  0  0
   -1.6719    0.2113    1.7719 H   0  0  0  0  0  0  0  0  0  0  0  0
   -1.1223    1.8545    3.0365 C   0  0  0  0  0  0  0  0  0  0  0  0
   -0.7473    2.8357    2.7424 H   0  0  0  0  0  0  0  0  0  0  0  0
   -2.1797    1.9269    3.2898 H   0  0  0  0  0  0  0  0  0  0  0  0
   -0.5638    1.5042    3.9047 H   0  0  0  0  0  0  0  0  0  0  0  0
  5  6  2  0  0  0  0
  5  7  1  0  0  0  0
  2  3  1  0  0  0  0
  2  4  1  0  0  0  0
  2  5  1  0  0  0  0
  1  2  1  0  0  0  0
 17 18  2  0  0  0  0
 17 19  1  0  0  0  0
 14 15  1  0  0  0  0
 14 16  2  0  0  0  0
 11 12  1  0  0  0  0
 11 13  1  0  0  0  0
 11 14  1  0  0  0  0
  9 10  1  0  0  0  0
  9 11  1  0  0  0  0
  9 17  1  0  0  0  0
  7  8  1  0  0  0  0
  7  9  1  0  0  0  0
 21 22  1  0  0  0  0
 21 23  1  0  0  0  0
 21 24  1  0  0  0  0
 19 20  1  0  0  0  0
 19 21  1  0  0  0  0
M  CHG  1  15  -1
M  END
$$$$
default_name
  -OEChem-01062215323D

 24 23  0     1  0  0  0  0  0999 V2000
   -2.8347   -3.7166    0.8034 H   0  0  0  0  0  0  0  0  0  0  0  0
   -2.7728   -2.7096    0.3954 C   0  0  0  0  0  0  0  0  0  0  0  0
   -3.4267   -2.0426    0.9524 H   0  0  0  0  0  0  0  0  0  0  0  0
   -3.0538   -2.7186   -0.6556 H   0  0  0  0  0  0  0  0  0  0  0  0
   -1.3498   -2.2206    0.5184 C   0  0  0  0  0  0  0  0  0  0  0  0
   -0.4997   -2.9426    1.0194 O   0  0  0  0  0  0  0  0  0  0  0  0
   -1.1198   -0.9926    0.0674 N   0  0  0  0  0  0  0  0  0  0  0  0
   -1.8978   -0.4486   -0.2716 H   0  0  0  0  0  0  0  0  0  0  0  0
    0.1693   -0.2866    0.0854 C   0  0  1  0  0  0  0  0  0  0  0  0
    0.9644   -1.0010    0.3058 H   0  0  0  0  0  0  0  0  0  0  0  0
    0.4368    0.3212   -1.3086 C   0  0  0  0  0  0  0  0  0  0  0  0
   -0.4381    0.8984   -1.6128 H   0  0  0  0  0  0  0  0  0  0  0  0
    1.2813    1.0099   -1.2360 H   0  0  0  0  0  0  0  0  0  0  0  0
    0.7184   -0.7115   -2.4112 C   0  0  0  0  0  0  0  0  0  0  0  0
    1.2470   -1.8019   -2.0898 O   0  5  0  0  0  0  0  0  0  0  0  0
    0.4166   -0.3895   -3.5805 O   0  0  0  0  0  0  0  0  0  0  0  0
    0.1611    0.7864    1.1989 C   0  0  0  0  0  0  0  0  0  0  0  0
    1.0115    1.6842    1.2102 O   0  0  0  0  0  0  0  0  0  0  0  0
   -0.7984    0.7158    2.1269 N   0  0  0  0  0  0  0  0  0  0  0  0
   -1.3994   -0.1094    2.0829 H   0  0  0  0  0  0  0  0  0  0  0  0
   -0.9480    1.6304    3.2538 C   0  0  0  0  0  0  0  0  0  0  0  0
   -0.8216    2.6587    2.9124 H   0  0  0  0  0  0  0  0  0  0  0  0
   -1.9374    1.5093    3.6941 H   0  0  0  0  0  0  0  0  0  0  0  0
   -0.1874    1.4063    4.0019 H   0  0  0  0  0  0  0  0  0  0  0  0
  5  6  2  0  0  0  0
  5  7  1  0  0  0  0
  2  3  1  0  0  0  0
  2  4  1  0  0  0  0
  2  5  1  0  0  0  0
  1  2  1  0  0  0  0
 17 18  2  0  0  0  0
 17 19  1  0  0  0  0
 14 15  1  0  0  0  0
 14 16  2  0  0  0  0
 11 12  1  0  0  0  0
 11 13  1  0  0  0  0
 11 14  1  0  0  0  0
  9 10  1  0  0  0  0
  9 11  1  0  0  0  0
  9 17  1  0  0  0  0
  7  8  1  0  0  0  0
  7  9  1  0  0  0  0
 21 22  1  0  0  0  0
 21 23  1  0  0  0  0
 21 24  1  0  0  0  0
 19 20  1  0  0  0  0
 19 21  1  0  0  0  0
M  CHG  1  15  -1
M  END
$$$$
default_name
  -OEChem-01062215323D

 24 23  0     1  0  0  0  0  0999 V2000
   -2.8347   -3.7166    0.8034 H   0  0  0  0  0  0  0  0  0  0  0  0
   -2.7728   -2.7096    0.3954 C   0  0  0  0  0  0  0  0  0  0  0  0
   -3.4267   -2.0426    0.9524 H   0  0  0  0  0  0  0  0  0  0  0  0
   -3.0538   -2.7186   -0.6556 H   0  0  0  0  0  0  0  0  0  0  0  0
   -1.3498   -2.2206    0.5184 C   0  0  0  0  0  0  0  0  0  0  0  0
   -0.4997   -2.9426    1.0194 O   0  0  0  0  0  0  0  0  0  0  0  0
   -1.1198   -0.9926    0.0674 N   0  0  0  0  0  0  0  0  0  0  0  0
   -1.8978   -0.4486   -0.2716 H   0  0  0  0  0  0  0  0  0  0  0  0
    0.1693   -0.2866    0.0854 C   0  0  1  0  0  0  0  0  0  0  0  0
    0.9644   -1.0010    0.3058 H   0  0  0  0  0  0  0  0  0  0  0  0
    0.4368    0.3212   -1.3086 C   0  0  0  0  0  0  0  0  0  0  0  0
   -0.4381    0.8984   -1.6128 H   0  0  0  0  0  0  0  0  0  0  0  0
    1.2813    1.0099   -1.2360 H   0  0  0  0  0  0  0  0  0  0  0  0
    0.7184   -0.7115   -2.4112 C   0  0  0  0  0  0  0  0  0  0  0  0
    1.2470   -1.8019   -2.0898 O   0  5  0  0  0  0  0  0  0  0  0  0
    0.4166   -0.3895   -3.5805 O   0  0  0  0  0  0  0  0  0  0  0  0
    0.1611    0.7864    1.1989 C   0  0  0  0  0  0  0  0  0  0  0  0
    0.8171    1.8269    1.0712 O   0  0  0  0  0  0  0  0  0  0  0  0
   -0.5860    0.5554    2.2830 N   0  0  0  0  0  0  0  0  0  0  0  0
   -1.0205   -0.3679    2.3349 H   0  0  0  0  0  0  0  0  0  0  0  0
   -0.6989    1.4467    3.4326 C   0  0  0  0  0  0  0  0  0  0  0  0
   -0.8297    2.4741    3.0902 H   0  0  0  0  0  0  0  0  0  0  0  0
   -1.5529    1.1516    4.0416 H   0  0  0  0  0  0  0  0  0  0  0  0
    0.2119    1.3820    4.0282 H   0  0  0  0  0  0  0  0  0  0  0  0
  5  6  2  0  0  0  0
  5  7  1  0  0  0  0
  2  3  1  0  0  0  0
  2  4  1  0  0  0  0
  2  5  1  0  0  0  0
  1  2  1  0  0  0  0
 17 18  2  0  0  0  0
 17 19  1  0  0  0  0
 14 15  1  0  0  0  0
 14 16  2  0  0  0  0
 11 12  1  0  0  0  0
 11 13  1  0  0  0  0
 11 14  1  0  0  0  0
  9 10  1  0  0  0  0
  9 11  1  0  0  0  0
  9 17  1  0  0  0  0
  7  8  1  0  0  0  0
  7  9  1  0  0  0  0
 21 22  1  0  0  0  0
 21 23  1  0  0  0  0
 21 24  1  0  0  0  0
 19 20  1  0  0  0  0
 19 21  1  0  0  0  0
M  CHG  1  15  -1
M  END
$$$$
default_name
  -OEChem-01062215323D

 24 23  0     1  0  0  0  0  0999 V2000
   -2.8347   -3.7166    0.8034 H   0  0  0  0  0  0  0  0  0  0  0  0
   -2.7728   -2.7096    0.3954 C   0  0  0  0  0  0  0  0  0  0  0  0
   -3.4267   -2.0426    0.9524 H   0  0  0  0  0  0  0  0  0  0  0  0
   -3.0538   -2.7186   -0.6556 H   0  0  0  0  0  0  0  0  0  0  0  0
   -1.3498   -2.2206    0.5184 C   0  0  0  0  0  0  0  0  0  0  0  0
   -0.4997   -2.9426    1.0194 O   0  0  0  0  0  0  0  0  0  0  0  0
   -1.1198   -0.9926    0.0674 N   0  0  0  0  0  0  0  0  0  0  0  0
   -1.8978   -0.4486   -0.2716 H   0  0  0  0  0  0  0  0  0  0  0  0
    0.1693   -0.2866    0.0854 C   0  0  1  0  0  0  0  0  0  0  0  0
    0.9644   -1.0010    0.3058 H   0  0  0  0  0  0  0  0  0  0  0  0
    0.4368    0.3212   -1.3086 C   0  0  0  0  0  0  0  0  0  0  0  0
   -0.4381    0.8984   -1.6128 H   0  0  0  0  0  0  0  0  0  0  0  0
    1.2813    1.0099   -1.2360 H   0  0  0  0  0  0  0  0  0  0  0  0
    0.7184   -0.7115   -2.4112 C   0  0  0  0  0  0  0  0  0  0  0  0
    1.2470   -1.8019   -2.0898 O   0  5  0  0  0  0  0  0  0  0  0  0
    0.4166   -0.3895   -3.5805 O   0  0  0  0  0  0  0  0  0  0  0  0
    0.1611    0.7864    1.1989 C   0  0  0  0  0  0  0  0  0  0  0  0
    0.5778    1.9284    0.9717 O   0  0  0  0  0  0  0  0  0  0  0  0
   -0.3229    0.4403    2.3959 N   0  0  0  0  0  0  0  0  0  0  0  0
   -0.5611   -0.5467    2.5105 H   0  0  0  0  0  0  0  0  0  0  0  0
   -0.3918    1.3160    3.5608 C   0  0  0  0  0  0  0  0  0  0  0  0
   -0.7713    2.2945    3.2636 H   0  0  0  0  0  0  0  0  0  0  0  0
   -1.0525    0.8782    4.3087 H   0  0  0  0  0  0  0  0  0  0  0  0
    0.6069    1.4330    3.9819 H   0  0  0  0  0  0  0  0  0  0  0  0
  5  6  2  0  0  0  0
  5  7  1  0  0  0  0
  2  3  1  0  0  0  0
  2  4  1  0  0  0  0
  2  5  1  0  0  0  0
  1  2  1  0  0  0  0
 17 18  2  0  0  0  0
 17 19  1  0  0  0  0
 14 15  1  0  0  0  0
 14 16  2  0  0  0  0
 11 12  1  0  0  0  0
 11 13  1  0  0  0  0
 11 14  1  0  0  0  0
  9 10  1  0  0  0  0
  9 11  1  0  0  0  0
  9 17  1  0  0  0  0
  7  8  1  0  0  0  0
  7  9  1  0  0  0  0
 21 22  1  0  0  0  0
 21 23  1  0  0  0  0
 21 24  1  0  0  0  0
 19 20  1  0  0  0  0
 19 21  1  0  0  0  0
M  CHG  1  15  -1
M  END
$$$$
default_name
  -OEChem-01062215323D

 24 23  0     1  0  0  0  0  0999 V2000
   -2.8347   -3.7166    0.8034 H   0  0  0  0  0  0  0  0  0  0  0  0
   -2.7728   -2.7096    0.3954 C   0  0  0  0  0  0  0  0  0  0  0  0
   -3.4267   -2.0426    0.9524 H   0  0  0  0  0  0  0  0  0  0  0  0
   -3.0538   -2.7186   -0.6556 H   0  0  0  0  0  0  0  0  0  0  0  0
   -1.3498   -2.2206    0.5184 C   0  0  0  0  0  0  0  0  0  0  0  0
   -0.4997   -2.9426    1.0194 O   0  0  0  0  0  0  0  0  0  0  0  0
   -1.1198   -0.9926    0.0674 N   0  0  0  0  0  0  0  0  0  0  0  0
   -1.8978   -0.4486   -0.2716 H   0  0  0  0  0  0  0  0  0  0  0  0
    0.1693   -0.2866    0.0854 C   0  0  1  0  0  0  0  0  0  0  0  0
    0.9644   -1.0010    0.3058 H   0  0  0  0  0  0  0  0  0  0  0  0
    0.4368    0.3212   -1.3086 C   0  0  0  0  0  0  0  0  0  0  0  0
   -0.4381    0.8984   -1.6128 H   0  0  0  0  0  0  0  0  0  0  0  0
    1.2813    1.0099   -1.2360 H   0  0  0  0  0  0  0  0  0  0  0  0
    0.7184   -0.7115   -2.4112 C   0  0  0  0  0  0  0  0  0  0  0  0
    1.2470   -1.8019   -2.0898 O   0  5  0  0  0  0  0  0  0  0  0  0
    0.4166   -0.3895   -3.5805 O   0  0  0  0  0  0  0  0  0  0  0  0
    0.1611    0.7864    1.1989 C   0  0  0  0  0  0  0  0  0  0  0  0
    0.3099    1.9816    0.9184 O   0  0  0  0  0  0  0  0  0  0  0  0
   -0.0271    0.3783    2.4578 N   0  0  0  0  0  0  0  0  0  0  0  0
   -0.0525   -0.6335    2.5979 H   0  0  0  0  0  0  0  0  0  0  0  0
   -0.0479    1.2471    3.6297 C   0  0  0  0  0  0  0  0  0  0  0  0
   -0.6502    2.1322    3.4209 H   0  0  0  0  0  0  0  0  0  0  0  0
   -0.4701    0.7078    4.4772 H   0  0  0  0  0  0  0  0  0  0  0  0
    0.9706    1.5558    3.8663 H   0  0  0  0  0  0  0  0  0  0  0  0
  5  6  2  0  0  0  0
  5  7  1  0  0  0  0
  2  3  1  0  0  0  0
  2  4  1  0  0  0  0
  2  5  1  0  0  0  0
  1  2  1  0  0  0  0
 17 18  2  0  0  0  0
 17 19  1  0  0  0  0
 14 15  1  0  0  0  0
 14 16  2  0  0  0  0
 11 12  1  0  0  0  0
 11 13  1  0  0  0  0
 11 14  1  0  0  0  0
  9 10  1  0  0  0  0
  9 11  1  0  0  0  0
  9 17  1  0  0  0  0
  7  8  1  0  0  0  0
  7  9  1  0  0  0  0
 21 22  1  0  0  0  0
 21 23  1  0  0  0  0
 21 24  1  0  0  0  0
 19 20  1  0  0  0  0
 19 21  1  0  0  0  0
M  CHG  1  15  -1
M  END
$$$$
default_name
  -OEChem-01062215323D

 24 23  0     1  0  0  0  0  0999 V2000
   -2.8347   -3.7166    0.8034 H   0  0  0  0  0  0  0  0  0  0  0  0
   -2.7728   -2.7096    0.3954 C   0  0  0  0  0  0  0  0  0  0  0  0
   -3.4267   -2.0426    0.9524 H   0  0  0  0  0  0  0  0  0  0  0  0
   -3.0538   -2.7186   -0.6556 H   0  0  0  0  0  0  0  0  0  0  0  0
   -1.3498   -2.2206    0.5184 C   0  0  0  0  0  0  0  0  0  0  0  0
   -0.4997   -2.9426    1.0194 O   0  0  0  0  0  0  0  0  0  0  0  0
   -1.1198   -0.9926    0.0674 N   0  0  0  0  0  0  0  0  0  0  0  0
   -1.8978   -0.4486   -0.2716 H   0  0  0  0  0  0  0  0  0  0  0  0
    0.1693   -0.2866    0.0854 C   0  0  1  0  0  0  0  0  0  0  0  0
    0.9644   -1.0010    0.3058 H   0  0  0  0  0  0  0  0  0  0  0  0
    0.4368    0.3212   -1.3086 C   0  0  0  0  0  0  0  0  0  0  0  0
   -0.4381    0.8984   -1.6128 H   0  0  0  0  0  0  0  0  0  0  0  0
    1.2813    1.0099   -1.2360 H   0  0  0  0  0  0  0  0  0  0  0  0
    0.7184   -0.7115   -2.4112 C   0  0  0  0  0  0  0  0  0  0  0  0
    1.2470   -1.8019   -2.0898 O   0  5  0  0  0  0  0  0  0  0  0  0
    0.4166   -0.3895   -3.5805 O   0  0  0  0  0  0  0  0  0  0  0  0
    0.1611    0.7864    1.1989 C   0  0  0  0  0  0  0  0  0  0  0  0
    0.0316    1.9831    0.9149 O   0  0  0  0  0  0  0  0  0  0  0  0
    0.2813    0.3736    2.4646 N   0  0  0  0  0  0  0  0  0  0  0  0
    0.4706   -0.6224    2.5911 H   0  0  0  0  0  0  0  0  0  0  0  0
    0.3095    1.2448    3.6346 C   0  0  0  0  0  0  0  0  0  0  0  0
   -0.4748    1.9982    3.5514 H   0  0  0  0  0  0  0  0  0  0  0  0
    0.1544    0.6520    4.5356 H   0  0  0  0  0  0  0  0  0  0  0  0
    1.2782    1.7420    3.6891 H   0  0  0  0  0  0  0  0  0  0  0  0
  5  6  2  0  0  0  0
  5  7  1  0  0  0  0
  2  3  1  0  0  0  0
  2  4  1  0  0  0  0
  2  5  1  0  0  0  0
  1  2  1  0  0  0  0
 17 18  2  0  0  0  0
 17 19  1  0  0  0  0
 14 15  1  0  0  0  0
 14 16  2  0  0  0  0
 11 12  1  0  0  0  0
 11 13  1  0  0  0  0
 11 14  1  0  0  0  0
  9 10  1  0  0  0  0
  9 11  1  0  0  0  0
  9 17  1  0  0  0  0
  7  8  1  0  0  0  0
  7  9  1  0  0  0  0
 21 22  1  0  0  0  0
 21 23  1  0  0  0  0
 21 24  1  0  0  0  0
 19 20  1  0  0  0  0
 19 21  1  0  0  0  0
M  CHG  1  15  -1
M  END
$$$$
default_name
  -OEChem-01062215323D

 24 23  0     1  0  0  0  0  0999 V2000
   -2.8347   -3.7166    0.8034 H   0  0  0  0  0  0  0  0  0  0  0  0
   -2.7728   -2.7096    0.3954 C   0  0  0  0  0  0  0  0  0  0  0  0
   -3.4267   -2.0426    0.9524 H   0  0  0  0  0  0  0  0  0  0  0  0
   -3.0538   -2.7186   -0.6556 H   0  0  0  0  0  0  0  0  0  0  0  0
   -1.3498   -2.2206    0.5184 C   0  0  0  0  0  0  0  0  0  0  0  0
   -0.4997   -2.9426    1.0194 O   0  0  0  0  0  0  0  0  0  0  0  0
   -1.1198   -0.9926    0.0674 N   0  0  0  0  0  0  0  0  0  0  0  0
   -1.8978   -0.4486   -0.2716 H   0  0  0  0  0  0  0  0  0  0  0  0
    0.1693   -0.2866    0.0854 C   0  0  1  0  0  0  0  0  0  0  0  0
    0.9644   -1.0010    0.3058 H   0  0  0  0  0  0  0  0  0  0  0  0
    0.4368    0.3212   -1.3086 C   0  0  0  0  0  0  0  0  0  0  0  0
   -0.4381    0.8984   -1.6128 H   0  0  0  0  0  0  0  0  0  0  0  0
    1.2813    1.0099   -1.2360 H   0  0  0  0  0  0  0  0  0  0  0  0
    0.7184   -0.7115   -2.4112 C   0  0  0  0  0  0  0  0  0  0  0  0
    1.2470   -1.8019   -2.0898 O   0  5  0  0  0  0  0  0  0  0  0  0
    0.4166   -0.3895   -3.5805 O   0  0  0  0  0  0  0  0  0  0  0  0
    0.1611    0.7864    1.1989 C   0  0  0  0  0  0  0  0  0  0  0  0
   -0.2382    1.9326    0.9616 O   0  0  0  0  0  0  0  0  0  0  0  0
    0.5814    0.4266    2.4157 N   0  0  0  0  0  0  0  0  0  0  0  0
    0.9727   -0.5143    2.4906 H   0  0  0  0  0  0  0  0  0  0  0  0
    0.6561    1.3092    3.5751 C   0  0  0  0  0  0  0  0  0  0  0  0
   -0.2570    1.9017    3.6460 H   0  0  0  0  0  0  0  0  0  0  0  0
    0.7785    0.7145    4.4800 H   0  0  0  0  0  0  0  0  0  0  0  0
    1.5088    1.9790    3.4624 H   0  0  0  0  0  0  0  0  0  0  0  0
  5  6  2  0  0  0  0
  5  7  1  0  0  0  0
  2  3  1  0  0  0  0
  2  4  1  0  0  0  0
  2  5  1  0  0  0  0
  1  2  1  0  0  0  0
 17 18  2  0  0  0  0
 17 19  1  0  0  0  0
 14 15  1  0  0  0  0
 14 16  2  0  0  0  0
 11 12  1  0  0  0  0
 11 13  1  0  0  0  0
 11 14  1  0  0  0  0
  9 10  1  0  0  0  0
  9 11  1  0  0  0  0
  9 17  1  0  0  0  0
  7  8  1  0  0  0  0
  7  9  1  0  0  0  0
 21 22  1  0  0  0  0
 21 23  1  0  0  0  0
 21 24  1  0  0  0  0
 19 20  1  0  0  0  0
 19 21  1  0  0  0  0
M  CHG  1  15  -1
M  END
$$$$
default_name
  -OEChem-01062215323D

 24 23  0     1  0  0  0  0  0999 V2000
   -2.8347   -3.7166    0.8034 H   0  0  0  0  0  0  0  0  0  0  0  0
   -2.7728   -2.7096    0.3954 C   0  0  0  0  0  0  0  0  0  0  0  0
   -3.4267   -2.0426    0.9524 H   0  0  0  0  0  0  0  0  0  0  0  0
   -3.0538   -2.7186   -0.6556 H   0  0  0  0  0  0  0  0  0  0  0  0
   -1.3498   -2.2206    0.5184 C   0  0  0  0  0  0  0  0  0  0  0  0
   -0.4997   -2.9426    1.0194 O   0  0  0  0  0  0  0  0  0  0  0  0
   -1.1198   -0.9926    0.0674 N   0  0  0  0  0  0  0  0  0  0  0  0
   -1.8978   -0.4486   -0.2716 H   0  0  0  0  0  0  0  0  0  0  0  0
    0.1693   -0.2866    0.0854 C   0  0  1  0  0  0  0  0  0  0  0  0
    0.9644   -1.0010    0.3058 H   0  0  0  0  0  0  0  0  0  0  0  0
    0.4368    0.3212   -1.3086 C   0  0  0  0  0  0  0  0  0  0  0  0
   -0.4381    0.8984   -1.6128 H   0  0  0  0  0  0  0  0  0  0  0  0
    1.2813    1.0099   -1.2360 H   0  0  0  0  0  0  0  0  0  0  0  0
    0.7184   -0.7115   -2.4112 C   0  0  0  0  0  0  0  0  0  0  0  0
    1.2470   -1.8019   -2.0898 O   0  5  0  0  0  0  0  0  0  0  0  0
    0.4166   -0.3895   -3.5805 O   0  0  0  0  0  0  0  0  0  0  0  0
    0.1611    0.7864    1.1989 C   0  0  0  0  0  0  0  0  0  0  0  0
   -0.4809    1.8336    1.0552 O   0  0  0  0  0  0  0  0  0  0  0  0
    0.8525    0.5336    2.3146 N   0  0  0  0  0  0  0  0  0  0  0  0
    1.4194   -0.3164    2.3032 H   0  0  0  0  0  0  0  0  0  0  0  0
    0.9682    1.4358    3.4554 C   0  0  0  0  0  0  0  0  0  0  0  0
   -0.0115    1.8491    3.6984 H   0  0  0  0  0  0  0  0  0  0  0  0
    1.3597    0.8911    4.3141 H   0  0  0  0  0  0  0  0  0  0  0  0
    1.6467    2.2506    3.2017 H   0  0  0  0  0  0  0  0  0  0  0  0
  5  6  2  0  0  0  0
  5  7  1  0  0  0  0
  2  3  1  0  0  0  0
  2  4  1  0  0  0  0
  2  5  1  0  0  0  0
  1  2  1  0  0  0  0
 17 18  2  0  0  0  0
 17 19  1  0  0  0  0
 14 15  1  0  0  0  0
 14 16  2  0  0  0  0
 11 12  1  0  0  0  0
 11 13  1  0  0  0  0
 11 14  1  0  0  0  0
  9 10  1  0  0  0  0
  9 11  1  0  0  0  0
  9 17  1  0  0  0  0
  7  8  1  0  0  0  0
  7  9  1  0  0  0  0
 21 22  1  0  0  0  0
 21 23  1  0  0  0  0
 21 24  1  0  0  0  0
 19 20  1  0  0  0  0
 19 21  1  0  0  0  0
M  CHG  1  15  -1
M  END
$$$$
default_name
  -OEChem-01062215323D

 24 23  0     1  0  0  0  0  0999 V2000
   -2.8347   -3.7166    0.8034 H   0  0  0  0  0  0  0  0  0  0  0  0
   -2.7728   -2.7096    0.3954 C   0  0  0  0  0  0  0  0  0  0  0  0
   -3.4267   -2.0426    0.9524 H   0  0  0  0  0  0  0  0  0  0  0  0
   -3.0538   -2.7186   -0.6556 H   0  0  0  0  0  0  0  0  0  0  0  0
   -1.3498   -2.2206    0.5184 C   0  0  0  0  0  0  0  0  0  0  0  0
   -0.4997   -2.9426    1.0194 O   0  0  0  0  0  0  0  0  0  0  0  0
   -1.1198   -0.9926    0.0674 N   0  0  0  0  0  0  0  0  0  0  0  0
   -1.8978   -0.4486   -0.2716 H   0  0  0  0  0  0  0  0  0  0  0  0
    0.1693   -0.2866    0.0854 C   0  0  1  0  0  0  0  0  0  0  0  0
    0.9644   -1.0010    0.3058 H   0  0  0  0  0  0  0  0  0  0  0  0
    0.4368    0.3212   -1.3086 C   0  0  0  0  0  0  0  0  0  0  0  0
   -0.4381    0.8984   -1.6128 H   0  0  0  0  0  0  0  0  0  0  0  0
    1.2813    1.0099   -1.2360 H   0  0  0  0  0  0  0  0  0  0  0  0
    0.7184   -0.7115   -2.4112 C   0  0  0  0  0  0  0  0  0  0  0  0
    1.2470   -1.8019   -2.0898 O   0  5  0  0  0  0  0  0  0  0  0  0
    0.4166   -0.3895   -3.5805 O   0  0  0  0  0  0  0  0  0  0  0  0
    0.1611    0.7864    1.1989 C   0  0  0  0  0  0  0  0  0  0  0  0
   -0.6801    1.6929    1.1893 O   0  0  0  0  0  0  0  0  0  0  0  0
    1.0763    0.6874    2.1680 N   0  0  0  0  0  0  0  0  0  0  0  0
    1.7803   -0.0422    2.0416 H   0  0  0  0  0  0  0  0  0  0  0  0
    1.2245    1.6162    3.2834 C   0  0  0  0  0  0  0  0  0  0  0  0
    0.2447    1.8442    3.7051 H   0  0  0  0  0  0  0  0  0  0  0  0
    1.8584    1.1698    4.0492 H   0  0  0  0  0  0  0  0  0  0  0  0
    1.6824    2.5382    2.9248 H   0  0  0  0  0  0  0  0  0  0  0  0
  5  6  2  0  0  0  0
  5  7  1  0  0  0  0
  2  3  1  0  0  0  0
  2  4  1  0  0  0  0
  2  5  1  0  0  0  0
  1  2  1  0  0  0  0
 17 18  2  0  0  0  0
 17 19  1  0  0  0  0
 14 15  1  0  0  0  0
 14 16  2  0  0  0  0
 11 12  1  0  0  0  0
 11 13  1  0  0  0  0
 11 14  1  0  0  0  0
  9 10  1  0  0  0  0
  9 11  1  0  0  0  0
  9 17  1  0  0  0  0
  7  8  1  0  0  0  0
  7  9  1  0  0  0  0
 21 22  1  0  0  0  0
 21 23  1  0  0  0  0
 21 24  1  0  0  0  0
 19 20  1  0  0  0  0
 19 21  1  0  0  0  0
M  CHG  1  15  -1
M  END
$$$$
default_name
  -OEChem-01062215323D

 24 23  0     1  0  0  0  0  0999 V2000
   -2.8347   -3.7166    0.8034 H   0  0  0  0  0  0  0  0  0  0  0  0
   -2.7728   -2.7096    0.3954 C   0  0  0  0  0  0  0  0  0  0  0  0
   -3.4267   -2.0426    0.9524 H   0  0  0  0  0  0  0  0  0  0  0  0
   -3.0538   -2.7186   -0.6556 H   0  0  0  0  0  0  0  0  0  0  0  0
   -1.3498   -2.2206    0.5184 C   0  0  0  0  0  0  0  0  0  0  0  0
   -0.4997   -2.9426    1.0194 O   0  0  0  0  0  0  0  0  0  0  0  0
   -1.1198   -0.9926    0.0674 N   0  0  0  0  0  0  0  0  0  0  0  0
   -1.8978   -0.4486   -0.2716 H   0  0  0  0  0  0  0  0  0  0  0  0
    0.1693   -0.2866    0.0854 C   0  0  1  0  0  0  0  0  0  0  0  0
    0.9644   -1.0010    0.3058 H   0  0  0  0  0  0  0  0  0  0  0  0
    0.4368    0.3212   -1.3086 C   0  0  0  0  0  0  0  0  0  0  0  0
   -0.4381    0.8984   -1.6128 H   0  0  0  0  0  0  0  0  0  0  0  0
    1.2813    1.0099   -1.2360 H   0  0  0  0  0  0  0  0  0  0  0  0
    0.7184   -0.7115   -2.4112 C   0  0  0  0  0  0  0  0  0  0  0  0
    1.2470   -1.8019   -2.0898 O   0  5  0  0  0  0  0  0  0  0  0  0
    0.4166   -0.3895   -3.5805 O   0  0  0  0  0  0  0  0  0  0  0  0
    0.1611    0.7864    1.1989 C   0  0  0  0  0  0  0  0  0  0  0  0
   -0.8222    1.5201    1.3548 O   0  0  0  0  0  0  0  0  0  0  0  0
    1.2375    0.8774    1.9861 N   0  0  0  0  0  0  0  0  0  0  0  0
    2.0309    0.2895    1.7238 H   0  0  0  0  0  0  0  0  0  0  0  0
    1.4076    1.8379    3.0711 C   0  0  0  0  0  0  0  0  0  0  0  0
    0.4944    1.8872    3.6655 H   0  0  0  0  0  0  0  0  0  0  0  0
    2.2406    1.5315    3.7034 H   0  0  0  0  0  0  0  0  0  0  0  0
    1.6136    2.8224    2.6505 H   0  0  0  0  0  0  0  0  0  0  0  0
  5  6  2  0  0  0  0
  5  7  1  0  0  0  0
  2  3  1  0  0  0  0
  2  4  1  0  0  0  0
  2  5  1  0  0  0  0
  1  2  1  0  0  0  0
 17 18  2  0  0  0  0
 17 19  1  0  0  0  0
 14 15  1  0  0  0  0
 14 16  2  0  0  0  0
 11 12  1  0  0  0  0
 11 13  1  0  0  0  0
 11 14  1  0  0  0  0
  9 10  1  0  0  0  0
  9 11  1  0  0  0  0
  9 17  1  0  0  0  0
  7  8  1  0  0  0  0
  7  9  1  0  0  0  0
 21 22  1  0  0  0  0
 21 23  1  0  0  0  0
 21 24  1  0  0  0  0
 19 20  1  0  0  0  0
 19 21  1  0  0  0  0
M  CHG  1  15  -1
M  END
$$$$
default_name
  -OEChem-01062215323D

 24 23  0     1  0  0  0  0  0999 V2000
   -2.8347   -3.7166    0.8034 H   0  0  0  0  0  0  0  0  0  0  0  0
   -2.7728   -2.7096    0.3954 C   0  0  0  0  0  0  0  0  0  0  0  0
   -3.4267   -2.0426    0.9524 H   0  0  0  0  0  0  0  0  0  0  0  0
   -3.0538   -2.7186   -0.6556 H   0  0  0  0  0  0  0  0  0  0  0  0
   -1.3498   -2.2206    0.5184 C   0  0  0  0  0  0  0  0  0  0  0  0
   -0.4997   -2.9426    1.0194 O   0  0  0  0  0  0  0  0  0  0  0  0
   -1.1198   -0.9926    0.0674 N   0  0  0  0  0  0  0  0  0  0  0  0
   -1.8978   -0.4486   -0.2716 H   0  0  0  0  0  0  0  0  0  0  0  0
    0.1693   -0.2866    0.0854 C   0  0  1  0  0  0  0  0  0  0  0  0
    0.9644   -1.0010    0.3058 H   0  0  0  0  0  0  0  0  0  0  0  0
    0.4368    0.3212   -1.3086 C   0  0  0  0  0  0  0  0  0  0  0  0
   -0.4381    0.8984   -1.6128 H   0  0  0  0  0  0  0  0  0  0  0  0
    1.2813    1.0099   -1.2360 H   0  0  0  0  0  0  0  0  0  0  0  0
    0.7184   -0.7115   -2.4112 C   0  0  0  0  0  0  0  0  0  0  0  0
    1.2470   -1.8019   -2.0898 O   0  5  0  0  0  0  0  0  0  0  0  0
    0.4166   -0.3895   -3.5805 O   0  0  0  0  0  0  0  0  0  0  0  0
    0.1611    0.7864    1.1989 C   0  0  0  0  0  0  0  0  0  0  0  0
   -0.8976    1.3269    1.5405 O   0  0  0  0  0  0  0  0  0  0  0  0
    1.3251    1.0908    1.7812 N   0  0  0  0  0  0  0  0  0  0  0  0
    2.1541    0.6562    1.3714 H   0  0  0  0  0  0  0  0  0  0  0  0
    1.5051    2.0860    2.8328 C   0  0  0  0  0  0  0  0  0  0  0  0
    0.7204    1.9752    3.5824 H   0  0  0  0  0  0  0  0  0  0  0  0
    2.4802    1.9517    3.3002 H   0  0  0  0  0  0  0  0  0  0  0  0
    1.4449    3.0836    2.3975 H   0  0  0  0  0  0  0  0  0  0  0  0
  5  6  2  0  0  0  0
  5  7  1  0  0  0  0
  2  3  1  0  0  0  0
  2  4  1  0  0  0  0
  2  5  1  0  0  0  0
  1  2  1  0  0  0  0
 17 18  2  0  0  0  0
 17 19  1  0  0  0  0
 14 15  1  0  0  0  0
 14 16  2  0  0  0  0
 11 12  1  0  0  0  0
 11 13  1  0  0  0  0
 11 14  1  0  0  0  0
  9 10  1  0  0  0  0
  9 11  1  0  0  0  0
  9 17  1  0  0  0  0
  7  8  1  0  0  0  0
  7  9  1  0  0  0  0
 21 22  1  0  0  0  0
 21 23  1  0  0  0  0
 21 24  1  0  0  0  0
 19 20  1  0  0  0  0
 19 21  1  0  0  0  0
M  CHG  1  15  -1
M  END
$$$$
default_name
  -OEChem-01062215323D

 24 23  0     1  0  0  0  0  0999 V2000
   -2.8347   -3.7166    0.8034 H   0  0  0  0  0  0  0  0  0  0  0  0
   -2.7728   -2.7096    0.3954 C   0  0  0  0  0  0  0  0  0  0  0  0
   -3.4267   -2.0426    0.9524 H   0  0  0  0  0  0  0  0  0  0  0  0
   -3.0538   -2.7186   -0.6556 H   0  0  0  0  0  0  0  0  0  0  0  0
   -1.3498   -2.2206    0.5184 C   0  0  0  0  0  0  0  0  0  0  0  0
   -0.4997   -2.9426    1.0194 O   0  0  0  0  0  0  0  0  0  0  0  0
   -1.1198   -0.9926    0.0674 N   0  0  0  0  0  0  0  0  0  0  0  0
   -1.8978   -0.4486   -0.2716 H   0  0  0  0  0  0  0  0  0  0  0  0
    0.1693   -0.2866    0.0854 C   0  0  1  0  0  0  0  0  0  0  0  0
    0.9644   -1.0010    0.3058 H   0  0  0  0  0  0  0  0  0  0  0  0
    0.4368    0.3212   -1.3086 C   0  0  0  0  0  0  0  0  0  0  0  0
   -0.4381    0.8984   -1.6128 H   0  0  0  0  0  0  0  0  0  0  0  0
    1.2813    1.0099   -1.2360 H   0  0  0  0  0  0  0  0  0  0  0  0
    0.7184   -0.7115   -2.4112 C   0  0  0  0  0  0  0  0  0  0  0  0
    1.2470   -1.8019   -2.0898 O   0  5  0  0  0  0  0  0  0  0  0  0
    0.4166   -0.3895   -3.5805 O   0  0  0  0  0  0  0  0  0  0  0  0
    0.1611    0.7864    1.1989 C   0  0  0  0  0  0  0  0  0  0  0  0
   -0.9010    1.1264    1.7336 O   0  0  0  0  0  0  0  0  0  0  0  0
    1.3332    1.3129    1.5672 N   0  0  0  0  0  0  0  0  0  0  0  0
    2.1414    1.0328    1.0083 H   0  0  0  0  0  0  0  0  0  0  0  0
    1.5101    2.3434    2.5848 C   0  0  0  0  0  0  0  0  0  0  0  0
    0.9074    2.1022    3.4613 H   0  0  0  0  0  0  0  0  0  0  0  0
    2.5610    2.4017    2.8672 H   0  0  0  0  0  0  0  0  0  0  0  0
    1.1879    3.3042    2.1830 H   0  0  0  0  0  0  0  0  0  0  0  0
  5  6  2  0  0  0  0
  5  7  1  0  0  0  0
  2  3  1  0  0  0  0
  2  4  1  0  0  0  0
  2  5  1  0  0  0  0
  1  2  1  0  0  0  0
 17 18  2  0  0  0  0
 17 19  1  0  0  0  0
 14 15  1  0  0  0  0
 14 16  2  0  0  0  0
 11 12  1  0  0  0  0
 11 13  1  0  0  0  0
 11 14  1  0  0  0  0
  9 10  1  0  0  0  0
  9 11  1  0  0  0  0
  9 17  1  0  0  0  0
  7  8  1  0  0  0  0
  7  9  1  0  0  0  0
 21 22  1  0  0  0  0
 21 23  1  0  0  0  0
 21 24  1  0  0  0  0
 19 20  1  0  0  0  0
 19 21  1  0  0  0  0
M  CHG  1  15  -1
M  END
$$$$
default_name
  -OEChem-01062215323D

 24 23  0     1  0  0  0  0  0999 V2000
   -2.8347   -3.7166    0.8034 H   0  0  0  0  0  0  0  0  0  0  0  0
   -2.7728   -2.7096    0.3954 C   0  0  0  0  0  0  0  0  0  0  0  0
   -3.4267   -2.0426    0.9524 H   0  0  0  0  0  0  0  0  0  0  0  0
   -3.0538   -2.7186   -0.6556 H   0  0  0  0  0  0  0  0  0  0  0  0
   -1.3498   -2.2206    0.5184 C   0  0  0  0  0  0  0  0  0  0  0  0
   -0.4997   -2.9426    1.0194 O   0  0  0  0  0  0  0  0  0  0  0  0
   -1.1198   -0.9926    0.0674 N   0  0  0  0  0  0  0  0  0  0  0  0
   -1.8978   -0.4486   -0.2716 H   0  0  0  0  0  0  0  0  0  0  0  0
    0.1693   -0.2866    0.0854 C   0  0  1  0  0  0  0  0  0  0  0  0
    0.9777   -1.0183    0.0374 H   0  0  0  0  0  0  0  0  0  0  0  0
    0.2677    0.6261   -1.1562 C   0  0  0  0  0  0  0  0  0  0  0  0
   -0.6318    1.2419   -1.2104 H   0  0  0  0  0  0  0  0  0  0  0  0
    1.1223    1.2951   -1.0343 H   0  0  0  0  0  0  0  0  0  0  0  0
    0.3980   -0.1246   -2.4907 C   0  0  0  0  0  0  0  0  0  0  0  0
    0.9504   -1.2500   -2.4935 O   0  5  0  0  0  0  0  0  0  0  0  0
   -0.0435    0.4489   -3.5097 O   0  0  0  0  0  0  0  0  0  0  0  0
    0.3120    0.5056    1.4057 C   0  0  0  0  0  0  0  0  0  0  0  0
   -0.5819    0.4667    2.2596 O   0  0  0  0  0  0  0  0  0  0  0  0
    1.4316    1.2115    1.5924 N   0  0  0  0  0  0  0  0  0  0  0  0
    2.0698    1.2515    0.7954 H   0  0  0  0  0  0  0  0  0  0  0  0
    1.7265    2.0269    2.7658 C   0  0  0  0  0  0  0  0  0  0  0  0
    1.4663    1.4767    3.6710 H   0  0  0  0  0  0  0  0  0  0  0  0
    2.7871    2.2765    2.7804 H   0  0  0  0  0  0  0  0  0  0  0  0
    1.1380    2.9436    2.7234 H   0  0  0  0  0  0  0  0  0  0  0  0
  5  6  2  0  0  0  0
  5  7  1  0  0  0  0
  2  3  1  0  0  0  0
  2  4  1  0  0  0  0
  2  5  1  0  0  0  0
  1  2  1  0  0  0  0
 17 18  2  0  0  0  0
 17 19  1  0  0  0  0
 14 15  1  0  0  0  0
 14 16  2  0  0  0  0
 11 12  1  0  0  0  0
 11 13  1  0  0  0  0
 11 14  1  0  0  0  0
  9 10  1  0  0  0  0
  9 11  1  0  0  0  0
  9 17  1  0  0  0  0
  7  8  1  0  0  0  0
  7  9  1  0  0  0  0
 21 22  1  0  0  0  0
 21 23  1  0  0  0  0
 21 24  1  0  0  0  0
 19 20  1  0  0  0  0
 19 21  1  0  0  0  0
M  CHG  1  15  -1
M  END
$$$$
default_name
  -OEChem-01062215323D

 24 23  0     1  0  0  0  0  0999 V2000
   -2.8347   -3.7166    0.8034 H   0  0  0  0  0  0  0  0  0  0  0  0
   -2.7728   -2.7096    0.3954 C   0  0  0  0  0  0  0  0  0  0  0  0
   -3.4267   -2.0426    0.9524 H   0  0  0  0  0  0  0  0  0  0  0  0
   -3.0538   -2.7186   -0.6556 H   0  0  0  0  0  0  0  0  0  0  0  0
   -1.3498   -2.2206    0.5184 C   0  0  0  0  0  0  0  0  0  0  0  0
   -0.4997   -2.9426    1.0194 O   0  0  0  0  0  0  0  0  0  0  0  0
   -1.1198   -0.9926    0.0674 N   0  0  0  0  0  0  0  0  0  0  0  0
   -1.8978   -0.4486   -0.2716 H   0  0  0  0  0  0  0  0  0  0  0  0
    0.1693   -0.2866    0.0854 C   0  0  1  0  0  0  0  0  0  0  0  0
    0.9777   -1.0183    0.0374 H   0  0  0  0  0  0  0  0  0  0  0  0
    0.2677    0.6261   -1.1562 C   0  0  0  0  0  0  0  0  0  0  0  0
   -0.6318    1.2419   -1.2104 H   0  0  0  0  0  0  0  0  0  0  0  0
    1.1223    1.2951   -1.0343 H   0  0  0  0  0  0  0  0  0  0  0  0
    0.3980   -0.1246   -2.4907 C   0  0  0  0  0  0  0  0  0  0  0  0
    0.9504   -1.2500   -2.4935 O   0  5  0  0  0  0  0  0  0  0  0  0
   -0.0435    0.4489   -3.5097 O   0  0  0  0  0  0  0  0  0  0  0  0
    0.3120    0.5056    1.4057 C   0  0  0  0  0  0  0  0  0  0  0  0
   -0.4276    0.2610    2.3663 O   0  0  0  0  0  0  0  0  0  0  0  0
    1.2642    1.4413    1.4726 N   0  0  0  0  0  0  0  0  0  0  0  0
    1.7642    1.6296    0.6016 H   0  0  0  0  0  0  0  0  0  0  0  0
    1.5289    2.2913    2.6285 C   0  0  0  0  0  0  0  0  0  0  0  0
    1.5207    1.6889    3.5378 H   0  0  0  0  0  0  0  0  0  0  0  0
    2.5009    2.7706    2.5149 H   0  0  0  0  0  0  0  0  0  0  0  0
    0.7535    3.0544    2.6985 H   0  0  0  0  0  0  0  0  0  0  0  0
  5  6  2  0  0  0  0
  5  7  1  0  0  0  0
  2  3  1  0  0  0  0
  2  4  1  0  0  0  0
  2  5  1  0  0  0  0
  1  2  1  0  0  0  0
 17 18  2  0  0  0  0
 17 19  1  0  0  0  0
 14 15  1  0  0  0  0
 14 16  2  0  0  0  0
 11 12  1  0  0  0  0
 11 13  1  0  0  0  0
 11 14  1  0  0  0  0
  9 10  1  0  0  0  0
  9 11  1  0  0  0  0
  9 17  1  0  0  0  0
  7  8  1  0  0  0  0
  7  9  1  0  0  0  0
 21 22  1  0  0  0  0
 21 23  1  0  0  0  0
 21 24  1  0  0  0  0
 19 20  1  0  0  0  0
 19 21  1  0  0  0  0
M  CHG  1  15  -1
M  END
$$$$
default_name
  -OEChem-01062215323D

 24 23  0     1  0  0  0  0  0999 V2000
   -2.8347   -3.7166    0.8034 H   0  0  0  0  0  0  0  0  0  0  0  0
   -2.7728   -2.7096    0.3954 C   0  0  0  0  0  0  0  0  0  0  0  0
   -3.4267   -2.0426    0.9524 H   0  0  0  0  0  0  0  0  0  0  0  0
   -3.0538   -2.7186   -0.6556 H   0  0  0  0  0  0  0  0  0  0  0  0
   -1.3498   -2.2206    0.5184 C   0  0  0  0  0  0  0  0  0  0  0  0
   -0.4997   -2.9426    1.0194 O   0  0  0  0  0  0  0  0  0  0  0  0
   -1.1198   -0.9926    0.0674 N   0  0  0  0  0  0  0  0  0  0  0  0
   -1.8978   -0.4486   -0.2716 H   0  0  0  0  0  0  0  0  0  0  0  0
    0.1693   -0.2866    0.0854 C   0  0  1  0  0  0  0  0  0  0  0  0
    0.9777   -1.0183    0.0374 H   0  0  0  0  0  0  0  0  0  0  0  0
    0.2677    0.6261   -1.1562 C   0  0  0  0  0  0  0  0  0  0  0  0
   -0.6318    1.2419   -1.2104 H   0  0  0  0  0  0  0  0  0  0  0  0
    1.1223    1.2951   -1.0343 H   0  0  0  0  0  0  0  0  0  0  0  0
    0.3980   -0.1246   -2.4907 C   0  0  0  0  0  0  0  0  0  0  0  0
    0.9504   -1.2500   -2.4935 O   0  5  0  0  0  0  0  0  0  0  0  0
   -0.0435    0.4489   -3.5097 O   0  0  0  0  0  0  0  0  0  0  0  0
    0.3120    0.5056    1.4057 C   0  0  0  0  0  0  0  0  0  0  0  0
   -0.2190    0.0939    2.4440 O   0  0  0  0  0  0  0  0  0  0  0  0
    1.0358    1.6291    1.3846 N   0  0  0  0  0  0  0  0  0  0  0  0
    1.3598    1.9318    0.4640 H   0  0  0  0  0  0  0  0  0  0  0  0
    1.2615    2.5064    2.5284 C   0  0  0  0  0  0  0  0  0  0  0  0
    1.5087    1.9091    3.4070 H   0  0  0  0  0  0  0  0  0  0  0  0
    2.0802    3.1910    2.3081 H   0  0  0  0  0  0  0  0  0  0  0  0
    0.3543    3.0770    2.7281 H   0  0  0  0  0  0  0  0  0  0  0  0
  5  6  2  0  0  0  0
  5  7  1  0  0  0  0
  2  3  1  0  0  0  0
  2  4  1  0  0  0  0
  2  5  1  0  0  0  0
  1  2  1  0  0  0  0
 17 18  2  0  0  0  0
 17 19  1  0  0  0  0
 14 15  1  0  0  0  0
 14 16  2  0  0  0  0
 11 12  1  0  0  0  0
 11 13  1  0  0  0  0
 11 14  1  0  0  0  0
  9 10  1  0  0  0  0
  9 11  1  0  0  0  0
  9 17  1  0  0  0  0
  7  8  1  0  0  0  0
  7  9  1  0  0  0  0
 21 22  1  0  0  0  0
 21 23  1  0  0  0  0
 21 24  1  0  0  0  0
 19 20  1  0  0  0  0
 19 21  1  0  0  0  0
M  CHG  1  15  -1
M  END
$$$$
default_name
  -OEChem-01062215323D

 24 23  0     1  0  0  0  0  0999 V2000
   -2.8347   -3.7166    0.8034 H   0  0  0  0  0  0  0  0  0  0  0  0
   -2.7728   -2.7096    0.3954 C   0  0  0  0  0  0  0  0  0  0  0  0
   -3.4267   -2.0426    0.9524 H   0  0  0  0  0  0  0  0  0  0  0  0
   -3.0538   -2.7186   -0.6556 H   0  0  0  0  0  0  0  0  0  0  0  0
   -1.3498   -2.2206    0.5184 C   0  0  0  0  0  0  0  0  0  0  0  0
   -0.4997   -2.9426    1.0194 O   0  0  0  0  0  0  0  0  0  0  0  0
   -1.1198   -0.9926    0.0674 N   0  0  0  0  0  0  0  0  0  0  0  0
   -1.8978   -0.4486   -0.2716 H   0  0  0  0  0  0  0  0  0  0  0  0
    0.1693   -0.2866    0.0854 C   0  0  1  0  0  0  0  0  0  0  0  0
    0.9777   -1.0183    0.0374 H   0  0  0  0  0  0  0  0  0  0  0  0
    0.2677    0.6261   -1.1562 C   0  0  0  0  0  0  0  0  0  0  0  0
   -0.6318    1.2419   -1.2104 H   0  0  0  0  0  0  0  0  0  0  0  0
    1.1223    1.2951   -1.0343 H   0  0  0  0  0  0  0  0  0  0  0  0
    0.3980   -0.1246   -2.4907 C   0  0  0  0  0  0  0  0  0  0  0  0
    0.9504   -1.2500   -2.4935 O   0  5  0  0  0  0  0  0  0  0  0  0
   -0.0435    0.4489   -3.5097 O   0  0  0  0  0  0  0  0  0  0  0  0
    0.3120    0.5056    1.4057 C   0  0  0  0  0  0  0  0  0  0  0  0
    0.0297   -0.0233    2.4875 O   0  0  0  0  0  0  0  0  0  0  0  0
    0.7620    1.7622    1.3343 N   0  0  0  0  0  0  0  0  0  0  0  0
    0.8841    2.1377    0.3919 H   0  0  0  0  0  0  0  0  0  0  0  0
    0.9424    2.6574    2.4723 C   0  0  0  0  0  0  0  0  0  0  0  0
    1.4312    2.1223    3.2875 H   0  0  0  0  0  0  0  0  0  0  0  0
    1.5534    3.5090    2.1743 H   0  0  0  0  0  0  0  0  0  0  0  0
   -0.0323    3.0099    2.8101 H   0  0  0  0  0  0  0  0  0  0  0  0
  5  6  2  0  0  0  0
  5  7  1  0  0  0  0
  2  3  1  0  0  0  0
  2  4  1  0  0  0  0
  2  5  1  0  0  0  0
  1  2  1  0  0  0  0
 17 18  2  0  0  0  0
 17 19  1  0  0  0  0
 14 15  1  0  0  0  0
 14 16  2  0  0  0  0
 11 12  1  0  0  0  0
 11 13  1  0  0  0  0
 11 14  1  0  0  0  0
  9 10  1  0  0  0  0
  9 11  1  0  0  0  0
  9 17  1  0  0  0  0
  7  8  1  0  0  0  0
  7  9  1  0  0  0  0
 21 22  1  0  0  0  0
 21 23  1  0  0  0  0
 21 24  1  0  0  0  0
 19 20  1  0  0  0  0
 19 21  1  0  0  0  0
M  CHG  1  15  -1
M  END
$$$$
default_name
  -OEChem-01062215323D

 24 23  0     1  0  0  0  0  0999 V2000
   -2.8347   -3.7166    0.8034 H   0  0  0  0  0  0  0  0  0  0  0  0
   -2.7728   -2.7096    0.3954 C   0  0  0  0  0  0  0  0  0  0  0  0
   -3.4267   -2.0426    0.9524 H   0  0  0  0  0  0  0  0  0  0  0  0
   -3.0538   -2.7186   -0.6556 H   0  0  0  0  0  0  0  0  0  0  0  0
   -1.3498   -2.2206    0.5184 C   0  0  0  0  0  0  0  0  0  0  0  0
   -0.4997   -2.9426    1.0194 O   0  0  0  0  0  0  0  0  0  0  0  0
   -1.1198   -0.9926    0.0674 N   0  0  0  0  0  0  0  0  0  0  0  0
   -1.8978   -0.4486   -0.2716 H   0  0  0  0  0  0  0  0  0  0  0  0
    0.1693   -0.2866    0.0854 C   0  0  1  0  0  0  0  0  0  0  0  0
    0.9777   -1.0183    0.0374 H   0  0  0  0  0  0  0  0  0  0  0  0
    0.2677    0.6261   -1.1562 C   0  0  0  0  0  0  0  0  0  0  0  0
   -0.6318    1.2419   -1.2104 H   0  0  0  0  0  0  0  0  0  0  0  0
    1.1223    1.2951   -1.0343 H   0  0  0  0  0  0  0  0  0  0  0  0
    0.3980   -0.1246   -2.4907 C   0  0  0  0  0  0  0  0  0  0  0  0
    0.9504   -1.2500   -2.4935 O   0  5  0  0  0  0  0  0  0  0  0  0
   -0.0435    0.4489   -3.5097 O   0  0  0  0  0  0  0  0  0  0  0  0
    0.3120    0.5056    1.4057 C   0  0  0  0  0  0  0  0  0  0  0  0
    0.3016   -0.0825    2.4936 O   0  0  0  0  0  0  0  0  0  0  0  0
    0.4615    1.8315    1.3252 N   0  0  0  0  0  0  0  0  0  0  0  0
    0.3696    2.2331    0.3902 H   0  0  0  0  0  0  0  0  0  0  0  0
    0.5933    2.7340    2.4640 C   0  0  0  0  0  0  0  0  0  0  0  0
    1.2933    2.3139    3.1874 H   0  0  0  0  0  0  0  0  0  0  0  0
    0.9566    3.7029    2.1224 H   0  0  0  0  0  0  0  0  0  0  0  0
   -0.3801    2.8577    2.9390 H   0  0  0  0  0  0  0  0  0  0  0  0
  5  6  2  0  0  0  0
  5  7  1  0  0  0  0
  2  3  1  0  0  0  0
  2  4  1  0  0  0  0
  2  5  1  0  0  0  0
  1  2  1  0  0  0  0
 17 18  2  0  0  0  0
 17 19  1  0  0  0  0
 14 15  1  0  0  0  0
 14 16  2  0  0  0  0
 11 12  1  0  0  0  0
 11 13  1  0  0  0  0
 11 14  1  0  0  0  0
  9 10  1  0  0  0  0
  9 11  1  0  0  0  0
  9 17  1  0  0  0  0
  7  8  1  0  0  0  0
  7  9  1  0  0  0  0
 21 22  1  0  0  0  0
 21 23  1  0  0  0  0
 21 24  1  0  0  0  0
 19 20  1  0  0  0  0
 19 21  1  0  0  0  0
M  CHG  1  15  -1
M  END
$$$$
default_name
  -OEChem-01062215323D

 24 23  0     1  0  0  0  0  0999 V2000
   -2.8347   -3.7166    0.8034 H   0  0  0  0  0  0  0  0  0  0  0  0
   -2.7728   -2.7096    0.3954 C   0  0  0  0  0  0  0  0  0  0  0  0
   -3.4267   -2.0426    0.9524 H   0  0  0  0  0  0  0  0  0  0  0  0
   -3.0538   -2.7186   -0.6556 H   0  0  0  0  0  0  0  0  0  0  0  0
   -1.3498   -2.2206    0.5184 C   0  0  0  0  0  0  0  0  0  0  0  0
   -0.4997   -2.9426    1.0194 O   0  0  0  0  0  0  0  0  0  0  0  0
   -1.1198   -0.9926    0.0674 N   0  0  0  0  0  0  0  0  0  0  0  0
   -1.8978   -0.4486   -0.2716 H   0  0  0  0  0  0  0  0  0  0  0  0
    0.1693   -0.2866    0.0854 C   0  0  1  0  0  0  0  0  0  0  0  0
    0.9777   -1.0183    0.0374 H   0  0  0  0  0  0  0  0  0  0  0  0
    0.2677    0.6261   -1.1562 C   0  0  0  0  0  0  0  0  0  0  0  0
   -0.6318    1.2419   -1.2104 H   0  0  0  0  0  0  0  0  0  0  0  0
    1.1223    1.2951   -1.0343 H   0  0  0  0  0  0  0  0  0  0  0  0
    0.3980   -0.1246   -2.4907 C   0  0  0  0  0  0  0  0  0  0  0  0
    0.9504   -1.2500   -2.4935 O   0  5  0  0  0  0  0  0  0  0  0  0
   -0.0435    0.4489   -3.5097 O   0  0  0  0  0  0  0  0  0  0  0  0
    0.3120    0.5056    1.4057 C   0  0  0  0  0  0  0  0  0  0  0  0
    0.5781   -0.0798    2.4621 O   0  0  0  0  0  0  0  0  0  0  0  0
    0.1547    1.8321    1.3580 N   0  0  0  0  0  0  0  0  0  0  0  0
   -0.1487    2.2117    0.4591 H   0  0  0  0  0  0  0  0  0  0  0  0
    0.2381    2.7312    2.5041 C   0  0  0  0  0  0  0  0  0  0  0  0
    1.1044    2.4708    3.1136 H   0  0  0  0  0  0  0  0  0  0  0  0
    0.3303    3.7596    2.1561 H   0  0  0  0  0  0  0  0  0  0  0  0
   -0.6653    2.6308    3.1060 H   0  0  0  0  0  0  0  0  0  0  0  0
  5  6  2  0  0  0  0
  5  7  1  0  0  0  0
  2  3  1  0  0  0  0
  2  4  1  0  0  0  0
  2  5  1  0  0  0  0
  1  2  1  0  0  0  0
 17 18  2  0  0  0  0
 17 19  1  0  0  0  0
 14 15  1  0  0  0  0
 14 16  2  0  0  0  0
 11 12  1  0  0  0  0
 11 13  1  0  0  0  0
 11 14  1  0  0  0  0
  9 10  1  0  0  0  0
  9 11  1  0  0  0  0
  9 17  1  0  0  0  0
  7  8  1  0  0  0  0
  7  9  1  0  0  0  0
 21 22  1  0  0  0  0
 21 23  1  0  0  0  0
 21 24  1  0  0  0  0
 19 20  1  0  0  0  0
 19 21  1  0  0  0  0
M  CHG  1  15  -1
M  END
$$$$
default_name
  -OEChem-01062215323D

 24 23  0     1  0  0  0  0  0999 V2000
   -2.8347   -3.7166    0.8034 H   0  0  0  0  0  0  0  0  0  0  0  0
   -2.7728   -2.7096    0.3954 C   0  0  0  0  0  0  0  0  0  0  0  0
   -3.4267   -2.0426    0.9524 H   0  0  0  0  0  0  0  0  0  0  0  0
   -3.0538   -2.7186   -0.6556 H   0  0  0  0  0  0  0  0  0  0  0  0
   -1.3498   -2.2206    0.5184 C   0  0  0  0  0  0  0  0  0  0  0  0
   -0.4997   -2.9426    1.0194 O   0  0  0  0  0  0  0  0  0  0  0  0
   -1.1198   -0.9926    0.0674 N   0  0  0  0  0  0  0  0  0  0  0  0
   -1.8978   -0.4486   -0.2716 H   0  0  0  0  0  0  0  0  0  0  0  0
    0.1693   -0.2866    0.0854 C   0  0  1  0  0  0  0  0  0  0  0  0
    0.9777   -1.0183    0.0374 H   0  0  0  0  0  0  0  0  0  0  0  0
    0.2677    0.6261   -1.1562 C   0  0  0  0  0  0  0  0  0  0  0  0
   -0.6318    1.2419   -1.2104 H   0  0  0  0  0  0  0  0  0  0  0  0
    1.1223    1.2951   -1.0343 H   0  0  0  0  0  0  0  0  0  0  0  0
    0.3980   -0.1246   -2.4907 C   0  0  0  0  0  0  0  0  0  0  0  0
    0.9504   -1.2500   -2.4935 O   0  5  0  0  0  0  0  0  0  0  0  0
   -0.0435    0.4489   -3.5097 O   0  0  0  0  0  0  0  0  0  0  0  0
    0.3120    0.5056    1.4057 C   0  0  0  0  0  0  0  0  0  0  0  0
    0.8405   -0.0153    2.3951 O   0  0  0  0  0  0  0  0  0  0  0  0
   -0.1375    1.7642    1.4303 N   0  0  0  0  0  0  0  0  0  0  0  0
   -0.6355    2.0747    0.5939 H   0  0  0  0  0  0  0  0  0  0  0  0
   -0.0990    2.6489    2.5899 C   0  0  0  0  0  0  0  0  0  0  0  0
    0.8776    2.5825    3.0711 H   0  0  0  0  0  0  0  0  0  0  0  0
   -0.2826    3.6752    2.2730 H   0  0  0  0  0  0  0  0  0  0  0  0
   -0.8685    2.3446    3.2997 H   0  0  0  0  0  0  0  0  0  0  0  0
  5  6  2  0  0  0  0
  5  7  1  0  0  0  0
  2  3  1  0  0  0  0
  2  4  1  0  0  0  0
  2  5  1  0  0  0  0
  1  2  1  0  0  0  0
 17 18  2  0  0  0  0
 17 19  1  0  0  0  0
 14 15  1  0  0  0  0
 14 16  2  0  0  0  0
 11 12  1  0  0  0  0
 11 13  1  0  0  0  0
 11 14  1  0  0  0  0
  9 10  1  0  0  0  0
  9 11  1  0  0  0  0
  9 17  1  0  0  0  0
  7  8  1  0  0  0  0
  7  9  1  0  0  0  0
 21 22  1  0  0  0  0
 21 23  1  0  0  0  0
 21 24  1  0  0  0  0
 19 20  1  0  0  0  0
 19 21  1  0  0  0  0
M  CHG  1  15  -1
M  END
$$$$
default_name
  -OEChem-01062215323D

 24 23  0     1  0  0  0  0  0999 V2000
   -2.8347   -3.7166    0.8034 H   0  0  0  0  0  0  0  0  0  0  0  0
   -2.7728   -2.7096    0.3954 C   0  0  0  0  0  0  0  0  0  0  0  0
   -3.4267   -2.0426    0.9524 H   0  0  0  0  0  0  0  0  0  0  0  0
   -3.0538   -2.7186   -0.6556 H   0  0  0  0  0  0  0  0  0  0  0  0
   -1.3498   -2.2206    0.5184 C   0  0  0  0  0  0  0  0  0  0  0  0
   -0.4997   -2.9426    1.0194 O   0  0  0  0  0  0  0  0  0  0  0  0
   -1.1198   -0.9926    0.0674 N   0  0  0  0  0  0  0  0  0  0  0  0
   -1.8978   -0.4486   -0.2716 H   0  0  0  0  0  0  0  0  0  0  0  0
    0.1693   -0.2866    0.0854 C   0  0  1  0  0  0  0  0  0  0  0  0
    0.9777   -1.0183    0.0374 H   0  0  0  0  0  0  0  0  0  0  0  0
    0.2677    0.6261   -1.1562 C   0  0  0  0  0  0  0  0  0  0  0  0
   -0.6318    1.2419   -1.2104 H   0  0  0  0  0  0  0  0  0  0  0  0
    1.1223    1.2951   -1.0343 H   0  0  0  0  0  0  0  0  0  0  0  0
    0.3980   -0.1246   -2.4907 C   0  0  0  0  0  0  0  0  0  0  0  0
    0.9504   -1.2500   -2.4935 O   0  5  0  0  0  0  0  0  0  0  0  0
   -0.0435    0.4489   -3.5097 O   0  0  0  0  0  0  0  0  0  0  0  0
    0.3120    0.5056    1.4057 C   0  0  0  0  0  0  0  0  0  0  0  0
    1.0707    0.1065    2.2971 O   0  0  0  0  0  0  0  0  0  0  0  0
   -0.3951    1.6323    1.5373 N   0  0  0  0  0  0  0  0  0  0  0  0
   -1.0575    1.8317    0.7853 H   0  0  0  0  0  0  0  0  0  0  0  0
   -0.3952    2.4929    2.7155 C   0  0  0  0  0  0  0  0  0  0  0  0
    0.6281    2.6413    3.0628 H   0  0  0  0  0  0  0  0  0  0  0  0
   -0.8406    3.4554    2.4652 H   0  0  0  0  0  0  0  0  0  0  0  0
   -0.9758    2.0186    3.5069 H   0  0  0  0  0  0  0  0  0  0  0  0
  5  6  2  0  0  0  0
  5  7  1  0  0  0  0
  2  3  1  0  0  0  0
  2  4  1  0  0  0  0
  2  5  1  0  0  0  0
  1  2  1  0  0  0  0
 17 18  2  0  0  0  0
 17 19  1  0  0  0  0
 14 15  1  0  0  0  0
 14 16  2  0  0  0  0
 11 12  1  0  0  0  0
 11 13  1  0  0  0  0
 11 14  1  0  0  0  0
  9 10  1  0  0  0  0
  9 11  1  0  0  0  0
  9 17  1  0  0  0  0
  7  8  1  0  0  0  0
  7  9  1  0  0  0  0
 21 22  1  0  0  0  0
 21 23  1  0  0  0  0
 21 24  1  0  0  0  0
 19 20  1  0  0  0  0
 19 21  1  0  0  0  0
M  CHG  1  15  -1
M  END
$$$$
default_name
  -OEChem-01062215323D

 24 23  0     1  0  0  0  0  0999 V2000
   -2.8347   -3.7166    0.8034 H   0  0  0  0  0  0  0  0  0  0  0  0
   -2.7728   -2.7096    0.3954 C   0  0  0  0  0  0  0  0  0  0  0  0
   -3.4267   -2.0426    0.9524 H   0  0  0  0  0  0  0  0  0  0  0  0
   -3.0538   -2.7186   -0.6556 H   0  0  0  0  0  0  0  0  0  0  0  0
   -1.3498   -2.2206    0.5184 C   0  0  0  0  0  0  0  0  0  0  0  0
   -0.4997   -2.9426    1.0194 O   0  0  0  0  0  0  0  0  0  0  0  0
   -1.1198   -0.9926    0.0674 N   0  0  0  0  0  0  0  0  0  0  0  0
   -1.8978   -0.4486   -0.2716 H   0  0  0  0  0  0  0  0  0  0  0  0
    0.1693   -0.2866    0.0854 C   0  0  1  0  0  0  0  0  0  0  0  0
    0.9777   -1.0183    0.0374 H   0  0  0  0  0  0  0  0  0  0  0  0
    0.2677    0.6261   -1.1562 C   0  0  0  0  0  0  0  0  0  0  0  0
   -0.6318    1.2419   -1.2104 H   0  0  0  0  0  0  0  0  0  0  0  0
    1.1223    1.2951   -1.0343 H   0  0  0  0  0  0  0  0  0  0  0  0
    0.3980   -0.1246   -2.4907 C   0  0  0  0  0  0  0  0  0  0  0  0
    0.9504   -1.2500   -2.4935 O   0  5  0  0  0  0  0  0  0  0  0  0
   -0.0435    0.4489   -3.5097 O   0  0  0  0  0  0  0  0  0  0  0  0
    0.3120    0.5056    1.4057 C   0  0  0  0  0  0  0  0  0  0  0  0
    1.2532    0.2774    2.1748 O   0  0  0  0  0  0  0  0  0  0  0  0
   -0.6006    1.4454    1.6717 N   0  0  0  0  0  0  0  0  0  0  0  0
   -1.3861    1.4991    1.0204 H   0  0  0  0  0  0  0  0  0  0  0  0
   -0.6301    2.2738    2.8723 C   0  0  0  0  0  0  0  0  0  0  0  0
    0.3731    2.6431    3.0893 H   0  0  0  0  0  0  0  0  0  0  0  0
   -1.3054    3.1152    2.7195 H   0  0  0  0  0  0  0  0  0  0  0  0
   -0.9800    1.6750    3.7135 H   0  0  0  0  0  0  0  0  0  0  0  0
  5  6  2  0  0  0  0
  5  7  1  0  0  0  0
  2  3  1  0  0  0  0
  2  4  1  0  0  0  0
  2  5  1  0  0  0  0
  1  2  1  0  0  0  0
 17 18  2  0  0  0  0
 17 19  1  0  0  0  0
 14 15  1  0  0  0  0
 14 16  2  0  0  0  0
 11 12  1  0  0  0  0
 11 13  1  0  0  0  0
 11 14  1  0  0  0  0
  9 10  1  0  0  0  0
  9 11  1  0  0  0  0
  9 17  1  0  0  0  0
  7  8  1  0  0  0  0
  7  9  1  0  0  0  0
 21 22  1  0  0  0  0
 21 23  1  0  0  0  0
 21 24  1  0  0  0  0
 19 20  1  0  0  0  0
 19 21  1  0  0  0  0
M  CHG  1  15  -1
M  END
$$$$
default_name
  -OEChem-01062215323D

 24 23  0     1  0  0  0  0  0999 V2000
   -2.8347   -3.7166    0.8034 H   0  0  0  0  0  0  0  0  0  0  0  0
   -2.7728   -2.7096    0.3954 C   0  0  0  0  0  0  0  0  0  0  0  0
   -3.4267   -2.0426    0.9524 H   0  0  0  0  0  0  0  0  0  0  0  0
   -3.0538   -2.7186   -0.6556 H   0  0  0  0  0  0  0  0  0  0  0  0
   -1.3498   -2.2206    0.5184 C   0  0  0  0  0  0  0  0  0  0  0  0
   -0.4997   -2.9426    1.0194 O   0  0  0  0  0  0  0  0  0  0  0  0
   -1.1198   -0.9926    0.0674 N   0  0  0  0  0  0  0  0  0  0  0  0
   -1.8978   -0.4486   -0.2716 H   0  0  0  0  0  0  0  0  0  0  0  0
    0.1693   -0.2866    0.0854 C   0  0  1  0  0  0  0  0  0  0  0  0
    0.9777   -1.0183    0.0374 H   0  0  0  0  0  0  0  0  0  0  0  0
    0.2677    0.6261   -1.1562 C   0  0  0  0  0  0  0  0  0  0  0  0
   -0.6318    1.2419   -1.2104 H   0  0  0  0  0  0  0  0  0  0  0  0
    1.1223    1.2951   -1.0343 H   0  0  0  0  0  0  0  0  0  0  0  0
    0.3980   -0.1246   -2.4907 C   0  0  0  0  0  0  0  0  0  0  0  0
    0.9504   -1.2500   -2.4935 O   0  5  0  0  0  0  0  0  0  0  0  0
   -0.0435    0.4489   -3.5097 O   0  0  0  0  0  0  0  0  0  0  0  0
    0.3120    0.5056    1.4057 C   0  0  0  0  0  0  0  0  0  0  0  0
    1.3755    0.4858    2.0366 O   0  0  0  0  0  0  0  0  0  0  0  0
   -0.7400    1.2163    1.8242 N   0  0  0  0  0  0  0  0  0  0  0  0
   -1.5988    1.0996    1.2831 H   0  0  0  0  0  0  0  0  0  0  0  0
   -0.7877    2.0065    3.0498 C   0  0  0  0  0  0  0  0  0  0  0  0
    0.1299    2.5879    3.1487 H   0  0  0  0  0  0  0  0  0  0  0  0
   -1.6455    2.6778    3.0187 H   0  0  0  0  0  0  0  0  0  0  0  0
   -0.8807    1.3373    3.9054 H   0  0  0  0  0  0  0  0  0  0  0  0
  5  6  2  0  0  0  0
  5  7  1  0  0  0  0
  2  3  1  0  0  0  0
  2  4  1  0  0  0  0
  2  5  1  0  0  0  0
  1  2  1  0  0  0  0
 17 18  2  0  0  0  0
 17 19  1  0  0  0  0
 14 15  1  0  0  0  0
 14 16  2  0  0  0  0
 11 12  1  0  0  0  0
 11 13  1  0  0  0  0
 11 14  1  0  0  0  0
  9 10  1  0  0  0  0
  9 11  1  0  0  0  0
  9 17  1  0  0  0  0
  7  8  1  0  0  0  0
  7  9  1  0  0  0  0
 21 22  1  0  0  0  0
 21 23  1  0  0  0  0
 21 24  1  0  0  0  0
 19 20  1  0  0  0  0
 19 21  1  0  0  0  0
M  CHG  1  15  -1
M  END
$$$$
default_name
  -OEChem-01062215323D

 24 23  0     1  0  0  0  0  0999 V2000
   -2.8347   -3.7166    0.8034 H   0  0  0  0  0  0  0  0  0  0  0  0
   -2.7728   -2.7096    0.3954 C   0  0  0  0  0  0  0  0  0  0  0  0
   -3.4267   -2.0426    0.9524 H   0  0  0  0  0  0  0  0  0  0  0  0
   -3.0538   -2.7186   -0.6556 H   0  0  0  0  0  0  0  0  0  0  0  0
   -1.3498   -2.2206    0.5184 C   0  0  0  0  0  0  0  0  0  0  0  0
   -0.4997   -2.9426    1.0194 O   0  0  0  0  0  0  0  0  0  0  0  0
   -1.1198   -0.9926    0.0674 N   0  0  0  0  0  0  0  0  0  0  0  0
   -1.8978   -0.4486   -0.2716 H   0  0  0  0  0  0  0  0  0  0  0  0
    0.1693   -0.2866    0.0854 C   0  0  1  0  0  0  0  0  0  0  0  0
    0.9777   -1.0183    0.0374 H   0  0  0  0  0  0  0  0  0  0  0  0
    0.2677    0.6261   -1.1562 C   0  0  0  0  0  0  0  0  0  0  0  0
   -0.6318    1.2419   -1.2104 H   0  0  0  0  0  0  0  0  0  0  0  0
    1.1223    1.2951   -1.0343 H   0  0  0  0  0  0  0  0  0  0  0  0
    0.3980   -0.1246   -2.4907 C   0  0  0  0  0  0  0  0  0  0  0  0
    0.9504   -1.2500   -2.4935 O   0  5  0  0  0  0  0  0  0  0  0  0
   -0.0435    0.4489   -3.5097 O   0  0  0  0  0  0  0  0  0  0  0  0
    0.3120    0.5056    1.4057 C   0  0  0  0  0  0  0  0  0  0  0  0
    1.4293    0.7174    1.8918 O   0  0  0  0  0  0  0  0  0  0  0  0
   -0.8037    0.9605    1.9846 N   0  0  0  0  0  0  0  0  0  0  0  0
   -1.6812    0.6604    1.5555 H   0  0  0  0  0  0  0  0  0  0  0  0
   -0.8574    1.7093    3.2357 C   0  0  0  0  0  0  0  0  0  0  0  0
   -0.0850    2.4794    3.2371 H   0  0  0  0  0  0  0  0  0  0  0  0
   -1.8377    2.1730    3.3424 H   0  0  0  0  0  0  0  0  0  0  0  0
   -0.6847    1.0285    4.0695 H   0  0  0  0  0  0  0  0  0  0  0  0
  5  6  2  0  0  0  0
  5  7  1  0  0  0  0
  2  3  1  0  0  0  0
  2  4  1  0  0  0  0
  2  5  1  0  0  0  0
  1  2  1  0  0  0  0
 17 18  2  0  0  0  0
 17 19  1  0  0  0  0
 14 15  1  0  0  0  0
 14 16  2  0  0  0  0
 11 12  1  0  0  0  0
 11 13  1  0  0  0  0
 11 14  1  0  0  0  0
  9 10  1  0  0  0  0
  9 11  1  0  0  0  0
  9 17  1  0  0  0  0
  7  8  1  0  0  0  0
  7  9  1  0  0  0  0
 21 22  1  0  0  0  0
 21 23  1  0  0  0  0
 21 24  1  0  0  0  0
 19 20  1  0  0  0  0
 19 21  1  0  0  0  0
M  CHG  1  15  -1
M  END
$$$$
default_name
  -OEChem-01062215323D

 24 23  0     1  0  0  0  0  0999 V2000
   -2.8347   -3.7166    0.8034 H   0  0  0  0  0  0  0  0  0  0  0  0
   -2.7728   -2.7096    0.3954 C   0  0  0  0  0  0  0  0  0  0  0  0
   -3.4267   -2.0426    0.9524 H   0  0  0  0  0  0  0  0  0  0  0  0
   -3.0538   -2.7186   -0.6556 H   0  0  0  0  0  0  0  0  0  0  0  0
   -1.3498   -2.2206    0.5184 C   0  0  0  0  0  0  0  0  0  0  0  0
   -0.4997   -2.9426    1.0194 O   0  0  0  0  0  0  0  0  0  0  0  0
   -1.1198   -0.9926    0.0674 N   0  0  0  0  0  0  0  0  0  0  0  0
   -1.8978   -0.4486   -0.2716 H   0  0  0  0  0  0  0  0  0  0  0  0
    0.1693   -0.2866    0.0854 C   0  0  1  0  0  0  0  0  0  0  0  0
    0.9777   -1.0183    0.0374 H   0  0  0  0  0  0  0  0  0  0  0  0
    0.2677    0.6261   -1.1562 C   0  0  0  0  0  0  0  0  0  0  0  0
   -0.6318    1.2419   -1.2104 H   0  0  0  0  0  0  0  0  0  0  0  0
    1.1223    1.2951   -1.0343 H   0  0  0  0  0  0  0  0  0  0  0  0
    0.3980   -0.1246   -2.4907 C   0  0  0  0  0  0  0  0  0  0  0  0
    0.9504   -1.2500   -2.4935 O   0  5  0  0  0  0  0  0  0  0  0  0
   -0.0435    0.4489   -3.5097 O   0  0  0  0  0  0  0  0  0  0  0  0
    0.3120    0.5056    1.4057 C   0  0  0  0  0  0  0  0  0  0  0  0
    1.4108    0.9564    1.7504 O   0  0  0  0  0  0  0  0  0  0  0  0
   -0.7875    0.6955    2.1418 N   0  0  0  0  0  0  0  0  0  0  0  0
   -1.6275    0.2115    1.8191 H   0  0  0  0  0  0  0  0  0  0  0  0
   -0.8344    1.4023    3.4174 C   0  0  0  0  0  0  0  0  0  0  0  0
   -0.2568    2.3250    3.3483 H   0  0  0  0  0  0  0  0  0  0  0  0
   -1.8689    1.6352    3.6685 H   0  0  0  0  0  0  0  0  0  0  0  0
   -0.4054    0.7696    4.1946 H   0  0  0  0  0  0  0  0  0  0  0  0
  5  6  2  0  0  0  0
  5  7  1  0  0  0  0
  2  3  1  0  0  0  0
  2  4  1  0  0  0  0
  2  5  1  0  0  0  0
  1  2  1  0  0  0  0
 17 18  2  0  0  0  0
 17 19  1  0  0  0  0
 14 15  1  0  0  0  0
 14 16  2  0  0  0  0
 11 12  1  0  0  0  0
 11 13  1  0  0  0  0
 11 14  1  0  0  0  0
  9 10  1  0  0  0  0
  9 11  1  0  0  0  0
  9 17  1  0  0  0  0
  7  8  1  0  0  0  0
  7  9  1  0  0  0  0
 21 22  1  0  0  0  0
 21 23  1  0  0  0  0
 21 24  1  0  0  0  0
 19 20  1  0  0  0  0
 19 21  1  0  0  0  0
M  CHG  1  15  -1
M  END
$$$$
default_name
  -OEChem-01062215323D

 24 23  0     1  0  0  0  0  0999 V2000
   -2.8347   -3.7166    0.8034 H   0  0  0  0  0  0  0  0  0  0  0  0
   -2.7728   -2.7096    0.3954 C   0  0  0  0  0  0  0  0  0  0  0  0
   -3.4267   -2.0426    0.9524 H   0  0  0  0  0  0  0  0  0  0  0  0
   -3.0538   -2.7186   -0.6556 H   0  0  0  0  0  0  0  0  0  0  0  0
   -1.3498   -2.2206    0.5184 C   0  0  0  0  0  0  0  0  0  0  0  0
   -0.4997   -2.9426    1.0194 O   0  0  0  0  0  0  0  0  0  0  0  0
   -1.1198   -0.9926    0.0674 N   0  0  0  0  0  0  0  0  0  0  0  0
   -1.8978   -0.4486   -0.2716 H   0  0  0  0  0  0  0  0  0  0  0  0
    0.1693   -0.2866    0.0854 C   0  0  1  0  0  0  0  0  0  0  0  0
    0.9777   -1.0183    0.0374 H   0  0  0  0  0  0  0  0  0  0  0  0
    0.2677    0.6261   -1.1562 C   0  0  0  0  0  0  0  0  0  0  0  0
   -0.6318    1.2419   -1.2104 H   0  0  0  0  0  0  0  0  0  0  0  0
    1.1223    1.2951   -1.0343 H   0  0  0  0  0  0  0  0  0  0  0  0
    0.3980   -0.1246   -2.4907 C   0  0  0  0  0  0  0  0  0  0  0  0
    0.9504   -1.2500   -2.4935 O   0  5  0  0  0  0  0  0  0  0  0  0
   -0.0435    0.4489   -3.5097 O   0  0  0  0  0  0  0  0  0  0  0  0
    0.3120    0.5056    1.4057 C   0  0  0  0  0  0  0  0  0  0  0  0
    1.3214    1.1866    1.6219 O   0  0  0  0  0  0  0  0  0  0  0  0
   -0.6925    0.4394    2.2852 N   0  0  0  0  0  0  0  0  0  0  0  0
   -1.4416   -0.2165    2.0558 H   0  0  0  0  0  0  0  0  0  0  0  0
   -0.7203    1.1065    3.5825 C   0  0  0  0  0  0  0  0  0  0  0  0
   -0.3739    2.1352    3.4748 H   0  0  0  0  0  0  0  0  0  0  0  0
   -1.7369    1.1010    3.9747 H   0  0  0  0  0  0  0  0  0  0  0  0
   -0.0618    0.5782    4.2723 H   0  0  0  0  0  0  0  0  0  0  0  0
  5  6  2  0  0  0  0
  5  7  1  0  0  0  0
  2  3  1  0  0  0  0
  2  4  1  0  0  0  0
  2  5  1  0  0  0  0
  1  2  1  0  0  0  0
 17 18  2  0  0  0  0
 17 19  1  0  0  0  0
 14 15  1  0  0  0  0
 14 16  2  0  0  0  0
 11 12  1  0  0  0  0
 11 13  1  0  0  0  0
 11 14  1  0  0  0  0
  9 10  1  0  0  0  0
  9 11  1  0  0  0  0
  9 17  1  0  0  0  0
  7  8  1  0  0  0  0
  7  9  1  0  0  0  0
 21 22  1  0  0  0  0
 21 23  1  0  0  0  0
 21 24  1  0  0  0  0
 19 20  1  0  0  0  0
 19 21  1  0  0  0  0
M  CHG  1  15  -1
M  END
$$$$
default_name
  -OEChem-01062215323D

 24 23  0     1  0  0  0  0  0999 V2000
   -2.8347   -3.7166    0.8034 H   0  0  0  0  0  0  0  0  0  0  0  0
   -2.7728   -2.7096    0.3954 C   0  0  0  0  0  0  0  0  0  0  0  0
   -3.4267   -2.0426    0.9524 H   0  0  0  0  0  0  0  0  0  0  0  0
   -3.0538   -2.7186   -0.6556 H   0  0  0  0  0  0  0  0  0  0  0  0
   -1.3498   -2.2206    0.5184 C   0  0  0  0  0  0  0  0  0  0  0  0
   -0.4997   -2.9426    1.0194 O   0  0  0  0  0  0  0  0  0  0  0  0
   -1.1198   -0.9926    0.0674 N   0  0  0  0  0  0  0  0  0  0  0  0
   -1.8978   -0.4486   -0.2716 H   0  0  0  0  0  0  0  0  0  0  0  0
    0.1693   -0.2866    0.0854 C   0  0  1  0  0  0  0  0  0  0  0  0
    0.9777   -1.0183    0.0374 H   0  0  0  0  0  0  0  0  0  0  0  0
    0.2677    0.6261   -1.1562 C   0  0  0  0  0  0  0  0  0  0  0  0
   -0.6318    1.2419   -1.2104 H   0  0  0  0  0  0  0  0  0  0  0  0
    1.1223    1.2951   -1.0343 H   0  0  0  0  0  0  0  0  0  0  0  0
    0.3980   -0.1246   -2.4907 C   0  0  0  0  0  0  0  0  0  0  0  0
    0.9504   -1.2500   -2.4935 O   0  5  0  0  0  0  0  0  0  0  0  0
   -0.0435    0.4489   -3.5097 O   0  0  0  0  0  0  0  0  0  0  0  0
    0.3120    0.5056    1.4057 C   0  0  0  0  0  0  0  0  0  0  0  0
    1.1672    1.3922    1.5152 O   0  0  0  0  0  0  0  0  0  0  0  0
   -0.5250    0.2096    2.4050 N   0  0  0  0  0  0  0  0  0  0  0  0
   -1.1360   -0.5945    2.2496 H   0  0  0  0  0  0  0  0  0  0  0  0
   -0.5227    0.8421    3.7198 C   0  0  0  0  0  0  0  0  0  0  0  0
   -0.4283    1.9230    3.6080 H   0  0  0  0  0  0  0  0  0  0  0  0
   -1.4508    0.6069    4.2403 H   0  0  0  0  0  0  0  0  0  0  0  0
    0.3227    0.4675    4.2972 H   0  0  0  0  0  0  0  0  0  0  0  0
  5  6  2  0  0  0  0
  5  7  1  0  0  0  0
  2  3  1  0  0  0  0
  2  4  1  0  0  0  0
  2  5  1  0  0  0  0
  1  2  1  0  0  0  0
 17 18  2  0  0  0  0
 17 19  1  0  0  0  0
 14 15  1  0  0  0  0
 14 16  2  0  0  0  0
 11 12  1  0  0  0  0
 11 13  1  0  0  0  0
 11 14  1  0  0  0  0
  9 10  1  0  0  0  0
  9 11  1  0  0  0  0
  9 17  1  0  0  0  0
  7  8  1  0  0  0  0
  7  9  1  0  0  0  0
 21 22  1  0  0  0  0
 21 23  1  0  0  0  0
 21 24  1  0  0  0  0
 19 20  1  0  0  0  0
 19 21  1  0  0  0  0
M  CHG  1  15  -1
M  END
$$$$
default_name
  -OEChem-01062215323D

 24 23  0     1  0  0  0  0  0999 V2000
   -2.8347   -3.7166    0.8034 H   0  0  0  0  0  0  0  0  0  0  0  0
   -2.7728   -2.7096    0.3954 C   0  0  0  0  0  0  0  0  0  0  0  0
   -3.4267   -2.0426    0.9524 H   0  0  0  0  0  0  0  0  0  0  0  0
   -3.0538   -2.7186   -0.6556 H   0  0  0  0  0  0  0  0  0  0  0  0
   -1.3498   -2.2206    0.5184 C   0  0  0  0  0  0  0  0  0  0  0  0
   -0.4997   -2.9426    1.0194 O   0  0  0  0  0  0  0  0  0  0  0  0
   -1.1198   -0.9926    0.0674 N   0  0  0  0  0  0  0  0  0  0  0  0
   -1.8978   -0.4486   -0.2716 H   0  0  0  0  0  0  0  0  0  0  0  0
    0.1693   -0.2866    0.0854 C   0  0  1  0  0  0  0  0  0  0  0  0
    0.9777   -1.0183    0.0374 H   0  0  0  0  0  0  0  0  0  0  0  0
    0.2677    0.6261   -1.1562 C   0  0  0  0  0  0  0  0  0  0  0  0
   -0.6318    1.2419   -1.2104 H   0  0  0  0  0  0  0  0  0  0  0  0
    1.1223    1.2951   -1.0343 H   0  0  0  0  0  0  0  0  0  0  0  0
    0.3980   -0.1246   -2.4907 C   0  0  0  0  0  0  0  0  0  0  0  0
    0.9504   -1.2500   -2.4935 O   0  5  0  0  0  0  0  0  0  0  0  0
   -0.0435    0.4489   -3.5097 O   0  0  0  0  0  0  0  0  0  0  0  0
    0.3120    0.5056    1.4057 C   0  0  0  0  0  0  0  0  0  0  0  0
    0.9586    1.5593    1.4375 O   0  0  0  0  0  0  0  0  0  0  0  0
   -0.2966    0.0218    2.4930 N   0  0  0  0  0  0  0  0  0  0  0  0
   -0.7316   -0.8968    2.3872 H   0  0  0  0  0  0  0  0  0  0  0  0
   -0.2553    0.6270    3.8200 C   0  0  0  0  0  0  0  0  0  0  0  0
   -0.4163    1.7028    3.7388 H   0  0  0  0  0  0  0  0  0  0  0  0
   -1.0300    0.1865    4.4470 H   0  0  0  0  0  0  0  0  0  0  0  0
    0.7219    0.4449    4.2677 H   0  0  0  0  0  0  0  0  0  0  0  0
  5  6  2  0  0  0  0
  5  7  1  0  0  0  0
  2  3  1  0  0  0  0
  2  4  1  0  0  0  0
  2  5  1  0  0  0  0
  1  2  1  0  0  0  0
 17 18  2  0  0  0  0
 17 19  1  0  0  0  0
 14 15  1  0  0  0  0
 14 16  2  0  0  0  0
 11 12  1  0  0  0  0
 11 13  1  0  0  0  0
 11 14  1  0  0  0  0
  9 10  1  0  0  0  0
  9 11  1  0  0  0  0
  9 17  1  0  0  0  0
  7  8  1  0  0  0  0
  7  9  1  0  0  0  0
 21 22  1  0  0  0  0
 21 23  1  0  0  0  0
 21 24  1  0  0  0  0
 19 20  1  0  0  0  0
 19 21  1  0  0  0  0
M  CHG  1  15  -1
M  END
$$$$
default_name
  -OEChem-01062215323D

 24 23  0     1  0  0  0  0  0999 V2000
   -2.8347   -3.7166    0.8034 H   0  0  0  0  0  0  0  0  0  0  0  0
   -2.7728   -2.7096    0.3954 C   0  0  0  0  0  0  0  0  0  0  0  0
   -3.4267   -2.0426    0.9524 H   0  0  0  0  0  0  0  0  0  0  0  0
   -3.0538   -2.7186   -0.6556 H   0  0  0  0  0  0  0  0  0  0  0  0
   -1.3498   -2.2206    0.5184 C   0  0  0  0  0  0  0  0  0  0  0  0
   -0.4997   -2.9426    1.0194 O   0  0  0  0  0  0  0  0  0  0  0  0
   -1.1198   -0.9926    0.0674 N   0  0  0  0  0  0  0  0  0  0  0  0
   -1.8978   -0.4486   -0.2716 H   0  0  0  0  0  0  0  0  0  0  0  0
    0.1693   -0.2866    0.0854 C   0  0  1  0  0  0  0  0  0  0  0  0
    0.9777   -1.0183    0.0374 H   0  0  0  0  0  0  0  0  0  0  0  0
    0.2677    0.6261   -1.1562 C   0  0  0  0  0  0  0  0  0  0  0  0
   -0.6318    1.2419   -1.2104 H   0  0  0  0  0  0  0  0  0  0  0  0
    1.1223    1.2951   -1.0343 H   0  0  0  0  0  0  0  0  0  0  0  0
    0.3980   -0.1246   -2.4907 C   0  0  0  0  0  0  0  0  0  0  0  0
    0.9504   -1.2500   -2.4935 O   0  5  0  0  0  0  0  0  0  0  0  0
   -0.0435    0.4489   -3.5097 O   0  0  0  0  0  0  0  0  0  0  0  0
    0.3120    0.5056    1.4057 C   0  0  0  0  0  0  0  0  0  0  0  0
    0.7099    1.6765    1.3940 O   0  0  0  0  0  0  0  0  0  0  0  0
   -0.0228   -0.1113    2.5433 N   0  0  0  0  0  0  0  0  0  0  0  0
   -0.2559   -1.1026    2.4593 H   0  0  0  0  0  0  0  0  0  0  0  0
    0.0638    0.4760    3.8761 C   0  0  0  0  0  0  0  0  0  0  0  0
   -0.3387    1.4896    3.8583 H   0  0  0  0  0  0  0  0  0  0  0  0
   -0.5032   -0.1315    4.5809 H   0  0  0  0  0  0  0  0  0  0  0  0
    1.1085    0.5119    4.1856 H   0  0  0  0  0  0  0  0  0  0  0  0
  5  6  2  0  0  0  0
  5  7  1  0  0  0  0
  2  3  1  0  0  0  0
  2  4  1  0  0  0  0
  2  5  1  0  0  0  0
  1  2  1  0  0  0  0
 17 18  2  0  0  0  0
 17 19  1  0  0  0  0
 14 15  1  0  0  0  0
 14 16  2  0  0  0  0
 11 12  1  0  0  0  0
 11 13  1  0  0  0  0
 11 14  1  0  0  0  0
  9 10  1  0  0  0  0
  9 11  1  0  0  0  0
  9 17  1  0  0  0  0
  7  8  1  0  0  0  0
  7  9  1  0  0  0  0
 21 22  1  0  0  0  0
 21 23  1  0  0  0  0
 21 24  1  0  0  0  0
 19 20  1  0  0  0  0
 19 21  1  0  0  0  0
M  CHG  1  15  -1
M  END
$$$$
default_name
  -OEChem-01062215323D

 24 23  0     1  0  0  0  0  0999 V2000
   -2.8347   -3.7166    0.8034 H   0  0  0  0  0  0  0  0  0  0  0  0
   -2.7728   -2.7096    0.3954 C   0  0  0  0  0  0  0  0  0  0  0  0
   -3.4267   -2.0426    0.9524 H   0  0  0  0  0  0  0  0  0  0  0  0
   -3.0538   -2.7186   -0.6556 H   0  0  0  0  0  0  0  0  0  0  0  0
   -1.3498   -2.2206    0.5184 C   0  0  0  0  0  0  0  0  0  0  0  0
   -0.4997   -2.9426    1.0194 O   0  0  0  0  0  0  0  0  0  0  0  0
   -1.1198   -0.9926    0.0674 N   0  0  0  0  0  0  0  0  0  0  0  0
   -1.8978   -0.4486   -0.2716 H   0  0  0  0  0  0  0  0  0  0  0  0
    0.1693   -0.2866    0.0854 C   0  0  1  0  0  0  0  0  0  0  0  0
    0.9777   -1.0183    0.0374 H   0  0  0  0  0  0  0  0  0  0  0  0
    0.2677    0.6261   -1.1562 C   0  0  0  0  0  0  0  0  0  0  0  0
   -0.6318    1.2419   -1.2104 H   0  0  0  0  0  0  0  0  0  0  0  0
    1.1223    1.2951   -1.0343 H   0  0  0  0  0  0  0  0  0  0  0  0
    0.3980   -0.1246   -2.4907 C   0  0  0  0  0  0  0  0  0  0  0  0
    0.9504   -1.2500   -2.4935 O   0  5  0  0  0  0  0  0  0  0  0  0
   -0.0435    0.4489   -3.5097 O   0  0  0  0  0  0  0  0  0  0  0  0
    0.3120    0.5056    1.4057 C   0  0  0  0  0  0  0  0  0  0  0  0
    0.4380    1.7358    1.3879 O   0  0  0  0  0  0  0  0  0  0  0  0
    0.2777   -0.1806    2.5524 N   0  0  0  0  0  0  0  0  0  0  0  0
    0.2586   -1.1981    2.4610 H   0  0  0  0  0  0  0  0  0  0  0  0
    0.4129    0.3993    3.8843 C   0  0  0  0  0  0  0  0  0  0  0  0
   -0.2008    1.2980    3.9584 H   0  0  0  0  0  0  0  0  0  0  0  0
    0.0936   -0.3254    4.6328 H   0  0  0  0  0  0  0  0  0  0  0  0
    1.4563    0.6641    4.0567 H   0  0  0  0  0  0  0  0  0  0  0  0
  5  6  2  0  0  0  0
  5  7  1  0  0  0  0
  2  3  1  0  0  0  0
  2  4  1  0  0  0  0
  2  5  1  0  0  0  0
  1  2  1  0  0  0  0
 17 18  2  0  0  0  0
 17 19  1  0  0  0  0
 14 15  1  0  0  0  0
 14 16  2  0  0  0  0
 11 12  1  0  0  0  0
 11 13  1  0  0  0  0
 11 14  1  0  0  0  0
  9 10  1  0  0  0  0
  9 11  1  0  0  0  0
  9 17  1  0  0  0  0
  7  8  1  0  0  0  0
  7  9  1  0  0  0  0
 21 22  1  0  0  0  0
 21 23  1  0  0  0  0
 21 24  1  0  0  0  0
 19 20  1  0  0  0  0
 19 21  1  0  0  0  0
M  CHG  1  15  -1
M  END
$$$$
default_name
  -OEChem-01062215323D

 24 23  0     1  0  0  0  0  0999 V2000
   -2.8347   -3.7166    0.8034 H   0  0  0  0  0  0  0  0  0  0  0  0
   -2.7728   -2.7096    0.3954 C   0  0  0  0  0  0  0  0  0  0  0  0
   -3.4267   -2.0426    0.9524 H   0  0  0  0  0  0  0  0  0  0  0  0
   -3.0538   -2.7186   -0.6556 H   0  0  0  0  0  0  0  0  0  0  0  0
   -1.3498   -2.2206    0.5184 C   0  0  0  0  0  0  0  0  0  0  0  0
   -0.4997   -2.9426    1.0194 O   0  0  0  0  0  0  0  0  0  0  0  0
   -1.1198   -0.9926    0.0674 N   0  0  0  0  0  0  0  0  0  0  0  0
   -1.8978   -0.4486   -0.2716 H   0  0  0  0  0  0  0  0  0  0  0  0
    0.1693   -0.2866    0.0854 C   0  0  1  0  0  0  0  0  0  0  0  0
    0.9777   -1.0183    0.0374 H   0  0  0  0  0  0  0  0  0  0  0  0
    0.2677    0.6261   -1.1562 C   0  0  0  0  0  0  0  0  0  0  0  0
   -0.6318    1.2419   -1.2104 H   0  0  0  0  0  0  0  0  0  0  0  0
    1.1223    1.2951   -1.0343 H   0  0  0  0  0  0  0  0  0  0  0  0
    0.3980   -0.1246   -2.4907 C   0  0  0  0  0  0  0  0  0  0  0  0
    0.9504   -1.2500   -2.4935 O   0  5  0  0  0  0  0  0  0  0  0  0
   -0.0435    0.4489   -3.5097 O   0  0  0  0  0  0  0  0  0  0  0  0
    0.3120    0.5056    1.4057 C   0  0  0  0  0  0  0  0  0  0  0  0
    0.1615    1.7331    1.4194 O   0  0  0  0  0  0  0  0  0  0  0  0
    0.5845   -0.1812    2.5196 N   0  0  0  0  0  0  0  0  0  0  0  0
    0.7769   -1.1766    2.3921 H   0  0  0  0  0  0  0  0  0  0  0  0
    0.7681    0.4022    3.8442 C   0  0  0  0  0  0  0  0  0  0  0  0
   -0.0120    1.1410    4.0322 H   0  0  0  0  0  0  0  0  0  0  0  0
    0.7199   -0.3821    4.5991 H   0  0  0  0  0  0  0  0  0  0  0  0
    1.7415    0.8910    3.8897 H   0  0  0  0  0  0  0  0  0  0  0  0
  5  6  2  0  0  0  0
  5  7  1  0  0  0  0
  2  3  1  0  0  0  0
  2  4  1  0  0  0  0
  2  5  1  0  0  0  0
  1  2  1  0  0  0  0
 17 18  2  0  0  0  0
 17 19  1  0  0  0  0
 14 15  1  0  0  0  0
 14 16  2  0  0  0  0
 11 12  1  0  0  0  0
 11 13  1  0  0  0  0
 11 14  1  0  0  0  0
  9 10  1  0  0  0  0
  9 11  1  0  0  0  0
  9 17  1  0  0  0  0
  7  8  1  0  0  0  0
  7  9  1  0  0  0  0
 21 22  1  0  0  0  0
 21 23  1  0  0  0  0
 21 24  1  0  0  0  0
 19 20  1  0  0  0  0
 19 21  1  0  0  0  0
M  CHG  1  15  -1
M  END
$$$$
default_name
  -OEChem-01062215323D

 24 23  0     1  0  0  0  0  0999 V2000
   -2.8347   -3.7166    0.8034 H   0  0  0  0  0  0  0  0  0  0  0  0
   -2.7728   -2.7096    0.3954 C   0  0  0  0  0  0  0  0  0  0  0  0
   -3.4267   -2.0426    0.9524 H   0  0  0  0  0  0  0  0  0  0  0  0
   -3.0538   -2.7186   -0.6556 H   0  0  0  0  0  0  0  0  0  0  0  0
   -1.3498   -2.2206    0.5184 C   0  0  0  0  0  0  0  0  0  0  0  0
   -0.4997   -2.9426    1.0194 O   0  0  0  0  0  0  0  0  0  0  0  0
   -1.1198   -0.9926    0.0674 N   0  0  0  0  0  0  0  0  0  0  0  0
   -1.8978   -0.4486   -0.2716 H   0  0  0  0  0  0  0  0  0  0  0  0
    0.1693   -0.2866    0.0854 C   0  0  1  0  0  0  0  0  0  0  0  0
    0.9777   -1.0183    0.0374 H   0  0  0  0  0  0  0  0  0  0  0  0
    0.2677    0.6261   -1.1562 C   0  0  0  0  0  0  0  0  0  0  0  0
   -0.6318    1.2419   -1.2104 H   0  0  0  0  0  0  0  0  0  0  0  0
    1.1223    1.2951   -1.0343 H   0  0  0  0  0  0  0  0  0  0  0  0
    0.3980   -0.1246   -2.4907 C   0  0  0  0  0  0  0  0  0  0  0  0
    0.9504   -1.2500   -2.4935 O   0  5  0  0  0  0  0  0  0  0  0  0
   -0.0435    0.4489   -3.5097 O   0  0  0  0  0  0  0  0  0  0  0  0
    0.3120    0.5056    1.4057 C   0  0  0  0  0  0  0  0  0  0  0  0
   -0.1009    1.6686    1.4864 O   0  0  0  0  0  0  0  0  0  0  0  0
    0.8767   -0.1133    2.4473 N   0  0  0  0  0  0  0  0  0  0  0  0
    1.2637   -1.0397    2.2573 H   0  0  0  0  0  0  0  0  0  0  0  0
    1.1053    0.4845    3.7584 C   0  0  0  0  0  0  0  0  0  0  0  0
    0.2148    1.0294    4.0747 H   0  0  0  0  0  0  0  0  0  0  0  0
    1.3328   -0.2977    4.4822 H   0  0  0  0  0  0  0  0  0  0  0  0
    1.9447    1.1773    3.6960 H   0  0  0  0  0  0  0  0  0  0  0  0
  5  6  2  0  0  0  0
  5  7  1  0  0  0  0
  2  3  1  0  0  0  0
  2  4  1  0  0  0  0
  2  5  1  0  0  0  0
  1  2  1  0  0  0  0
 17 18  2  0  0  0  0
 17 19  1  0  0  0  0
 14 15  1  0  0  0  0
 14 16  2  0  0  0  0
 11 12  1  0  0  0  0
 11 13  1  0  0  0  0
 11 14  1  0  0  0  0
  9 10  1  0  0  0  0
  9 11  1  0  0  0  0
  9 17  1  0  0  0  0
  7  8  1  0  0  0  0
  7  9  1  0  0  0  0
 21 22  1  0  0  0  0
 21 23  1  0  0  0  0
 21 24  1  0  0  0  0
 19 20  1  0  0  0  0
 19 21  1  0  0  0  0
M  CHG  1  15  -1
M  END
$$$$
default_name
  -OEChem-01062215323D

 24 23  0     1  0  0  0  0  0999 V2000
   -2.8347   -3.7166    0.8034 H   0  0  0  0  0  0  0  0  0  0  0  0
   -2.7728   -2.7096    0.3954 C   0  0  0  0  0  0  0  0  0  0  0  0
   -3.4267   -2.0426    0.9524 H   0  0  0  0  0  0  0  0  0  0  0  0
   -3.0538   -2.7186   -0.6556 H   0  0  0  0  0  0  0  0  0  0  0  0
   -1.3498   -2.2206    0.5184 C   0  0  0  0  0  0  0  0  0  0  0  0
   -0.4997   -2.9426    1.0194 O   0  0  0  0  0  0  0  0  0  0  0  0
   -1.1198   -0.9926    0.0674 N   0  0  0  0  0  0  0  0  0  0  0  0
   -1.8978   -0.4486   -0.2716 H   0  0  0  0  0  0  0  0  0  0  0  0
    0.1693   -0.2866    0.0854 C   0  0  1  0  0  0  0  0  0  0  0  0
    0.9777   -1.0183    0.0374 H   0  0  0  0  0  0  0  0  0  0  0  0
    0.2677    0.6261   -1.1562 C   0  0  0  0  0  0  0  0  0  0  0  0
   -0.6318    1.2419   -1.2104 H   0  0  0  0  0  0  0  0  0  0  0  0
    1.1223    1.2951   -1.0343 H   0  0  0  0  0  0  0  0  0  0  0  0
    0.3980   -0.1246   -2.4907 C   0  0  0  0  0  0  0  0  0  0  0  0
    0.9504   -1.2500   -2.4935 O   0  5  0  0  0  0  0  0  0  0  0  0
   -0.0435    0.4489   -3.5097 O   0  0  0  0  0  0  0  0  0  0  0  0
    0.3120    0.5056    1.4057 C   0  0  0  0  0  0  0  0  0  0  0  0
   -0.3312    1.5467    1.5844 O   0  0  0  0  0  0  0  0  0  0  0  0
    1.1343    0.0186    2.3403 N   0  0  0  0  0  0  0  0  0  0  0  0
    1.6857   -0.7967    2.0659 H   0  0  0  0  0  0  0  0  0  0  0  0
    1.4014    0.6404    3.6328 C   0  0  0  0  0  0  0  0  0  0  0  0
    0.4643    0.9706    4.0830 H   0  0  0  0  0  0  0  0  0  0  0  0
    1.8907   -0.0779    4.2900 H   0  0  0  0  0  0  0  0  0  0  0  0
    2.0520    1.5033    3.4888 H   0  0  0  0  0  0  0  0  0  0  0  0
  5  6  2  0  0  0  0
  5  7  1  0  0  0  0
  2  3  1  0  0  0  0
  2  4  1  0  0  0  0
  2  5  1  0  0  0  0
  1  2  1  0  0  0  0
 17 18  2  0  0  0  0
 17 19  1  0  0  0  0
 14 15  1  0  0  0  0
 14 16  2  0  0  0  0
 11 12  1  0  0  0  0
 11 13  1  0  0  0  0
 11 14  1  0  0  0  0
  9 10  1  0  0  0  0
  9 11  1  0  0  0  0
  9 17  1  0  0  0  0
  7  8  1  0  0  0  0
  7  9  1  0  0  0  0
 21 22  1  0  0  0  0
 21 23  1  0  0  0  0
 21 24  1  0  0  0  0
 19 20  1  0  0  0  0
 19 21  1  0  0  0  0
M  CHG  1  15  -1
M  END
$$$$
default_name
  -OEChem-01062215323D

 24 23  0     1  0  0  0  0  0999 V2000
   -2.8347   -3.7166    0.8034 H   0  0  0  0  0  0  0  0  0  0  0  0
   -2.7728   -2.7096    0.3954 C   0  0  0  0  0  0  0  0  0  0  0  0
   -3.4267   -2.0426    0.9524 H   0  0  0  0  0  0  0  0  0  0  0  0
   -3.0538   -2.7186   -0.6556 H   0  0  0  0  0  0  0  0  0  0  0  0
   -1.3498   -2.2206    0.5184 C   0  0  0  0  0  0  0  0  0  0  0  0
   -0.4997   -2.9426    1.0194 O   0  0  0  0  0  0  0  0  0  0  0  0
   -1.1198   -0.9926    0.0674 N   0  0  0  0  0  0  0  0  0  0  0  0
   -1.8978   -0.4486   -0.2716 H   0  0  0  0  0  0  0  0  0  0  0  0
    0.1693   -0.2866    0.0854 C   0  0  1  0  0  0  0  0  0  0  0  0
    0.9777   -1.0183    0.0374 H   0  0  0  0  0  0  0  0  0  0  0  0
    0.2677    0.6261   -1.1562 C   0  0  0  0  0  0  0  0  0  0  0  0
   -0.6318    1.2419   -1.2104 H   0  0  0  0  0  0  0  0  0  0  0  0
    1.1223    1.2951   -1.0343 H   0  0  0  0  0  0  0  0  0  0  0  0
    0.3980   -0.1246   -2.4907 C   0  0  0  0  0  0  0  0  0  0  0  0
    0.9504   -1.2500   -2.4935 O   0  5  0  0  0  0  0  0  0  0  0  0
   -0.0435    0.4489   -3.5097 O   0  0  0  0  0  0  0  0  0  0  0  0
    0.3120    0.5056    1.4057 C   0  0  0  0  0  0  0  0  0  0  0  0
   -0.5136    1.3758    1.7067 O   0  0  0  0  0  0  0  0  0  0  0  0
    1.3397    0.2055    2.2059 N   0  0  0  0  0  0  0  0  0  0  0  0
    2.0143   -0.4641    1.8308 H   0  0  0  0  0  0  0  0  0  0  0  0
    1.6363    0.8596    3.4760 C   0  0  0  0  0  0  0  0  0  0  0  0
    0.7193    0.9688    4.0565 H   0  0  0  0  0  0  0  0  0  0  0  0
    2.3556    0.2623    4.0356 H   0  0  0  0  0  0  0  0  0  0  0  0
    2.0562    1.8468    3.2822 H   0  0  0  0  0  0  0  0  0  0  0  0
  5  6  2  0  0  0  0
  5  7  1  0  0  0  0
  2  3  1  0  0  0  0
  2  4  1  0  0  0  0
  2  5  1  0  0  0  0
  1  2  1  0  0  0  0
 17 18  2  0  0  0  0
 17 19  1  0  0  0  0
 14 15  1  0  0  0  0
 14 16  2  0  0  0  0
 11 12  1  0  0  0  0
 11 13  1  0  0  0  0
 11 14  1  0  0  0  0
  9 10  1  0  0  0  0
  9 11  1  0  0  0  0
  9 17  1  0  0  0  0
  7  8  1  0  0  0  0
  7  9  1  0  0  0  0
 21 22  1  0  0  0  0
 21 23  1  0  0  0  0
 21 24  1  0  0  0  0
 19 20  1  0  0  0  0
 19 21  1  0  0  0  0
M  CHG  1  15  -1
M  END
$$$$
default_name
  -OEChem-01062215323D

 24 23  0     1  0  0  0  0  0999 V2000
   -2.8347   -3.7166    0.8034 H   0  0  0  0  0  0  0  0  0  0  0  0
   -2.7728   -2.7096    0.3954 C   0  0  0  0  0  0  0  0  0  0  0  0
   -3.4267   -2.0426    0.9524 H   0  0  0  0  0  0  0  0  0  0  0  0
   -3.0538   -2.7186   -0.6556 H   0  0  0  0  0  0  0  0  0  0  0  0
   -1.3498   -2.2206    0.5184 C   0  0  0  0  0  0  0  0  0  0  0  0
   -0.4997   -2.9426    1.0194 O   0  0  0  0  0  0  0  0  0  0  0  0
   -1.1198   -0.9926    0.0674 N   0  0  0  0  0  0  0  0  0  0  0  0
   -1.8978   -0.4486   -0.2716 H   0  0  0  0  0  0  0  0  0  0  0  0
    0.1693   -0.2866    0.0854 C   0  0  1  0  0  0  0  0  0  0  0  0
    0.9777   -1.0183    0.0374 H   0  0  0  0  0  0  0  0  0  0  0  0
    0.2677    0.6261   -1.1562 C   0  0  0  0  0  0  0  0  0  0  0  0
   -0.6318    1.2419   -1.2104 H   0  0  0  0  0  0  0  0  0  0  0  0
    1.1223    1.2951   -1.0343 H   0  0  0  0  0  0  0  0  0  0  0  0
    0.3980   -0.1246   -2.4907 C   0  0  0  0  0  0  0  0  0  0  0  0
    0.9504   -1.2500   -2.4935 O   0  5  0  0  0  0  0  0  0  0  0  0
   -0.0435    0.4489   -3.5097 O   0  0  0  0  0  0  0  0  0  0  0  0
    0.3120    0.5056    1.4057 C   0  0  0  0  0  0  0  0  0  0  0  0
   -0.6359    1.1675    1.8449 O   0  0  0  0  0  0  0  0  0  0  0  0
    1.4791    0.4346    2.0534 N   0  0  0  0  0  0  0  0  0  0  0  0
    2.2270   -0.0646    1.5681 H   0  0  0  0  0  0  0  0  0  0  0  0
    1.7939    1.1269    3.2985 C   0  0  0  0  0  0  0  0  0  0  0  0
    0.9625    1.0240    3.9971 H   0  0  0  0  0  0  0  0  0  0  0  0
    2.6957    0.6997    3.7364 H   0  0  0  0  0  0  0  0  0  0  0  0
    1.9569    2.1845    3.0903 H   0  0  0  0  0  0  0  0  0  0  0  0
  5  6  2  0  0  0  0
  5  7  1  0  0  0  0
  2  3  1  0  0  0  0
  2  4  1  0  0  0  0
  2  5  1  0  0  0  0
  1  2  1  0  0  0  0
 17 18  2  0  0  0  0
 17 19  1  0  0  0  0
 14 15  1  0  0  0  0
 14 16  2  0  0  0  0
 11 12  1  0  0  0  0
 11 13  1  0  0  0  0
 11 14  1  0  0  0  0
  9 10  1  0  0  0  0
  9 11  1  0  0  0  0
  9 17  1  0  0  0  0
  7  8  1  0  0  0  0
  7  9  1  0  0  0  0
 21 22  1  0  0  0  0
 21 23  1  0  0  0  0
 21 24  1  0  0  0  0
 19 20  1  0  0  0  0
 19 21  1  0  0  0  0
M  CHG  1  15  -1
M  END
$$$$
default_name
  -OEChem-01062215323D

 24 23  0     1  0  0  0  0  0999 V2000
   -2.8347   -3.7166    0.8034 H   0  0  0  0  0  0  0  0  0  0  0  0
   -2.7728   -2.7096    0.3954 C   0  0  0  0  0  0  0  0  0  0  0  0
   -3.4267   -2.0426    0.9524 H   0  0  0  0  0  0  0  0  0  0  0  0
   -3.0538   -2.7186   -0.6556 H   0  0  0  0  0  0  0  0  0  0  0  0
   -1.3498   -2.2206    0.5184 C   0  0  0  0  0  0  0  0  0  0  0  0
   -0.4997   -2.9426    1.0194 O   0  0  0  0  0  0  0  0  0  0  0  0
   -1.1198   -0.9926    0.0674 N   0  0  0  0  0  0  0  0  0  0  0  0
   -1.8978   -0.4486   -0.2716 H   0  0  0  0  0  0  0  0  0  0  0  0
    0.1693   -0.2866    0.0854 C   0  0  1  0  0  0  0  0  0  0  0  0
    0.9777   -1.0183    0.0374 H   0  0  0  0  0  0  0  0  0  0  0  0
    0.2677    0.6261   -1.1562 C   0  0  0  0  0  0  0  0  0  0  0  0
   -0.6318    1.2419   -1.2104 H   0  0  0  0  0  0  0  0  0  0  0  0
    1.1223    1.2951   -1.0343 H   0  0  0  0  0  0  0  0  0  0  0  0
    0.3980   -0.1246   -2.4907 C   0  0  0  0  0  0  0  0  0  0  0  0
    0.9504   -1.2500   -2.4935 O   0  5  0  0  0  0  0  0  0  0  0  0
   -0.0435    0.4489   -3.5097 O   0  0  0  0  0  0  0  0  0  0  0  0
    0.3120    0.5056    1.4057 C   0  0  0  0  0  0  0  0  0  0  0  0
   -0.6897    0.9359    1.9897 O   0  0  0  0  0  0  0  0  0  0  0  0
    1.5429    0.6904    1.8930 N   0  0  0  0  0  0  0  0  0  0  0  0
    2.3094    0.3746    1.2957 H   0  0  0  0  0  0  0  0  0  0  0  0
    1.8636    1.4241    3.1126 C   0  0  0  0  0  0  0  0  0  0  0  0
    1.1774    1.1325    3.9088 H   0  0  0  0  0  0  0  0  0  0  0  0
    2.8879    1.2045    3.4127 H   0  0  0  0  0  0  0  0  0  0  0  0
    1.7609    2.4933    2.9262 H   0  0  0  0  0  0  0  0  0  0  0  0
  5  6  2  0  0  0  0
  5  7  1  0  0  0  0
  2  3  1  0  0  0  0
  2  4  1  0  0  0  0
  2  5  1  0  0  0  0
  1  2  1  0  0  0  0
 17 18  2  0  0  0  0
 17 19  1  0  0  0  0
 14 15  1  0  0  0  0
 14 16  2  0  0  0  0
 11 12  1  0  0  0  0
 11 13  1  0  0  0  0
 11 14  1  0  0  0  0
  9 10  1  0  0  0  0
  9 11  1  0  0  0  0
  9 17  1  0  0  0  0
  7  8  1  0  0  0  0
  7  9  1  0  0  0  0
 21 22  1  0  0  0  0
 21 23  1  0  0  0  0
 21 24  1  0  0  0  0
 19 20  1  0  0  0  0
 19 21  1  0  0  0  0
M  CHG  1  15  -1
M  END
$$$$
default_name
  -OEChem-01062215323D

 24 23  0     1  0  0  0  0  0999 V2000
   -2.8347   -3.7166    0.8034 H   0  0  0  0  0  0  0  0  0  0  0  0
   -2.7728   -2.7096    0.3954 C   0  0  0  0  0  0  0  0  0  0  0  0
   -3.4267   -2.0426    0.9524 H   0  0  0  0  0  0  0  0  0  0  0  0
   -3.0538   -2.7186   -0.6556 H   0  0  0  0  0  0  0  0  0  0  0  0
   -1.3498   -2.2206    0.5184 C   0  0  0  0  0  0  0  0  0  0  0  0
   -0.4997   -2.9426    1.0194 O   0  0  0  0  0  0  0  0  0  0  0  0
   -1.1198   -0.9926    0.0674 N   0  0  0  0  0  0  0  0  0  0  0  0
   -1.8978   -0.4486   -0.2716 H   0  0  0  0  0  0  0  0  0  0  0  0
    0.1693   -0.2866    0.0854 C   0  0  1  0  0  0  0  0  0  0  0  0
    0.9777   -1.0183    0.0374 H   0  0  0  0  0  0  0  0  0  0  0  0
    0.2677    0.6261   -1.1562 C   0  0  0  0  0  0  0  0  0  0  0  0
   -0.6318    1.2419   -1.2104 H   0  0  0  0  0  0  0  0  0  0  0  0
    1.1223    1.2951   -1.0343 H   0  0  0  0  0  0  0  0  0  0  0  0
    0.3980   -0.1246   -2.4907 C   0  0  0  0  0  0  0  0  0  0  0  0
    0.9504   -1.2500   -2.4935 O   0  5  0  0  0  0  0  0  0  0  0  0
   -0.0435    0.4489   -3.5097 O   0  0  0  0  0  0  0  0  0  0  0  0
    0.3120    0.5056    1.4057 C   0  0  0  0  0  0  0  0  0  0  0  0
   -0.6713    0.6969    2.1311 O   0  0  0  0  0  0  0  0  0  0  0  0
    1.5267    0.9553    1.7358 N   0  0  0  0  0  0  0  0  0  0  0  0
    2.2557    0.8235    1.0322 H   0  0  0  0  0  0  0  0  0  0  0  0
    1.8406    1.7311    2.9309 C   0  0  0  0  0  0  0  0  0  0  0  0
    1.3492    1.2869    3.7975 H   0  0  0  0  0  0  0  0  0  0  0  0
    2.9191    1.7423    3.0867 H   0  0  0  0  0  0  0  0  0  0  0  0
    1.4816    2.7522    2.8011 H   0  0  0  0  0  0  0  0  0  0  0  0
  5  6  2  0  0  0  0
  5  7  1  0  0  0  0
  2  3  1  0  0  0  0
  2  4  1  0  0  0  0
  2  5  1  0  0  0  0
  1  2  1  0  0  0  0
 17 18  2  0  0  0  0
 17 19  1  0  0  0  0
 14 15  1  0  0  0  0
 14 16  2  0  0  0  0
 11 12  1  0  0  0  0
 11 13  1  0  0  0  0
 11 14  1  0  0  0  0
  9 10  1  0  0  0  0
  9 11  1  0  0  0  0
  9 17  1  0  0  0  0
  7  8  1  0  0  0  0
  7  9  1  0  0  0  0
 21 22  1  0  0  0  0
 21 23  1  0  0  0  0
 21 24  1  0  0  0  0
 19 20  1  0  0  0  0
 19 21  1  0  0  0  0
M  CHG  1  15  -1
M  END
$$$$
default_name
  -OEChem-01062215323D

 24 23  0     1  0  0  0  0  0999 V2000
   -2.8347   -3.7166    0.8034 H   0  0  0  0  0  0  0  0  0  0  0  0
   -2.7728   -2.7096    0.3954 C   0  0  0  0  0  0  0  0  0  0  0  0
   -3.4267   -2.0426    0.9524 H   0  0  0  0  0  0  0  0  0  0  0  0
   -3.0538   -2.7186   -0.6556 H   0  0  0  0  0  0  0  0  0  0  0  0
   -1.3498   -2.2206    0.5184 C   0  0  0  0  0  0  0  0  0  0  0  0
   -0.4997   -2.9426    1.0194 O   0  0  0  0  0  0  0  0  0  0  0  0
   -1.1198   -0.9926    0.0674 N   0  0  0  0  0  0  0  0  0  0  0  0
   -1.8978   -0.4486   -0.2716 H   0  0  0  0  0  0  0  0  0  0  0  0
    0.1693   -0.2866    0.0854 C   0  0  1  0  0  0  0  0  0  0  0  0
    0.9571   -0.9741   -0.2274 H   0  0  0  0  0  0  0  0  0  0  0  0
    0.1223    0.8855   -0.9187 C   0  0  0  0  0  0  0  0  0  0  0  0
   -0.7700    1.4816   -0.7197 H   0  0  0  0  0  0  0  0  0  0  0  0
    0.9929    1.5243   -0.7549 H   0  0  0  0  0  0  0  0  0  0  0  0
    0.0768    0.4594   -2.3945 C   0  0  0  0  0  0  0  0  0  0  0  0
    0.6119   -0.6262   -2.7213 O   0  5  0  0  0  0  0  0  0  0  0  0
   -0.4819    1.2412   -3.1937 O   0  0  0  0  0  0  0  0  0  0  0  0
    0.4843    0.1879    1.5230 C   0  0  0  0  0  0  0  0  0  0  0  0
   -0.2964   -0.0593    2.4498 O   0  0  0  0  0  0  0  0  0  0  0  0
    1.6263    0.8526    1.7249 N   0  0  0  0  0  0  0  0  0  0  0  0
    2.1606    1.0835    0.8851 H   0  0  0  0  0  0  0  0  0  0  0  0
    2.0743    1.3857    3.0070 C   0  0  0  0  0  0  0  0  0  0  0  0
    1.9229    0.6401    3.7887 H   0  0  0  0  0  0  0  0  0  0  0  0
    3.1312    1.6440    2.9464 H   0  0  0  0  0  0  0  0  0  0  0  0
    1.4954    2.2777    3.2473 H   0  0  0  0  0  0  0  0  0  0  0  0
  5  6  2  0  0  0  0
  5  7  1  0  0  0  0
  2  3  1  0  0  0  0
  2  4  1  0  0  0  0
  2  5  1  0  0  0  0
  1  2  1  0  0  0  0
 17 18  2  0  0  0  0
 17 19  1  0  0  0  0
 14 15  1  0  0  0  0
 14 16  2  0  0  0  0
 11 12  1  0  0  0  0
 11 13  1  0  0  0  0
 11 14  1  0  0  0  0
  9 10  1  0  0  0  0
  9 11  1  0  0  0  0
  9 17  1  0  0  0  0
  7  8  1  0  0  0  0
  7  9  1  0  0  0  0
 21 22  1  0  0  0  0
 21 23  1  0  0  0  0
 21 24  1  0  0  0  0
 19 20  1  0  0  0  0
 19 21  1  0  0  0  0
M  CHG  1  15  -1
M  END
$$$$
default_name
  -OEChem-01062215323D

 24 23  0     1  0  0  0  0  0999 V2000
   -2.8347   -3.7166    0.8034 H   0  0  0  0  0  0  0  0  0  0  0  0
   -2.7728   -2.7096    0.3954 C   0  0  0  0  0  0  0  0  0  0  0  0
   -3.4267   -2.0426    0.9524 H   0  0  0  0  0  0  0  0  0  0  0  0
   -3.0538   -2.7186   -0.6556 H   0  0  0  0  0  0  0  0  0  0  0  0
   -1.3498   -2.2206    0.5184 C   0  0  0  0  0  0  0  0  0  0  0  0
   -0.4997   -2.9426    1.0194 O   0  0  0  0  0  0  0  0  0  0  0  0
   -1.1198   -0.9926    0.0674 N   0  0  0  0  0  0  0  0  0  0  0  0
   -1.8978   -0.4486   -0.2716 H   0  0  0  0  0  0  0  0  0  0  0  0
    0.1693   -0.2866    0.0854 C   0  0  1  0  0  0  0  0  0  0  0  0
    0.9571   -0.9741   -0.2274 H   0  0  0  0  0  0  0  0  0  0  0  0
    0.1223    0.8855   -0.9187 C   0  0  0  0  0  0  0  0  0  0  0  0
   -0.7700    1.4816   -0.7197 H   0  0  0  0  0  0  0  0  0  0  0  0
    0.9929    1.5243   -0.7549 H   0  0  0  0  0  0  0  0  0  0  0  0
    0.0768    0.4594   -2.3945 C   0  0  0  0  0  0  0  0  0  0  0  0
    0.6119   -0.6262   -2.7213 O   0  5  0  0  0  0  0  0  0  0  0  0
   -0.4819    1.2412   -3.1937 O   0  0  0  0  0  0  0  0  0  0  0  0
    0.4843    0.1879    1.5230 C   0  0  0  0  0  0  0  0  0  0  0  0
   -0.1324   -0.2811    2.4870 O   0  0  0  0  0  0  0  0  0  0  0  0
    1.4479    1.1006    1.6822 N   0  0  0  0  0  0  0  0  0  0  0  0
    1.8375    1.4902    0.8217 H   0  0  0  0  0  0  0  0  0  0  0  0
    1.8642    1.6708    2.9590 C   0  0  0  0  0  0  0  0  0  0  0  0
    1.9627    0.8779    3.7015 H   0  0  0  0  0  0  0  0  0  0  0  0
    2.8197    2.1803    2.8376 H   0  0  0  0  0  0  0  0  0  0  0  0
    1.1121    2.3844    3.2961 H   0  0  0  0  0  0  0  0  0  0  0  0
  5  6  2  0  0  0  0
  5  7  1  0  0  0  0
  2  3  1  0  0  0  0
  2  4  1  0  0  0  0
  2  5  1  0  0  0  0
  1  2  1  0  0  0  0
 17 18  2  0  0  0  0
 17 19  1  0  0  0  0
 14 15  1  0  0  0  0
 14 16  2  0  0  0  0
 11 12  1  0  0  0  0
 11 13  1  0  0  0  0
 11 14  1  0  0  0  0
  9 10  1  0  0  0  0
  9 11  1  0  0  0  0
  9 17  1  0  0  0  0
  7  8  1  0  0  0  0
  7  9  1  0  0  0  0
 21 22  1  0  0  0  0
 21 23  1  0  0  0  0
 21 24  1  0  0  0  0
 19 20  1  0  0  0  0
 19 21  1  0  0  0  0
M  CHG  1  15  -1
M  END
$$$$
default_name
  -OEChem-01062215323D

 24 23  0     1  0  0  0  0  0999 V2000
   -2.8347   -3.7166    0.8034 H   0  0  0  0  0  0  0  0  0  0  0  0
   -2.7728   -2.7096    0.3954 C   0  0  0  0  0  0  0  0  0  0  0  0
   -3.4267   -2.0426    0.9524 H   0  0  0  0  0  0  0  0  0  0  0  0
   -3.0538   -2.7186   -0.6556 H   0  0  0  0  0  0  0  0  0  0  0  0
   -1.3498   -2.2206    0.5184 C   0  0  0  0  0  0  0  0  0  0  0  0
   -0.4997   -2.9426    1.0194 O   0  0  0  0  0  0  0  0  0  0  0  0
   -1.1198   -0.9926    0.0674 N   0  0  0  0  0  0  0  0  0  0  0  0
   -1.8978   -0.4486   -0.2716 H   0  0  0  0  0  0  0  0  0  0  0  0
    0.1693   -0.2866    0.0854 C   0  0  1  0  0  0  0  0  0  0  0  0
    0.9571   -0.9741   -0.2274 H   0  0  0  0  0  0  0  0  0  0  0  0
    0.1223    0.8855   -0.9187 C   0  0  0  0  0  0  0  0  0  0  0  0
   -0.7700    1.4816   -0.7197 H   0  0  0  0  0  0  0  0  0  0  0  0
    0.9929    1.5243   -0.7549 H   0  0  0  0  0  0  0  0  0  0  0  0
    0.0768    0.4594   -2.3945 C   0  0  0  0  0  0  0  0  0  0  0  0
    0.6119   -0.6262   -2.7213 O   0  5  0  0  0  0  0  0  0  0  0  0
   -0.4819    1.2412   -3.1937 O   0  0  0  0  0  0  0  0  0  0  0  0
    0.4843    0.1879    1.5230 C   0  0  0  0  0  0  0  0  0  0  0  0
    0.0824   -0.4578    2.4983 O   0  0  0  0  0  0  0  0  0  0  0  0
    1.2124    1.2995    1.6681 N   0  0  0  0  0  0  0  0  0  0  0  0
    1.4224    1.8087    0.8075 H   0  0  0  0  0  0  0  0  0  0  0  0
    1.5887    1.8983    2.9443 C   0  0  0  0  0  0  0  0  0  0  0  0
    1.9369    1.1217    3.6266 H   0  0  0  0  0  0  0  0  0  0  0  0
    2.3812    2.6292    2.7856 H   0  0  0  0  0  0  0  0  0  0  0  0
    0.7200    2.3927    3.3792 H   0  0  0  0  0  0  0  0  0  0  0  0
  5  6  2  0  0  0  0
  5  7  1  0  0  0  0
  2  3  1  0  0  0  0
  2  4  1  0  0  0  0
  2  5  1  0  0  0  0
  1  2  1  0  0  0  0
 17 18  2  0  0  0  0
 17 19  1  0  0  0  0
 14 15  1  0  0  0  0
 14 16  2  0  0  0  0
 11 12  1  0  0  0  0
 11 13  1  0  0  0  0
 11 14  1  0  0  0  0
  9 10  1  0  0  0  0
  9 11  1  0  0  0  0
  9 17  1  0  0  0  0
  7  8  1  0  0  0  0
  7  9  1  0  0  0  0
 21 22  1  0  0  0  0
 21 23  1  0  0  0  0
 21 24  1  0  0  0  0
 19 20  1  0  0  0  0
 19 21  1  0  0  0  0
M  CHG  1  15  -1
M  END
$$$$
default_name
  -OEChem-01062215323D

 24 23  0     1  0  0  0  0  0999 V2000
   -2.8347   -3.7166    0.8034 H   0  0  0  0  0  0  0  0  0  0  0  0
   -2.7728   -2.7096    0.3954 C   0  0  0  0  0  0  0  0  0  0  0  0
   -3.4267   -2.0426    0.9524 H   0  0  0  0  0  0  0  0  0  0  0  0
   -3.0538   -2.7186   -0.6556 H   0  0  0  0  0  0  0  0  0  0  0  0
   -1.3498   -2.2206    0.5184 C   0  0  0  0  0  0  0  0  0  0  0  0
   -0.4997   -2.9426    1.0194 O   0  0  0  0  0  0  0  0  0  0  0  0
   -1.1198   -0.9926    0.0674 N   0  0  0  0  0  0  0  0  0  0  0  0
   -1.8978   -0.4486   -0.2716 H   0  0  0  0  0  0  0  0  0  0  0  0
    0.1693   -0.2866    0.0854 C   0  0  1  0  0  0  0  0  0  0  0  0
    0.9571   -0.9741   -0.2274 H   0  0  0  0  0  0  0  0  0  0  0  0
    0.1223    0.8855   -0.9187 C   0  0  0  0  0  0  0  0  0  0  0  0
   -0.7700    1.4816   -0.7197 H   0  0  0  0  0  0  0  0  0  0  0  0
    0.9929    1.5243   -0.7549 H   0  0  0  0  0  0  0  0  0  0  0  0
    0.0768    0.4594   -2.3945 C   0  0  0  0  0  0  0  0  0  0  0  0
    0.6119   -0.6262   -2.7213 O   0  5  0  0  0  0  0  0  0  0  0  0
   -0.4819    1.2412   -3.1937 O   0  0  0  0  0  0  0  0  0  0  0  0
    0.4843    0.1879    1.5230 C   0  0  0  0  0  0  0  0  0  0  0  0
    0.3332   -0.5774    2.4827 O   0  0  0  0  0  0  0  0  0  0  0  0
    0.9360    1.4357    1.6837 N   0  0  0  0  0  0  0  0  0  0  0  0
    0.9438    2.0172    0.8436 H   0  0  0  0  0  0  0  0  0  0  0  0
    1.2668    2.0524    2.9639 C   0  0  0  0  0  0  0  0  0  0  0  0
    1.8474    1.3551    3.5692 H   0  0  0  0  0  0  0  0  0  0  0  0
    1.8454    2.9600    2.7938 H   0  0  0  0  0  0  0  0  0  0  0  0
    0.3458    2.3021    3.4912 H   0  0  0  0  0  0  0  0  0  0  0  0
  5  6  2  0  0  0  0
  5  7  1  0  0  0  0
  2  3  1  0  0  0  0
  2  4  1  0  0  0  0
  2  5  1  0  0  0  0
  1  2  1  0  0  0  0
 17 18  2  0  0  0  0
 17 19  1  0  0  0  0
 14 15  1  0  0  0  0
 14 16  2  0  0  0  0
 11 12  1  0  0  0  0
 11 13  1  0  0  0  0
 11 14  1  0  0  0  0
  9 10  1  0  0  0  0
  9 11  1  0  0  0  0
  9 17  1  0  0  0  0
  7  8  1  0  0  0  0
  7  9  1  0  0  0  0
 21 22  1  0  0  0  0
 21 23  1  0  0  0  0
 21 24  1  0  0  0  0
 19 20  1  0  0  0  0
 19 21  1  0  0  0  0
M  CHG  1  15  -1
M  END
$$$$
default_name
  -OEChem-01062215323D

 24 23  0     1  0  0  0  0  0999 V2000
   -2.8347   -3.7166    0.8034 H   0  0  0  0  0  0  0  0  0  0  0  0
   -2.7728   -2.7096    0.3954 C   0  0  0  0  0  0  0  0  0  0  0  0
   -3.4267   -2.0426    0.9524 H   0  0  0  0  0  0  0  0  0  0  0  0
   -3.0538   -2.7186   -0.6556 H   0  0  0  0  0  0  0  0  0  0  0  0
   -1.3498   -2.2206    0.5184 C   0  0  0  0  0  0  0  0  0  0  0  0
   -0.4997   -2.9426    1.0194 O   0  0  0  0  0  0  0  0  0  0  0  0
   -1.1198   -0.9926    0.0674 N   0  0  0  0  0  0  0  0  0  0  0  0
   -1.8978   -0.4486   -0.2716 H   0  0  0  0  0  0  0  0  0  0  0  0
    0.1693   -0.2866    0.0854 C   0  0  1  0  0  0  0  0  0  0  0  0
    0.9571   -0.9741   -0.2274 H   0  0  0  0  0  0  0  0  0  0  0  0
    0.1223    0.8855   -0.9187 C   0  0  0  0  0  0  0  0  0  0  0  0
   -0.7700    1.4816   -0.7197 H   0  0  0  0  0  0  0  0  0  0  0  0
    0.9929    1.5243   -0.7549 H   0  0  0  0  0  0  0  0  0  0  0  0
    0.0768    0.4594   -2.3945 C   0  0  0  0  0  0  0  0  0  0  0  0
    0.6119   -0.6262   -2.7213 O   0  5  0  0  0  0  0  0  0  0  0  0
   -0.4819    1.2412   -3.1937 O   0  0  0  0  0  0  0  0  0  0  0  0
    0.4843    0.1879    1.5230 C   0  0  0  0  0  0  0  0  0  0  0  0
    0.6031   -0.6317    2.4415 O   0  0  0  0  0  0  0  0  0  0  0  0
    0.6374    1.4999    1.7280 N   0  0  0  0  0  0  0  0  0  0  0  0
    0.4342    2.1015    0.9274 H   0  0  0  0  0  0  0  0  0  0  0  0
    0.9203    2.1229    3.0166 C   0  0  0  0  0  0  0  0  0  0  0  0
    1.7003    1.5619    3.5332 H   0  0  0  0  0  0  0  0  0  0  0  0
    1.2490    3.1502    2.8618 H   0  0  0  0  0  0  0  0  0  0  0  0
    0.0152    2.1185    3.6242 H   0  0  0  0  0  0  0  0  0  0  0  0
  5  6  2  0  0  0  0
  5  7  1  0  0  0  0
  2  3  1  0  0  0  0
  2  4  1  0  0  0  0
  2  5  1  0  0  0  0
  1  2  1  0  0  0  0
 17 18  2  0  0  0  0
 17 19  1  0  0  0  0
 14 15  1  0  0  0  0
 14 16  2  0  0  0  0
 11 12  1  0  0  0  0
 11 13  1  0  0  0  0
 11 14  1  0  0  0  0
  9 10  1  0  0  0  0
  9 11  1  0  0  0  0
  9 17  1  0  0  0  0
  7  8  1  0  0  0  0
  7  9  1  0  0  0  0
 21 22  1  0  0  0  0
 21 23  1  0  0  0  0
 21 24  1  0  0  0  0
 19 20  1  0  0  0  0
 19 21  1  0  0  0  0
M  CHG  1  15  -1
M  END
$$$$
default_name
  -OEChem-01062215323D

 24 23  0     1  0  0  0  0  0999 V2000
   -2.8347   -3.7166    0.8034 H   0  0  0  0  0  0  0  0  0  0  0  0
   -2.7728   -2.7096    0.3954 C   0  0  0  0  0  0  0  0  0  0  0  0
   -3.4267   -2.0426    0.9524 H   0  0  0  0  0  0  0  0  0  0  0  0
   -3.0538   -2.7186   -0.6556 H   0  0  0  0  0  0  0  0  0  0  0  0
   -1.3498   -2.2206    0.5184 C   0  0  0  0  0  0  0  0  0  0  0  0
   -0.4997   -2.9426    1.0194 O   0  0  0  0  0  0  0  0  0  0  0  0
   -1.1198   -0.9926    0.0674 N   0  0  0  0  0  0  0  0  0  0  0  0
   -1.8978   -0.4486   -0.2716 H   0  0  0  0  0  0  0  0  0  0  0  0
    0.1693   -0.2866    0.0854 C   0  0  1  0  0  0  0  0  0  0  0  0
    0.9571   -0.9741   -0.2274 H   0  0  0  0  0  0  0  0  0  0  0  0
    0.1223    0.8855   -0.9187 C   0  0  0  0  0  0  0  0  0  0  0  0
   -0.7700    1.4816   -0.7197 H   0  0  0  0  0  0  0  0  0  0  0  0
    0.9929    1.5243   -0.7549 H   0  0  0  0  0  0  0  0  0  0  0  0
    0.0768    0.4594   -2.3945 C   0  0  0  0  0  0  0  0  0  0  0  0
    0.6119   -0.6262   -2.7213 O   0  5  0  0  0  0  0  0  0  0  0  0
   -0.4819    1.2412   -3.1937 O   0  0  0  0  0  0  0  0  0  0  0  0
    0.4843    0.1879    1.5230 C   0  0  0  0  0  0  0  0  0  0  0  0
    0.8736   -0.6171    2.3774 O   0  0  0  0  0  0  0  0  0  0  0  0
    0.3371    1.4877    1.7978 N   0  0  0  0  0  0  0  0  0  0  0  0
   -0.0717    2.0558    1.0534 H   0  0  0  0  0  0  0  0  0  0  0  0
    0.5729    2.1047    3.0987 C   0  0  0  0  0  0  0  0  0  0  0  0
    1.5055    1.7282    3.5210 H   0  0  0  0  0  0  0  0  0  0  0  0
    0.6325    3.1868    2.9848 H   0  0  0  0  0  0  0  0  0  0  0  0
   -0.2495    1.8547    3.7693 H   0  0  0  0  0  0  0  0  0  0  0  0
  5  6  2  0  0  0  0
  5  7  1  0  0  0  0
  2  3  1  0  0  0  0
  2  4  1  0  0  0  0
  2  5  1  0  0  0  0
  1  2  1  0  0  0  0
 17 18  2  0  0  0  0
 17 19  1  0  0  0  0
 14 15  1  0  0  0  0
 14 16  2  0  0  0  0
 11 12  1  0  0  0  0
 11 13  1  0  0  0  0
 11 14  1  0  0  0  0
  9 10  1  0  0  0  0
  9 11  1  0  0  0  0
  9 17  1  0  0  0  0
  7  8  1  0  0  0  0
  7  9  1  0  0  0  0
 21 22  1  0  0  0  0
 21 23  1  0  0  0  0
 21 24  1  0  0  0  0
 19 20  1  0  0  0  0
 19 21  1  0  0  0  0
M  CHG  1  15  -1
M  END
$$$$
default_name
  -OEChem-01062215323D

 24 23  0     1  0  0  0  0  0999 V2000
   -2.8347   -3.7166    0.8034 H   0  0  0  0  0  0  0  0  0  0  0  0
   -2.7728   -2.7096    0.3954 C   0  0  0  0  0  0  0  0  0  0  0  0
   -3.4267   -2.0426    0.9524 H   0  0  0  0  0  0  0  0  0  0  0  0
   -3.0538   -2.7186   -0.6556 H   0  0  0  0  0  0  0  0  0  0  0  0
   -1.3498   -2.2206    0.5184 C   0  0  0  0  0  0  0  0  0  0  0  0
   -0.4997   -2.9426    1.0194 O   0  0  0  0  0  0  0  0  0  0  0  0
   -1.1198   -0.9926    0.0674 N   0  0  0  0  0  0  0  0  0  0  0  0
   -1.8978   -0.4486   -0.2716 H   0  0  0  0  0  0  0  0  0  0  0  0
    0.1693   -0.2866    0.0854 C   0  0  1  0  0  0  0  0  0  0  0  0
    0.9571   -0.9741   -0.2274 H   0  0  0  0  0  0  0  0  0  0  0  0
    0.1223    0.8855   -0.9187 C   0  0  0  0  0  0  0  0  0  0  0  0
   -0.7700    1.4816   -0.7197 H   0  0  0  0  0  0  0  0  0  0  0  0
    0.9929    1.5243   -0.7549 H   0  0  0  0  0  0  0  0  0  0  0  0
    0.0768    0.4594   -2.3945 C   0  0  0  0  0  0  0  0  0  0  0  0
    0.6119   -0.6262   -2.7213 O   0  5  0  0  0  0  0  0  0  0  0  0
   -0.4819    1.2412   -3.1937 O   0  0  0  0  0  0  0  0  0  0  0  0
    0.4843    0.1879    1.5230 C   0  0  0  0  0  0  0  0  0  0  0  0
    1.1262   -0.5345    2.2948 O   0  0  0  0  0  0  0  0  0  0  0  0
    0.0555    1.4001    1.8884 N   0  0  0  0  0  0  0  0  0  0  0  0
   -0.5393    1.8834    1.2128 H   0  0  0  0  0  0  0  0  0  0  0  0
    0.2482    1.9993    3.2047 C   0  0  0  0  0  0  0  0  0  0  0  0
    1.2764    1.8426    3.5334 H   0  0  0  0  0  0  0  0  0  0  0  0
    0.0380    3.0673    3.1545 H   0  0  0  0  0  0  0  0  0  0  0  0
   -0.4301    1.5285    3.9166 H   0  0  0  0  0  0  0  0  0  0  0  0
  5  6  2  0  0  0  0
  5  7  1  0  0  0  0
  2  3  1  0  0  0  0
  2  4  1  0  0  0  0
  2  5  1  0  0  0  0
  1  2  1  0  0  0  0
 17 18  2  0  0  0  0
 17 19  1  0  0  0  0
 14 15  1  0  0  0  0
 14 16  2  0  0  0  0
 11 12  1  0  0  0  0
 11 13  1  0  0  0  0
 11 14  1  0  0  0  0
  9 10  1  0  0  0  0
  9 11  1  0  0  0  0
  9 17  1  0  0  0  0
  7  8  1  0  0  0  0
  7  9  1  0  0  0  0
 21 22  1  0  0  0  0
 21 23  1  0  0  0  0
 21 24  1  0  0  0  0
 19 20  1  0  0  0  0
 19 21  1  0  0  0  0
M  CHG  1  15  -1
M  END
$$$$
default_name
  -OEChem-01062215323D

 24 23  0     1  0  0  0  0  0999 V2000
   -2.8347   -3.7166    0.8034 H   0  0  0  0  0  0  0  0  0  0  0  0
   -2.7728   -2.7096    0.3954 C   0  0  0  0  0  0  0  0  0  0  0  0
   -3.4267   -2.0426    0.9524 H   0  0  0  0  0  0  0  0  0  0  0  0
   -3.0538   -2.7186   -0.6556 H   0  0  0  0  0  0  0  0  0  0  0  0
   -1.3498   -2.2206    0.5184 C   0  0  0  0  0  0  0  0  0  0  0  0
   -0.4997   -2.9426    1.0194 O   0  0  0  0  0  0  0  0  0  0  0  0
   -1.1198   -0.9926    0.0674 N   0  0  0  0  0  0  0  0  0  0  0  0
   -1.8978   -0.4486   -0.2716 H   0  0  0  0  0  0  0  0  0  0  0  0
    0.1693   -0.2866    0.0854 C   0  0  1  0  0  0  0  0  0  0  0  0
    0.9571   -0.9741   -0.2274 H   0  0  0  0  0  0  0  0  0  0  0  0
    0.1223    0.8855   -0.9187 C   0  0  0  0  0  0  0  0  0  0  0  0
   -0.7700    1.4816   -0.7197 H   0  0  0  0  0  0  0  0  0  0  0  0
    0.9929    1.5243   -0.7549 H   0  0  0  0  0  0  0  0  0  0  0  0
    0.0768    0.4594   -2.3945 C   0  0  0  0  0  0  0  0  0  0  0  0
    0.6119   -0.6262   -2.7213 O   0  5  0  0  0  0  0  0  0  0  0  0
   -0.4819    1.2412   -3.1937 O   0  0  0  0  0  0  0  0  0  0  0  0
    0.4843    0.1879    1.5230 C   0  0  0  0  0  0  0  0  0  0  0  0
    1.3438   -0.3896    2.1993 O   0  0  0  0  0  0  0  0  0  0  0  0
   -0.1882    1.2429    1.9937 N   0  0  0  0  0  0  0  0  0  0  0  0
   -0.9369    1.5959    1.3948 H   0  0  0  0  0  0  0  0  0  0  0  0
   -0.0317    1.8137    3.3273 C   0  0  0  0  0  0  0  0  0  0  0  0
    1.0285    1.8973    3.5697 H   0  0  0  0  0  0  0  0  0  0  0  0
   -0.4940    2.7999    3.3594 H   0  0  0  0  0  0  0  0  0  0  0  0
   -0.5144    1.1622    4.0560 H   0  0  0  0  0  0  0  0  0  0  0  0
  5  6  2  0  0  0  0
  5  7  1  0  0  0  0
  2  3  1  0  0  0  0
  2  4  1  0  0  0  0
  2  5  1  0  0  0  0
  1  2  1  0  0  0  0
 17 18  2  0  0  0  0
 17 19  1  0  0  0  0
 14 15  1  0  0  0  0
 14 16  2  0  0  0  0
 11 12  1  0  0  0  0
 11 13  1  0  0  0  0
 11 14  1  0  0  0  0
  9 10  1  0  0  0  0
  9 11  1  0  0  0  0
  9 17  1  0  0  0  0
  7  8  1  0  0  0  0
  7  9  1  0  0  0  0
 21 22  1  0  0  0  0
 21 23  1  0  0  0  0
 21 24  1  0  0  0  0
 19 20  1  0  0  0  0
 19 21  1  0  0  0  0
M  CHG  1  15  -1
M  END
$$$$
default_name
  -OEChem-01062215323D

 24 23  0     1  0  0  0  0  0999 V2000
   -2.8347   -3.7166    0.8034 H   0  0  0  0  0  0  0  0  0  0  0  0
   -2.7728   -2.7096    0.3954 C   0  0  0  0  0  0  0  0  0  0  0  0
   -3.4267   -2.0426    0.9524 H   0  0  0  0  0  0  0  0  0  0  0  0
   -3.0538   -2.7186   -0.6556 H   0  0  0  0  0  0  0  0  0  0  0  0
   -1.3498   -2.2206    0.5184 C   0  0  0  0  0  0  0  0  0  0  0  0
   -0.4997   -2.9426    1.0194 O   0  0  0  0  0  0  0  0  0  0  0  0
   -1.1198   -0.9926    0.0674 N   0  0  0  0  0  0  0  0  0  0  0  0
   -1.8978   -0.4486   -0.2716 H   0  0  0  0  0  0  0  0  0  0  0  0
    0.1693   -0.2866    0.0854 C   0  0  1  0  0  0  0  0  0  0  0  0
    0.9571   -0.9741   -0.2274 H   0  0  0  0  0  0  0  0  0  0  0  0
    0.1223    0.8855   -0.9187 C   0  0  0  0  0  0  0  0  0  0  0  0
   -0.7700    1.4816   -0.7197 H   0  0  0  0  0  0  0  0  0  0  0  0
    0.9929    1.5243   -0.7549 H   0  0  0  0  0  0  0  0  0  0  0  0
    0.0768    0.4594   -2.3945 C   0  0  0  0  0  0  0  0  0  0  0  0
    0.6119   -0.6262   -2.7213 O   0  5  0  0  0  0  0  0  0  0  0  0
   -0.4819    1.2412   -3.1937 O   0  0  0  0  0  0  0  0  0  0  0  0
    0.4843    0.1879    1.5230 C   0  0  0  0  0  0  0  0  0  0  0  0
    1.5115   -0.1922    2.0974 O   0  0  0  0  0  0  0  0  0  0  0  0
   -0.3774    1.0268    2.1065 N   0  0  0  0  0  0  0  0  0  0  0  0
   -1.2373    1.2130    1.5870 H   0  0  0  0  0  0  0  0  0  0  0  0
   -0.2476    1.5607    3.4582 C   0  0  0  0  0  0  0  0  0  0  0  0
    0.7788    1.8887    3.6273 H   0  0  0  0  0  0  0  0  0  0  0  0
   -0.9273    2.4028    3.5854 H   0  0  0  0  0  0  0  0  0  0  0  0
   -0.4966    0.7807    4.1780 H   0  0  0  0  0  0  0  0  0  0  0  0
  5  6  2  0  0  0  0
  5  7  1  0  0  0  0
  2  3  1  0  0  0  0
  2  4  1  0  0  0  0
  2  5  1  0  0  0  0
  1  2  1  0  0  0  0
 17 18  2  0  0  0  0
 17 19  1  0  0  0  0
 14 15  1  0  0  0  0
 14 16  2  0  0  0  0
 11 12  1  0  0  0  0
 11 13  1  0  0  0  0
 11 14  1  0  0  0  0
  9 10  1  0  0  0  0
  9 11  1  0  0  0  0
  9 17  1  0  0  0  0
  7  8  1  0  0  0  0
  7  9  1  0  0  0  0
 21 22  1  0  0  0  0
 21 23  1  0  0  0  0
 21 24  1  0  0  0  0
 19 20  1  0  0  0  0
 19 21  1  0  0  0  0
M  CHG  1  15  -1
M  END
$$$$
default_name
  -OEChem-01062215323D

 24 23  0     1  0  0  0  0  0999 V2000
   -2.8347   -3.7166    0.8034 H   0  0  0  0  0  0  0  0  0  0  0  0
   -2.7728   -2.7096    0.3954 C   0  0  0  0  0  0  0  0  0  0  0  0
   -3.4267   -2.0426    0.9524 H   0  0  0  0  0  0  0  0  0  0  0  0
   -3.0538   -2.7186   -0.6556 H   0  0  0  0  0  0  0  0  0  0  0  0
   -1.3498   -2.2206    0.5184 C   0  0  0  0  0  0  0  0  0  0  0  0
   -0.4997   -2.9426    1.0194 O   0  0  0  0  0  0  0  0  0  0  0  0
   -1.1198   -0.9926    0.0674 N   0  0  0  0  0  0  0  0  0  0  0  0
   -1.8978   -0.4486   -0.2716 H   0  0  0  0  0  0  0  0  0  0  0  0
    0.1693   -0.2866    0.0854 C   0  0  1  0  0  0  0  0  0  0  0  0
    0.9571   -0.9741   -0.2274 H   0  0  0  0  0  0  0  0  0  0  0  0
    0.1223    0.8855   -0.9187 C   0  0  0  0  0  0  0  0  0  0  0  0
   -0.7700    1.4816   -0.7197 H   0  0  0  0  0  0  0  0  0  0  0  0
    0.9929    1.5243   -0.7549 H   0  0  0  0  0  0  0  0  0  0  0  0
    0.0768    0.4594   -2.3945 C   0  0  0  0  0  0  0  0  0  0  0  0
    0.6119   -0.6262   -2.7213 O   0  5  0  0  0  0  0  0  0  0  0  0
   -0.4819    1.2412   -3.1937 O   0  0  0  0  0  0  0  0  0  0  0  0
    0.4843    0.1879    1.5230 C   0  0  0  0  0  0  0  0  0  0  0  0
    1.6180    0.0442    1.9960 O   0  0  0  0  0  0  0  0  0  0  0  0
   -0.4992    0.7666    2.2191 N   0  0  0  0  0  0  0  0  0  0  0  0
   -1.4201    0.7607    1.7764 H   0  0  0  0  0  0  0  0  0  0  0  0
   -0.3849    1.2574    3.5884 C   0  0  0  0  0  0  0  0  0  0  0  0
    0.5443    1.8171    3.7023 H   0  0  0  0  0  0  0  0  0  0  0  0
   -1.2324    1.9031    3.8172 H   0  0  0  0  0  0  0  0  0  0  0  0
   -0.3780    0.4101    4.2743 H   0  0  0  0  0  0  0  0  0  0  0  0
  5  6  2  0  0  0  0
  5  7  1  0  0  0  0
  2  3  1  0  0  0  0
  2  4  1  0  0  0  0
  2  5  1  0  0  0  0
  1  2  1  0  0  0  0
 17 18  2  0  0  0  0
 17 19  1  0  0  0  0
 14 15  1  0  0  0  0
 14 16  2  0  0  0  0
 11 12  1  0  0  0  0
 11 13  1  0  0  0  0
 11 14  1  0  0  0  0
  9 10  1  0  0  0  0
  9 11  1  0  0  0  0
  9 17  1  0  0  0  0
  7  8  1  0  0  0  0
  7  9  1  0  0  0  0
 21 22  1  0  0  0  0
 21 23  1  0  0  0  0
 21 24  1  0  0  0  0
 19 20  1  0  0  0  0
 19 21  1  0  0  0  0
M  CHG  1  15  -1
M  END
$$$$
default_name
  -OEChem-01062215323D

 24 23  0     1  0  0  0  0  0999 V2000
   -2.8347   -3.7166    0.8034 H   0  0  0  0  0  0  0  0  0  0  0  0
   -2.7728   -2.7096    0.3954 C   0  0  0  0  0  0  0  0  0  0  0  0
   -3.4267   -2.0426    0.9524 H   0  0  0  0  0  0  0  0  0  0  0  0
   -3.0538   -2.7186   -0.6556 H   0  0  0  0  0  0  0  0  0  0  0  0
   -1.3498   -2.2206    0.5184 C   0  0  0  0  0  0  0  0  0  0  0  0
   -0.4997   -2.9426    1.0194 O   0  0  0  0  0  0  0  0  0  0  0  0
   -1.1198   -0.9926    0.0674 N   0  0  0  0  0  0  0  0  0  0  0  0
   -1.8978   -0.4486   -0.2716 H   0  0  0  0  0  0  0  0  0  0  0  0
    0.1693   -0.2866    0.0854 C   0  0  1  0  0  0  0  0  0  0  0  0
    0.9571   -0.9741   -0.2274 H   0  0  0  0  0  0  0  0  0  0  0  0
    0.1223    0.8855   -0.9187 C   0  0  0  0  0  0  0  0  0  0  0  0
   -0.7700    1.4816   -0.7197 H   0  0  0  0  0  0  0  0  0  0  0  0
    0.9929    1.5243   -0.7549 H   0  0  0  0  0  0  0  0  0  0  0  0
    0.0768    0.4594   -2.3945 C   0  0  0  0  0  0  0  0  0  0  0  0
    0.6119   -0.6262   -2.7213 O   0  5  0  0  0  0  0  0  0  0  0  0
   -0.4819    1.2412   -3.1937 O   0  0  0  0  0  0  0  0  0  0  0  0
    0.4843    0.1879    1.5230 C   0  0  0  0  0  0  0  0  0  0  0  0
    1.6558    0.3035    1.9022 O   0  0  0  0  0  0  0  0  0  0  0  0
   -0.5453    0.4801    2.3238 N   0  0  0  0  0  0  0  0  0  0  0  0
   -1.4727    0.2698    1.9500 H   0  0  0  0  0  0  0  0  0  0  0  0
   -0.4342    0.9245    3.7090 C   0  0  0  0  0  0  0  0  0  0  0  0
    0.3409    1.6877    3.7896 H   0  0  0  0  0  0  0  0  0  0  0  0
   -1.3883    1.3347    4.0390 H   0  0  0  0  0  0  0  0  0  0  0  0
   -0.1665    0.0756    4.3384 H   0  0  0  0  0  0  0  0  0  0  0  0
  5  6  2  0  0  0  0
  5  7  1  0  0  0  0
  2  3  1  0  0  0  0
  2  4  1  0  0  0  0
  2  5  1  0  0  0  0
  1  2  1  0  0  0  0
 17 18  2  0  0  0  0
 17 19  1  0  0  0  0
 14 15  1  0  0  0  0
 14 16  2  0  0  0  0
 11 12  1  0  0  0  0
 11 13  1  0  0  0  0
 11 14  1  0  0  0  0
  9 10  1  0  0  0  0
  9 11  1  0  0  0  0
  9 17  1  0  0  0  0
  7  8  1  0  0  0  0
  7  9  1  0  0  0  0
 21 22  1  0  0  0  0
 21 23  1  0  0  0  0
 21 24  1  0  0  0  0
 19 20  1  0  0  0  0
 19 21  1  0  0  0  0
M  CHG  1  15  -1
M  END
$$$$
default_name
  -OEChem-01062215323D

 24 23  0     1  0  0  0  0  0999 V2000
   -2.8347   -3.7166    0.8034 H   0  0  0  0  0  0  0  0  0  0  0  0
   -2.7728   -2.7096    0.3954 C   0  0  0  0  0  0  0  0  0  0  0  0
   -3.4267   -2.0426    0.9524 H   0  0  0  0  0  0  0  0  0  0  0  0
   -3.0538   -2.7186   -0.6556 H   0  0  0  0  0  0  0  0  0  0  0  0
   -1.3498   -2.2206    0.5184 C   0  0  0  0  0  0  0  0  0  0  0  0
   -0.4997   -2.9426    1.0194 O   0  0  0  0  0  0  0  0  0  0  0  0
   -1.1198   -0.9926    0.0674 N   0  0  0  0  0  0  0  0  0  0  0  0
   -1.8978   -0.4486   -0.2716 H   0  0  0  0  0  0  0  0  0  0  0  0
    0.1693   -0.2866    0.0854 C   0  0  1  0  0  0  0  0  0  0  0  0
    0.9571   -0.9741   -0.2274 H   0  0  0  0  0  0  0  0  0  0  0  0
    0.1223    0.8855   -0.9187 C   0  0  0  0  0  0  0  0  0  0  0  0
   -0.7700    1.4816   -0.7197 H   0  0  0  0  0  0  0  0  0  0  0  0
    0.9929    1.5243   -0.7549 H   0  0  0  0  0  0  0  0  0  0  0  0
    0.0768    0.4594   -2.3945 C   0  0  0  0  0  0  0  0  0  0  0  0
    0.6119   -0.6262   -2.7213 O   0  5  0  0  0  0  0  0  0  0  0  0
   -0.4819    1.2412   -3.1937 O   0  0  0  0  0  0  0  0  0  0  0  0
    0.4843    0.1879    1.5230 C   0  0  0  0  0  0  0  0  0  0  0  0
    1.6226    0.5680    1.8221 O   0  0  0  0  0  0  0  0  0  0  0  0
   -0.5126    0.1867    2.4135 N   0  0  0  0  0  0  0  0  0  0  0  0
   -1.3917   -0.2262    2.0959 H   0  0  0  0  0  0  0  0  0  0  0  0
   -0.3922    0.5848    3.8120 C   0  0  0  0  0  0  0  0  0  0  0  0
    0.1826    1.5091    3.8832 H   0  0  0  0  0  0  0  0  0  0  0  0
   -1.3846    0.7365    4.2356 H   0  0  0  0  0  0  0  0  0  0  0  0
    0.1233   -0.2001    4.3658 H   0  0  0  0  0  0  0  0  0  0  0  0
  5  6  2  0  0  0  0
  5  7  1  0  0  0  0
  2  3  1  0  0  0  0
  2  4  1  0  0  0  0
  2  5  1  0  0  0  0
  1  2  1  0  0  0  0
 17 18  2  0  0  0  0
 17 19  1  0  0  0  0
 14 15  1  0  0  0  0
 14 16  2  0  0  0  0
 11 12  1  0  0  0  0
 11 13  1  0  0  0  0
 11 14  1  0  0  0  0
  9 10  1  0  0  0  0
  9 11  1  0  0  0  0
  9 17  1  0  0  0  0
  7  8  1  0  0  0  0
  7  9  1  0  0  0  0
 21 22  1  0  0  0  0
 21 23  1  0  0  0  0
 21 24  1  0  0  0  0
 19 20  1  0  0  0  0
 19 21  1  0  0  0  0
M  CHG  1  15  -1
M  END
$$$$
default_name
  -OEChem-01062215323D

 24 23  0     1  0  0  0  0  0999 V2000
   -2.8347   -3.7166    0.8034 H   0  0  0  0  0  0  0  0  0  0  0  0
   -2.7728   -2.7096    0.3954 C   0  0  0  0  0  0  0  0  0  0  0  0
   -3.4267   -2.0426    0.9524 H   0  0  0  0  0  0  0  0  0  0  0  0
   -3.0538   -2.7186   -0.6556 H   0  0  0  0  0  0  0  0  0  0  0  0
   -1.3498   -2.2206    0.5184 C   0  0  0  0  0  0  0  0  0  0  0  0
   -0.4997   -2.9426    1.0194 O   0  0  0  0  0  0  0  0  0  0  0  0
   -1.1198   -0.9926    0.0674 N   0  0  0  0  0  0  0  0  0  0  0  0
   -1.8978   -0.4486   -0.2716 H   0  0  0  0  0  0  0  0  0  0  0  0
    0.1693   -0.2866    0.0854 C   0  0  1  0  0  0  0  0  0  0  0  0
    0.9571   -0.9741   -0.2274 H   0  0  0  0  0  0  0  0  0  0  0  0
    0.1223    0.8855   -0.9187 C   0  0  0  0  0  0  0  0  0  0  0  0
   -0.7700    1.4816   -0.7197 H   0  0  0  0  0  0  0  0  0  0  0  0
    0.9929    1.5243   -0.7549 H   0  0  0  0  0  0  0  0  0  0  0  0
    0.0768    0.4594   -2.3945 C   0  0  0  0  0  0  0  0  0  0  0  0
    0.6119   -0.6262   -2.7213 O   0  5  0  0  0  0  0  0  0  0  0  0
   -0.4819    1.2412   -3.1937 O   0  0  0  0  0  0  0  0  0  0  0  0
    0.4843    0.1879    1.5230 C   0  0  0  0  0  0  0  0  0  0  0  0
    1.5204    0.8197    1.7614 O   0  0  0  0  0  0  0  0  0  0  0  0
   -0.4033   -0.0936    2.4820 N   0  0  0  0  0  0  0  0  0  0  0  0
   -1.1824   -0.6934    2.2043 H   0  0  0  0  0  0  0  0  0  0  0  0
   -0.2616    0.2613    3.8901 C   0  0  0  0  0  0  0  0  0  0  0  0
    0.0800    1.2935    3.9769 H   0  0  0  0  0  0  0  0  0  0  0  0
   -1.2214    0.1492    4.3937 H   0  0  0  0  0  0  0  0  0  0  0  0
    0.4718   -0.3980    4.3548 H   0  0  0  0  0  0  0  0  0  0  0  0
  5  6  2  0  0  0  0
  5  7  1  0  0  0  0
  2  3  1  0  0  0  0
  2  4  1  0  0  0  0
  2  5  1  0  0  0  0
  1  2  1  0  0  0  0
 17 18  2  0  0  0  0
 17 19  1  0  0  0  0
 14 15  1  0  0  0  0
 14 16  2  0  0  0  0
 11 12  1  0  0  0  0
 11 13  1  0  0  0  0
 11 14  1  0  0  0  0
  9 10  1  0  0  0  0
  9 11  1  0  0  0  0
  9 17  1  0  0  0  0
  7  8  1  0  0  0  0
  7  9  1  0  0  0  0
 21 22  1  0  0  0  0
 21 23  1  0  0  0  0
 21 24  1  0  0  0  0
 19 20  1  0  0  0  0
 19 21  1  0  0  0  0
M  CHG  1  15  -1
M  END
$$$$
default_name
  -OEChem-01062215323D

 24 23  0     1  0  0  0  0  0999 V2000
   -2.8347   -3.7166    0.8034 H   0  0  0  0  0  0  0  0  0  0  0  0
   -2.7728   -2.7096    0.3954 C   0  0  0  0  0  0  0  0  0  0  0  0
   -3.4267   -2.0426    0.9524 H   0  0  0  0  0  0  0  0  0  0  0  0
   -3.0538   -2.7186   -0.6556 H   0  0  0  0  0  0  0  0  0  0  0  0
   -1.3498   -2.2206    0.5184 C   0  0  0  0  0  0  0  0  0  0  0  0
   -0.4997   -2.9426    1.0194 O   0  0  0  0  0  0  0  0  0  0  0  0
   -1.1198   -0.9926    0.0674 N   0  0  0  0  0  0  0  0  0  0  0  0
   -1.8978   -0.4486   -0.2716 H   0  0  0  0  0  0  0  0  0  0  0  0
    0.1693   -0.2866    0.0854 C   0  0  1  0  0  0  0  0  0  0  0  0
    0.9571   -0.9741   -0.2274 H   0  0  0  0  0  0  0  0  0  0  0  0
    0.1223    0.8855   -0.9187 C   0  0  0  0  0  0  0  0  0  0  0  0
   -0.7700    1.4816   -0.7197 H   0  0  0  0  0  0  0  0  0  0  0  0
    0.9929    1.5243   -0.7549 H   0  0  0  0  0  0  0  0  0  0  0  0
    0.0768    0.4594   -2.3945 C   0  0  0  0  0  0  0  0  0  0  0  0
    0.6119   -0.6262   -2.7213 O   0  5  0  0  0  0  0  0  0  0  0  0
   -0.4819    1.2412   -3.1937 O   0  0  0  0  0  0  0  0  0  0  0  0
    0.4843    0.1879    1.5230 C   0  0  0  0  0  0  0  0  0  0  0  0
    1.3564    1.0414    1.7242 O   0  0  0  0  0  0  0  0  0  0  0  0
   -0.2248   -0.3416    2.5248 N   0  0  0  0  0  0  0  0  0  0  0  0
   -0.8593   -1.1001    2.2677 H   0  0  0  0  0  0  0  0  0  0  0  0
   -0.0515   -0.0239    3.9382 C   0  0  0  0  0  0  0  0  0  0  0  0
    0.0403    1.0557    4.0641 H   0  0  0  0  0  0  0  0  0  0  0  0
   -0.9100   -0.3871    4.5025 H   0  0  0  0  0  0  0  0  0  0  0  0
    0.8551   -0.5048    4.3060 H   0  0  0  0  0  0  0  0  0  0  0  0
  5  6  2  0  0  0  0
  5  7  1  0  0  0  0
  2  3  1  0  0  0  0
  2  4  1  0  0  0  0
  2  5  1  0  0  0  0
  1  2  1  0  0  0  0
 17 18  2  0  0  0  0
 17 19  1  0  0  0  0
 14 15  1  0  0  0  0
 14 16  2  0  0  0  0
 11 12  1  0  0  0  0
 11 13  1  0  0  0  0
 11 14  1  0  0  0  0
  9 10  1  0  0  0  0
  9 11  1  0  0  0  0
  9 17  1  0  0  0  0
  7  8  1  0  0  0  0
  7  9  1  0  0  0  0
 21 22  1  0  0  0  0
 21 23  1  0  0  0  0
 21 24  1  0  0  0  0
 19 20  1  0  0  0  0
 19 21  1  0  0  0  0
M  CHG  1  15  -1
M  END
$$$$
default_name
  -OEChem-01062215323D

 24 23  0     1  0  0  0  0  0999 V2000
   -2.8347   -3.7166    0.8034 H   0  0  0  0  0  0  0  0  0  0  0  0
   -2.7728   -2.7096    0.3954 C   0  0  0  0  0  0  0  0  0  0  0  0
   -3.4267   -2.0426    0.9524 H   0  0  0  0  0  0  0  0  0  0  0  0
   -3.0538   -2.7186   -0.6556 H   0  0  0  0  0  0  0  0  0  0  0  0
   -1.3498   -2.2206    0.5184 C   0  0  0  0  0  0  0  0  0  0  0  0
   -0.4997   -2.9426    1.0194 O   0  0  0  0  0  0  0  0  0  0  0  0
   -1.1198   -0.9926    0.0674 N   0  0  0  0  0  0  0  0  0  0  0  0
   -1.8978   -0.4486   -0.2716 H   0  0  0  0  0  0  0  0  0  0  0  0
    0.1693   -0.2866    0.0854 C   0  0  1  0  0  0  0  0  0  0  0  0
    0.9571   -0.9741   -0.2274 H   0  0  0  0  0  0  0  0  0  0  0  0
    0.1223    0.8855   -0.9187 C   0  0  0  0  0  0  0  0  0  0  0  0
   -0.7700    1.4816   -0.7197 H   0  0  0  0  0  0  0  0  0  0  0  0
    0.9929    1.5243   -0.7549 H   0  0  0  0  0  0  0  0  0  0  0  0
    0.0768    0.4594   -2.3945 C   0  0  0  0  0  0  0  0  0  0  0  0
    0.6119   -0.6262   -2.7213 O   0  5  0  0  0  0  0  0  0  0  0  0
   -0.4819    1.2412   -3.1937 O   0  0  0  0  0  0  0  0  0  0  0  0
    0.4843    0.1879    1.5230 C   0  0  0  0  0  0  0  0  0  0  0  0
    1.1416    1.2181    1.7129 O   0  0  0  0  0  0  0  0  0  0  0  0
    0.0107   -0.5405    2.5388 N   0  0  0  0  0  0  0  0  0  0  0  0
   -0.4443   -1.4186    2.2819 H   0  0  0  0  0  0  0  0  0  0  0  0
    0.2239   -0.2513    3.9529 C   0  0  0  0  0  0  0  0  0  0  0  0
    0.0660    0.8119    4.1389 H   0  0  0  0  0  0  0  0  0  0  0  0
   -0.4714   -0.8360    4.5546 H   0  0  0  0  0  0  0  0  0  0  0  0
    1.2472   -0.5131    4.2228 H   0  0  0  0  0  0  0  0  0  0  0  0
  5  6  2  0  0  0  0
  5  7  1  0  0  0  0
  2  3  1  0  0  0  0
  2  4  1  0  0  0  0
  2  5  1  0  0  0  0
  1  2  1  0  0  0  0
 17 18  2  0  0  0  0
 17 19  1  0  0  0  0
 14 15  1  0  0  0  0
 14 16  2  0  0  0  0
 11 12  1  0  0  0  0
 11 13  1  0  0  0  0
 11 14  1  0  0  0  0
  9 10  1  0  0  0  0
  9 11  1  0  0  0  0
  9 17  1  0  0  0  0
  7  8  1  0  0  0  0
  7  9  1  0  0  0  0
 21 22  1  0  0  0  0
 21 23  1  0  0  0  0
 21 24  1  0  0  0  0
 19 20  1  0  0  0  0
 19 21  1  0  0  0  0
M  CHG  1  15  -1
M  END
$$$$
default_name
  -OEChem-01062215323D

 24 23  0     1  0  0  0  0  0999 V2000
   -2.8347   -3.7166    0.8034 H   0  0  0  0  0  0  0  0  0  0  0  0
   -2.7728   -2.7096    0.3954 C   0  0  0  0  0  0  0  0  0  0  0  0
   -3.4267   -2.0426    0.9524 H   0  0  0  0  0  0  0  0  0  0  0  0
   -3.0538   -2.7186   -0.6556 H   0  0  0  0  0  0  0  0  0  0  0  0
   -1.3498   -2.2206    0.5184 C   0  0  0  0  0  0  0  0  0  0  0  0
   -0.4997   -2.9426    1.0194 O   0  0  0  0  0  0  0  0  0  0  0  0
   -1.1198   -0.9926    0.0674 N   0  0  0  0  0  0  0  0  0  0  0  0
   -1.8978   -0.4486   -0.2716 H   0  0  0  0  0  0  0  0  0  0  0  0
    0.1693   -0.2866    0.0854 C   0  0  1  0  0  0  0  0  0  0  0  0
    0.9571   -0.9741   -0.2274 H   0  0  0  0  0  0  0  0  0  0  0  0
    0.1223    0.8855   -0.9187 C   0  0  0  0  0  0  0  0  0  0  0  0
   -0.7700    1.4816   -0.7197 H   0  0  0  0  0  0  0  0  0  0  0  0
    0.9929    1.5243   -0.7549 H   0  0  0  0  0  0  0  0  0  0  0  0
    0.0768    0.4594   -2.3945 C   0  0  0  0  0  0  0  0  0  0  0  0
    0.6119   -0.6262   -2.7213 O   0  5  0  0  0  0  0  0  0  0  0  0
   -0.4819    1.2412   -3.1937 O   0  0  0  0  0  0  0  0  0  0  0  0
    0.4843    0.1879    1.5230 C   0  0  0  0  0  0  0  0  0  0  0  0
    0.8908    1.3377    1.7284 O   0  0  0  0  0  0  0  0  0  0  0  0
    0.2871   -0.6767    2.5232 N   0  0  0  0  0  0  0  0  0  0  0  0
    0.0343   -1.6271    2.2458 H   0  0  0  0  0  0  0  0  0  0  0  0
    0.5458   -0.4055    3.9332 C   0  0  0  0  0  0  0  0  0  0  0  0
    0.1556    0.5785    4.1963 H   0  0  0  0  0  0  0  0  0  0  0  0
    0.0643   -1.1668    4.5463 H   0  0  0  0  0  0  0  0  0  0  0  0
    1.6213   -0.4224    4.1109 H   0  0  0  0  0  0  0  0  0  0  0  0
  5  6  2  0  0  0  0
  5  7  1  0  0  0  0
  2  3  1  0  0  0  0
  2  4  1  0  0  0  0
  2  5  1  0  0  0  0
  1  2  1  0  0  0  0
 17 18  2  0  0  0  0
 17 19  1  0  0  0  0
 14 15  1  0  0  0  0
 14 16  2  0  0  0  0
 11 12  1  0  0  0  0
 11 13  1  0  0  0  0
 11 14  1  0  0  0  0
  9 10  1  0  0  0  0
  9 11  1  0  0  0  0
  9 17  1  0  0  0  0
  7  8  1  0  0  0  0
  7  9  1  0  0  0  0
 21 22  1  0  0  0  0
 21 23  1  0  0  0  0
 21 24  1  0  0  0  0
 19 20  1  0  0  0  0
 19 21  1  0  0  0  0
M  CHG  1  15  -1
M  END
$$$$
default_name
  -OEChem-01062215323D

 24 23  0     1  0  0  0  0  0999 V2000
   -2.8347   -3.7166    0.8034 H   0  0  0  0  0  0  0  0  0  0  0  0
   -2.7728   -2.7096    0.3954 C   0  0  0  0  0  0  0  0  0  0  0  0
   -3.4267   -2.0426    0.9524 H   0  0  0  0  0  0  0  0  0  0  0  0
   -3.0538   -2.7186   -0.6556 H   0  0  0  0  0  0  0  0  0  0  0  0
   -1.3498   -2.2206    0.5184 C   0  0  0  0  0  0  0  0  0  0  0  0
   -0.4997   -2.9426    1.0194 O   0  0  0  0  0  0  0  0  0  0  0  0
   -1.1198   -0.9926    0.0674 N   0  0  0  0  0  0  0  0  0  0  0  0
   -1.8978   -0.4486   -0.2716 H   0  0  0  0  0  0  0  0  0  0  0  0
    0.1693   -0.2866    0.0854 C   0  0  1  0  0  0  0  0  0  0  0  0
    0.9571   -0.9741   -0.2274 H   0  0  0  0  0  0  0  0  0  0  0  0
    0.1223    0.8855   -0.9187 C   0  0  0  0  0  0  0  0  0  0  0  0
   -0.7700    1.4816   -0.7197 H   0  0  0  0  0  0  0  0  0  0  0  0
    0.9929    1.5243   -0.7549 H   0  0  0  0  0  0  0  0  0  0  0  0
    0.0768    0.4594   -2.3945 C   0  0  0  0  0  0  0  0  0  0  0  0
    0.6119   -0.6262   -2.7213 O   0  5  0  0  0  0  0  0  0  0  0  0
   -0.4819    1.2412   -3.1937 O   0  0  0  0  0  0  0  0  0  0  0  0
    0.4843    0.1879    1.5230 C   0  0  0  0  0  0  0  0  0  0  0  0
    0.6209    1.3921    1.7696 O   0  0  0  0  0  0  0  0  0  0  0  0
    0.5856   -0.7409    2.4790 N   0  0  0  0  0  0  0  0  0  0  0  0
    0.5439   -1.7114    2.1619 H   0  0  0  0  0  0  0  0  0  0  0  0
    0.8923   -0.4759    3.8806 C   0  0  0  0  0  0  0  0  0  0  0  0
    0.3027    0.3717    4.2323 H   0  0  0  0  0  0  0  0  0  0  0  0
    0.6608   -1.3570    4.4784 H   0  0  0  0  0  0  0  0  0  0  0  0
    1.9520   -0.2389    3.9779 H   0  0  0  0  0  0  0  0  0  0  0  0
  5  6  2  0  0  0  0
  5  7  1  0  0  0  0
  2  3  1  0  0  0  0
  2  4  1  0  0  0  0
  2  5  1  0  0  0  0
  1  2  1  0  0  0  0
 17 18  2  0  0  0  0
 17 19  1  0  0  0  0
 14 15  1  0  0  0  0
 14 16  2  0  0  0  0
 11 12  1  0  0  0  0
 11 13  1  0  0  0  0
 11 14  1  0  0  0  0
  9 10  1  0  0  0  0
  9 11  1  0  0  0  0
  9 17  1  0  0  0  0
  7  8  1  0  0  0  0
  7  9  1  0  0  0  0
 21 22  1  0  0  0  0
 21 23  1  0  0  0  0
 21 24  1  0  0  0  0
 19 20  1  0  0  0  0
 19 21  1  0  0  0  0
M  CHG  1  15  -1
M  END
$$$$
default_name
  -OEChem-01062215323D

 24 23  0     1  0  0  0  0  0999 V2000
   -2.8347   -3.7166    0.8034 H   0  0  0  0  0  0  0  0  0  0  0  0
   -2.7728   -2.7096    0.3954 C   0  0  0  0  0  0  0  0  0  0  0  0
   -3.4267   -2.0426    0.9524 H   0  0  0  0  0  0  0  0  0  0  0  0
   -3.0538   -2.7186   -0.6556 H   0  0  0  0  0  0  0  0  0  0  0  0
   -1.3498   -2.2206    0.5184 C   0  0  0  0  0  0  0  0  0  0  0  0
   -0.4997   -2.9426    1.0194 O   0  0  0  0  0  0  0  0  0  0  0  0
   -1.1198   -0.9926    0.0674 N   0  0  0  0  0  0  0  0  0  0  0  0
   -1.8978   -0.4486   -0.2716 H   0  0  0  0  0  0  0  0  0  0  0  0
    0.1693   -0.2866    0.0854 C   0  0  1  0  0  0  0  0  0  0  0  0
    0.9571   -0.9741   -0.2274 H   0  0  0  0  0  0  0  0  0  0  0  0
    0.1223    0.8855   -0.9187 C   0  0  0  0  0  0  0  0  0  0  0  0
   -0.7700    1.4816   -0.7197 H   0  0  0  0  0  0  0  0  0  0  0  0
    0.9929    1.5243   -0.7549 H   0  0  0  0  0  0  0  0  0  0  0  0
    0.0768    0.4594   -2.3945 C   0  0  0  0  0  0  0  0  0  0  0  0
    0.6119   -0.6262   -2.7213 O   0  5  0  0  0  0  0  0  0  0  0  0
   -0.4819    1.2412   -3.1937 O   0  0  0  0  0  0  0  0  0  0  0  0
    0.4843    0.1879    1.5230 C   0  0  0  0  0  0  0  0  0  0  0  0
    0.3504    1.3775    1.8337 O   0  0  0  0  0  0  0  0  0  0  0  0
    0.8859   -0.7288    2.4091 N   0  0  0  0  0  0  0  0  0  0  0  0
    1.0498   -1.6657    2.0360 H   0  0  0  0  0  0  0  0  0  0  0  0
    1.2398   -0.4578    3.7984 C   0  0  0  0  0  0  0  0  0  0  0  0
    0.4975    0.2054    4.2445 H   0  0  0  0  0  0  0  0  0  0  0  0
    1.2773   -1.3936    4.3554 H   0  0  0  0  0  0  0  0  0  0  0  0
    2.2166    0.0250    3.8328 H   0  0  0  0  0  0  0  0  0  0  0  0
  5  6  2  0  0  0  0
  5  7  1  0  0  0  0
  2  3  1  0  0  0  0
  2  4  1  0  0  0  0
  2  5  1  0  0  0  0
  1  2  1  0  0  0  0
 17 18  2  0  0  0  0
 17 19  1  0  0  0  0
 14 15  1  0  0  0  0
 14 16  2  0  0  0  0
 11 12  1  0  0  0  0
 11 13  1  0  0  0  0
 11 14  1  0  0  0  0
  9 10  1  0  0  0  0
  9 11  1  0  0  0  0
  9 17  1  0  0  0  0
  7  8  1  0  0  0  0
  7  9  1  0  0  0  0
 21 22  1  0  0  0  0
 21 23  1  0  0  0  0
 21 24  1  0  0  0  0
 19 20  1  0  0  0  0
 19 21  1  0  0  0  0
M  CHG  1  15  -1
M  END
$$$$
default_name
  -OEChem-01062215323D

 24 23  0     1  0  0  0  0  0999 V2000
   -2.8347   -3.7166    0.8034 H   0  0  0  0  0  0  0  0  0  0  0  0
   -2.7728   -2.7096    0.3954 C   0  0  0  0  0  0  0  0  0  0  0  0
   -3.4267   -2.0426    0.9524 H   0  0  0  0  0  0  0  0  0  0  0  0
   -3.0538   -2.7186   -0.6556 H   0  0  0  0  0  0  0  0  0  0  0  0
   -1.3498   -2.2206    0.5184 C   0  0  0  0  0  0  0  0  0  0  0  0
   -0.4997   -2.9426    1.0194 O   0  0  0  0  0  0  0  0  0  0  0  0
   -1.1198   -0.9926    0.0674 N   0  0  0  0  0  0  0  0  0  0  0  0
   -1.8978   -0.4486   -0.2716 H   0  0  0  0  0  0  0  0  0  0  0  0
    0.1693   -0.2866    0.0854 C   0  0  1  0  0  0  0  0  0  0  0  0
    0.9571   -0.9741   -0.2274 H   0  0  0  0  0  0  0  0  0  0  0  0
    0.1223    0.8855   -0.9187 C   0  0  0  0  0  0  0  0  0  0  0  0
   -0.7700    1.4816   -0.7197 H   0  0  0  0  0  0  0  0  0  0  0  0
    0.9929    1.5243   -0.7549 H   0  0  0  0  0  0  0  0  0  0  0  0
    0.0768    0.4594   -2.3945 C   0  0  0  0  0  0  0  0  0  0  0  0
    0.6119   -0.6262   -2.7213 O   0  5  0  0  0  0  0  0  0  0  0  0
   -0.4819    1.2412   -3.1937 O   0  0  0  0  0  0  0  0  0  0  0  0
    0.4843    0.1879    1.5230 C   0  0  0  0  0  0  0  0  0  0  0  0
    0.0978    1.2949    1.9164 O   0  0  0  0  0  0  0  0  0  0  0  0
    1.1675   -0.6411    2.3185 N   0  0  0  0  0  0  0  0  0  0  0  0
    1.5175   -1.4933    1.8766 H   0  0  0  0  0  0  0  0  0  0  0  0
    1.5645   -0.3523    3.6925 C   0  0  0  0  0  0  0  0  0  0  0  0
    0.7266    0.0910    4.2321 H   0  0  0  0  0  0  0  0  0  0  0  0
    1.8718   -1.2741    4.1856 H   0  0  0  0  0  0  0  0  0  0  0  0
    2.3973    0.3512    3.6855 H   0  0  0  0  0  0  0  0  0  0  0  0
  5  6  2  0  0  0  0
  5  7  1  0  0  0  0
  2  3  1  0  0  0  0
  2  4  1  0  0  0  0
  2  5  1  0  0  0  0
  1  2  1  0  0  0  0
 17 18  2  0  0  0  0
 17 19  1  0  0  0  0
 14 15  1  0  0  0  0
 14 16  2  0  0  0  0
 11 12  1  0  0  0  0
 11 13  1  0  0  0  0
 11 14  1  0  0  0  0
  9 10  1  0  0  0  0
  9 11  1  0  0  0  0
  9 17  1  0  0  0  0
  7  8  1  0  0  0  0
  7  9  1  0  0  0  0
 21 22  1  0  0  0  0
 21 23  1  0  0  0  0
 21 24  1  0  0  0  0
 19 20  1  0  0  0  0
 19 21  1  0  0  0  0
M  CHG  1  15  -1
M  END
$$$$
default_name
  -OEChem-01062215323D

 24 23  0     1  0  0  0  0  0999 V2000
   -2.8347   -3.7166    0.8034 H   0  0  0  0  0  0  0  0  0  0  0  0
   -2.7728   -2.7096    0.3954 C   0  0  0  0  0  0  0  0  0  0  0  0
   -3.4267   -2.0426    0.9524 H   0  0  0  0  0  0  0  0  0  0  0  0
   -3.0538   -2.7186   -0.6556 H   0  0  0  0  0  0  0  0  0  0  0  0
   -1.3498   -2.2206    0.5184 C   0  0  0  0  0  0  0  0  0  0  0  0
   -0.4997   -2.9426    1.0194 O   0  0  0  0  0  0  0  0  0  0  0  0
   -1.1198   -0.9926    0.0674 N   0  0  0  0  0  0  0  0  0  0  0  0
   -1.8978   -0.4486   -0.2716 H   0  0  0  0  0  0  0  0  0  0  0  0
    0.1693   -0.2866    0.0854 C   0  0  1  0  0  0  0  0  0  0  0  0
    0.9571   -0.9741   -0.2274 H   0  0  0  0  0  0  0  0  0  0  0  0
    0.1223    0.8855   -0.9187 C   0  0  0  0  0  0  0  0  0  0  0  0
   -0.7700    1.4816   -0.7197 H   0  0  0  0  0  0  0  0  0  0  0  0
    0.9929    1.5243   -0.7549 H   0  0  0  0  0  0  0  0  0  0  0  0
    0.0768    0.4594   -2.3945 C   0  0  0  0  0  0  0  0  0  0  0  0
    0.6119   -0.6262   -2.7213 O   0  5  0  0  0  0  0  0  0  0  0  0
   -0.4819    1.2412   -3.1937 O   0  0  0  0  0  0  0  0  0  0  0  0
    0.4843    0.1879    1.5230 C   0  0  0  0  0  0  0  0  0  0  0  0
   -0.1198    1.1500    2.0119 O   0  0  0  0  0  0  0  0  0  0  0  0
    1.4112   -0.4839    2.2132 N   0  0  0  0  0  0  0  0  0  0  0  0
    1.9151   -1.2058    1.6946 H   0  0  0  0  0  0  0  0  0  0  0  0
    1.8444   -0.1668    3.5699 C   0  0  0  0  0  0  0  0  0  0  0  0
    0.9744    0.0363    4.1958 H   0  0  0  0  0  0  0  0  0  0  0  0
    2.4038   -1.0067    3.9808 H   0  0  0  0  0  0  0  0  0  0  0  0
    2.4816    0.7175    3.5461 H   0  0  0  0  0  0  0  0  0  0  0  0
  5  6  2  0  0  0  0
  5  7  1  0  0  0  0
  2  3  1  0  0  0  0
  2  4  1  0  0  0  0
  2  5  1  0  0  0  0
  1  2  1  0  0  0  0
 17 18  2  0  0  0  0
 17 19  1  0  0  0  0
 14 15  1  0  0  0  0
 14 16  2  0  0  0  0
 11 12  1  0  0  0  0
 11 13  1  0  0  0  0
 11 14  1  0  0  0  0
  9 10  1  0  0  0  0
  9 11  1  0  0  0  0
  9 17  1  0  0  0  0
  7  8  1  0  0  0  0
  7  9  1  0  0  0  0
 21 22  1  0  0  0  0
 21 23  1  0  0  0  0
 21 24  1  0  0  0  0
 19 20  1  0  0  0  0
 19 21  1  0  0  0  0
M  CHG  1  15  -1
M  END
$$$$
default_name
  -OEChem-01062215323D

 24 23  0     1  0  0  0  0  0999 V2000
   -2.8347   -3.7166    0.8034 H   0  0  0  0  0  0  0  0  0  0  0  0
   -2.7728   -2.7096    0.3954 C   0  0  0  0  0  0  0  0  0  0  0  0
   -3.4267   -2.0426    0.9524 H   0  0  0  0  0  0  0  0  0  0  0  0
   -3.0538   -2.7186   -0.6556 H   0  0  0  0  0  0  0  0  0  0  0  0
   -1.3498   -2.2206    0.5184 C   0  0  0  0  0  0  0  0  0  0  0  0
   -0.4997   -2.9426    1.0194 O   0  0  0  0  0  0  0  0  0  0  0  0
   -1.1198   -0.9926    0.0674 N   0  0  0  0  0  0  0  0  0  0  0  0
   -1.8978   -0.4486   -0.2716 H   0  0  0  0  0  0  0  0  0  0  0  0
    0.1693   -0.2866    0.0854 C   0  0  1  0  0  0  0  0  0  0  0  0
    0.9571   -0.9741   -0.2274 H   0  0  0  0  0  0  0  0  0  0  0  0
    0.1223    0.8855   -0.9187 C   0  0  0  0  0  0  0  0  0  0  0  0
   -0.7700    1.4816   -0.7197 H   0  0  0  0  0  0  0  0  0  0  0  0
    0.9929    1.5243   -0.7549 H   0  0  0  0  0  0  0  0  0  0  0  0
    0.0768    0.4594   -2.3945 C   0  0  0  0  0  0  0  0  0  0  0  0
    0.6119   -0.6262   -2.7213 O   0  5  0  0  0  0  0  0  0  0  0  0
   -0.4819    1.2412   -3.1937 O   0  0  0  0  0  0  0  0  0  0  0  0
    0.4843    0.1879    1.5230 C   0  0  0  0  0  0  0  0  0  0  0  0
   -0.2875    0.9526    2.1138 O   0  0  0  0  0  0  0  0  0  0  0  0
    1.6004   -0.2678    2.1004 N   0  0  0  0  0  0  0  0  0  0  0  0
    2.2154   -0.8229    1.5023 H   0  0  0  0  0  0  0  0  0  0  0  0
    2.0603    0.0863    3.4390 C   0  0  0  0  0  0  0  0  0  0  0  0
    1.2241    0.0449    4.1382 H   0  0  0  0  0  0  0  0  0  0  0  0
    2.8371   -0.6096    3.7547 H   0  0  0  0  0  0  0  0  0  0  0  0
    2.4638    1.0990    3.4241 H   0  0  0  0  0  0  0  0  0  0  0  0
  5  6  2  0  0  0  0
  5  7  1  0  0  0  0
  2  3  1  0  0  0  0
  2  4  1  0  0  0  0
  2  5  1  0  0  0  0
  1  2  1  0  0  0  0
 17 18  2  0  0  0  0
 17 19  1  0  0  0  0
 14 15  1  0  0  0  0
 14 16  2  0  0  0  0
 11 12  1  0  0  0  0
 11 13  1  0  0  0  0
 11 14  1  0  0  0  0
  9 10  1  0  0  0  0
  9 11  1  0  0  0  0
  9 17  1  0  0  0  0
  7  8  1  0  0  0  0
  7  9  1  0  0  0  0
 21 22  1  0  0  0  0
 21 23  1  0  0  0  0
 21 24  1  0  0  0  0
 19 20  1  0  0  0  0
 19 21  1  0  0  0  0
M  CHG  1  15  -1
M  END
$$$$
default_name
  -OEChem-01062215323D

 24 23  0     1  0  0  0  0  0999 V2000
   -2.8347   -3.7166    0.8034 H   0  0  0  0  0  0  0  0  0  0  0  0
   -2.7728   -2.7096    0.3954 C   0  0  0  0  0  0  0  0  0  0  0  0
   -3.4267   -2.0426    0.9524 H   0  0  0  0  0  0  0  0  0  0  0  0
   -3.0538   -2.7186   -0.6556 H   0  0  0  0  0  0  0  0  0  0  0  0
   -1.3498   -2.2206    0.5184 C   0  0  0  0  0  0  0  0  0  0  0  0
   -0.4997   -2.9426    1.0194 O   0  0  0  0  0  0  0  0  0  0  0  0
   -1.1198   -0.9926    0.0674 N   0  0  0  0  0  0  0  0  0  0  0  0
   -1.8978   -0.4486   -0.2716 H   0  0  0  0  0  0  0  0  0  0  0  0
    0.1693   -0.2866    0.0854 C   0  0  1  0  0  0  0  0  0  0  0  0
    0.9571   -0.9741   -0.2274 H   0  0  0  0  0  0  0  0  0  0  0  0
    0.1223    0.8855   -0.9187 C   0  0  0  0  0  0  0  0  0  0  0  0
   -0.7700    1.4816   -0.7197 H   0  0  0  0  0  0  0  0  0  0  0  0
    0.9929    1.5243   -0.7549 H   0  0  0  0  0  0  0  0  0  0  0  0
    0.0768    0.4594   -2.3945 C   0  0  0  0  0  0  0  0  0  0  0  0
    0.6119   -0.6262   -2.7213 O   0  5  0  0  0  0  0  0  0  0  0  0
   -0.4819    1.2412   -3.1937 O   0  0  0  0  0  0  0  0  0  0  0  0
    0.4843    0.1879    1.5230 C   0  0  0  0  0  0  0  0  0  0  0  0
   -0.3940    0.7162    2.2151 O   0  0  0  0  0  0  0  0  0  0  0  0
    1.7223   -0.0077    1.9878 N   0  0  0  0  0  0  0  0  0  0  0  0
    2.3982   -0.3706    1.3130 H   0  0  0  0  0  0  0  0  0  0  0  0
    2.1976    0.3896    3.3088 C   0  0  0  0  0  0  0  0  0  0  0  0
    1.4587    0.1165    4.0632 H   0  0  0  0  0  0  0  0  0  0  0  0
    3.1421   -0.1099    3.5229 H   0  0  0  0  0  0  0  0  0  0  0  0
    2.3451    1.4696    3.3278 H   0  0  0  0  0  0  0  0  0  0  0  0
  5  6  2  0  0  0  0
  5  7  1  0  0  0  0
  2  3  1  0  0  0  0
  2  4  1  0  0  0  0
  2  5  1  0  0  0  0
  1  2  1  0  0  0  0
 17 18  2  0  0  0  0
 17 19  1  0  0  0  0
 14 15  1  0  0  0  0
 14 16  2  0  0  0  0
 11 12  1  0  0  0  0
 11 13  1  0  0  0  0
 11 14  1  0  0  0  0
  9 10  1  0  0  0  0
  9 11  1  0  0  0  0
  9 17  1  0  0  0  0
  7  8  1  0  0  0  0
  7  9  1  0  0  0  0
 21 22  1  0  0  0  0
 21 23  1  0  0  0  0
 21 24  1  0  0  0  0
 19 20  1  0  0  0  0
 19 21  1  0  0  0  0
M  CHG  1  15  -1
M  END
$$$$
default_name
  -OEChem-01062215323D

 24 23  0     1  0  0  0  0  0999 V2000
   -2.8347   -3.7166    0.8034 H   0  0  0  0  0  0  0  0  0  0  0  0
   -2.7728   -2.7096    0.3954 C   0  0  0  0  0  0  0  0  0  0  0  0
   -3.4267   -2.0426    0.9524 H   0  0  0  0  0  0  0  0  0  0  0  0
   -3.0538   -2.7186   -0.6556 H   0  0  0  0  0  0  0  0  0  0  0  0
   -1.3498   -2.2206    0.5184 C   0  0  0  0  0  0  0  0  0  0  0  0
   -0.4997   -2.9426    1.0194 O   0  0  0  0  0  0  0  0  0  0  0  0
   -1.1198   -0.9926    0.0674 N   0  0  0  0  0  0  0  0  0  0  0  0
   -1.8978   -0.4486   -0.2716 H   0  0  0  0  0  0  0  0  0  0  0  0
    0.1693   -0.2866    0.0854 C   0  0  1  0  0  0  0  0  0  0  0  0
    0.9571   -0.9741   -0.2274 H   0  0  0  0  0  0  0  0  0  0  0  0
    0.1223    0.8855   -0.9187 C   0  0  0  0  0  0  0  0  0  0  0  0
   -0.7700    1.4816   -0.7197 H   0  0  0  0  0  0  0  0  0  0  0  0
    0.9929    1.5243   -0.7549 H   0  0  0  0  0  0  0  0  0  0  0  0
    0.0768    0.4594   -2.3945 C   0  0  0  0  0  0  0  0  0  0  0  0
    0.6119   -0.6262   -2.7213 O   0  5  0  0  0  0  0  0  0  0  0  0
   -0.4819    1.2412   -3.1937 O   0  0  0  0  0  0  0  0  0  0  0  0
    0.4843    0.1879    1.5230 C   0  0  0  0  0  0  0  0  0  0  0  0
   -0.4318    0.4569    2.3090 O   0  0  0  0  0  0  0  0  0  0  0  0
    1.7684    0.2789    1.8831 N   0  0  0  0  0  0  0  0  0  0  0  0
    2.4508    0.1203    1.1394 H   0  0  0  0  0  0  0  0  0  0  0  0
    2.2469    0.7225    3.1881 C   0  0  0  0  0  0  0  0  0  0  0  0
    1.6620    0.2459    3.9759 H   0  0  0  0  0  0  0  0  0  0  0  0
    3.2981    0.4585    3.3012 H   0  0  0  0  0  0  0  0  0  0  0  0
    2.1337    1.8041    3.2637 H   0  0  0  0  0  0  0  0  0  0  0  0
  5  6  2  0  0  0  0
  5  7  1  0  0  0  0
  2  3  1  0  0  0  0
  2  4  1  0  0  0  0
  2  5  1  0  0  0  0
  1  2  1  0  0  0  0
 17 18  2  0  0  0  0
 17 19  1  0  0  0  0
 14 15  1  0  0  0  0
 14 16  2  0  0  0  0
 11 12  1  0  0  0  0
 11 13  1  0  0  0  0
 11 14  1  0  0  0  0
  9 10  1  0  0  0  0
  9 11  1  0  0  0  0
  9 17  1  0  0  0  0
  7  8  1  0  0  0  0
  7  9  1  0  0  0  0
 21 22  1  0  0  0  0
 21 23  1  0  0  0  0
 21 24  1  0  0  0  0
 19 20  1  0  0  0  0
 19 21  1  0  0  0  0
M  CHG  1  15  -1
M  END
$$$$
default_name
  -OEChem-01062215323D

 24 23  0     1  0  0  0  0  0999 V2000
   -2.8347   -3.7166    0.8034 H   0  0  0  0  0  0  0  0  0  0  0  0
   -2.7728   -2.7096    0.3954 C   0  0  0  0  0  0  0  0  0  0  0  0
   -3.4267   -2.0426    0.9524 H   0  0  0  0  0  0  0  0  0  0  0  0
   -3.0538   -2.7186   -0.6556 H   0  0  0  0  0  0  0  0  0  0  0  0
   -1.3498   -2.2206    0.5184 C   0  0  0  0  0  0  0  0  0  0  0  0
   -0.4997   -2.9426    1.0194 O   0  0  0  0  0  0  0  0  0  0  0  0
   -1.1198   -0.9926    0.0674 N   0  0  0  0  0  0  0  0  0  0  0  0
   -1.8978   -0.4486   -0.2716 H   0  0  0  0  0  0  0  0  0  0  0  0
    0.1693   -0.2866    0.0854 C   0  0  1  0  0  0  0  0  0  0  0  0
    0.9571   -0.9741   -0.2274 H   0  0  0  0  0  0  0  0  0  0  0  0
    0.1223    0.8855   -0.9187 C   0  0  0  0  0  0  0  0  0  0  0  0
   -0.7700    1.4816   -0.7197 H   0  0  0  0  0  0  0  0  0  0  0  0
    0.9929    1.5243   -0.7549 H   0  0  0  0  0  0  0  0  0  0  0  0
    0.0768    0.4594   -2.3945 C   0  0  0  0  0  0  0  0  0  0  0  0
    0.6119   -0.6262   -2.7213 O   0  5  0  0  0  0  0  0  0  0  0  0
   -0.4819    1.2412   -3.1937 O   0  0  0  0  0  0  0  0  0  0  0  0
    0.4843    0.1879    1.5230 C   0  0  0  0  0  0  0  0  0  0  0  0
   -0.3986    0.1924    2.3890 O   0  0  0  0  0  0  0  0  0  0  0  0
    1.7357    0.5723    1.7935 N   0  0  0  0  0  0  0  0  0  0  0  0
    2.3698    0.6163    0.9935 H   0  0  0  0  0  0  0  0  0  0  0  0
    2.2049    1.0622    3.0852 C   0  0  0  0  0  0  0  0  0  0  0  0
    1.8204    0.4245    3.8823 H   0  0  0  0  0  0  0  0  0  0  0  0
    3.2943    1.0567    3.1045 H   0  0  0  0  0  0  0  0  0  0  0  0
    1.8438    2.0797    3.2363 H   0  0  0  0  0  0  0  0  0  0  0  0
  5  6  2  0  0  0  0
  5  7  1  0  0  0  0
  2  3  1  0  0  0  0
  2  4  1  0  0  0  0
  2  5  1  0  0  0  0
  1  2  1  0  0  0  0
 17 18  2  0  0  0  0
 17 19  1  0  0  0  0
 14 15  1  0  0  0  0
 14 16  2  0  0  0  0
 11 12  1  0  0  0  0
 11 13  1  0  0  0  0
 11 14  1  0  0  0  0
  9 10  1  0  0  0  0
  9 11  1  0  0  0  0
  9 17  1  0  0  0  0
  7  8  1  0  0  0  0
  7  9  1  0  0  0  0
 21 22  1  0  0  0  0
 21 23  1  0  0  0  0
 21 24  1  0  0  0  0
 19 20  1  0  0  0  0
 19 21  1  0  0  0  0
M  CHG  1  15  -1
M  END
$$$$
default_name
  -OEChem-01062215323D

 24 23  0     1  0  0  0  0  0999 V2000
   -2.8347   -3.7166    0.8034 H   0  0  0  0  0  0  0  0  0  0  0  0
   -2.7728   -2.7096    0.3954 C   0  0  0  0  0  0  0  0  0  0  0  0
   -3.4267   -2.0426    0.9524 H   0  0  0  0  0  0  0  0  0  0  0  0
   -3.0538   -2.7186   -0.6556 H   0  0  0  0  0  0  0  0  0  0  0  0
   -1.3498   -2.2206    0.5184 C   0  0  0  0  0  0  0  0  0  0  0  0
   -0.4997   -2.9426    1.0194 O   0  0  0  0  0  0  0  0  0  0  0  0
   -1.1198   -0.9926    0.0674 N   0  0  0  0  0  0  0  0  0  0  0  0
   -1.8978   -0.4486   -0.2716 H   0  0  0  0  0  0  0  0  0  0  0  0
    0.1693   -0.2866    0.0854 C   0  0  1  0  0  0  0  0  0  0  0  0
    0.9043   -0.8713   -0.4705 H   0  0  0  0  0  0  0  0  0  0  0  0
    0.0106    1.0816   -0.6124 C   0  0  0  0  0  0  0  0  0  0  0  0
   -0.8432    1.6014   -0.1742 H   0  0  0  0  0  0  0  0  0  0  0  0
    0.9019    1.6818   -0.4170 H   0  0  0  0  0  0  0  0  0  0  0  0
   -0.2233    1.0006   -2.1291 C   0  0  0  0  0  0  0  0  0  0  0  0
    0.2546    0.0270   -2.7577 O   0  5  0  0  0  0  0  0  0  0  0  0
   -0.8686    1.9334   -2.6542 O   0  0  0  0  0  0  0  0  0  0  0  0
    0.6664   -0.1450    1.5428 C   0  0  0  0  0  0  0  0  0  0  0  0
    0.0046   -0.6096    2.4786 O   0  0  0  0  0  0  0  0  0  0  0  0
    1.8320    0.4764    1.7472 N   0  0  0  0  0  0  0  0  0  0  0  0
    2.2599    0.9011    0.9223 H   0  0  0  0  0  0  0  0  0  0  0  0
    2.4423    0.7127    3.0513 C   0  0  0  0  0  0  0  0  0  0  0  0
    2.3812   -0.1933    3.6556 H   0  0  0  0  0  0  0  0  0  0  0  0
    3.4862    0.9964    2.9204 H   0  0  0  0  0  0  0  0  0  0  0  0
    1.9079    1.5166    3.5577 H   0  0  0  0  0  0  0  0  0  0  0  0
  5  6  2  0  0  0  0
  5  7  1  0  0  0  0
  2  3  1  0  0  0  0
  2  4  1  0  0  0  0
  2  5  1  0  0  0  0
  1  2  1  0  0  0  0
 17 18  2  0  0  0  0
 17 19  1  0  0  0  0
 14 15  1  0  0  0  0
 14 16  2  0  0  0  0
 11 12  1  0  0  0  0
 11 13  1  0  0  0  0
 11 14  1  0  0  0  0
  9 10  1  0  0  0  0
  9 11  1  0  0  0  0
  9 17  1  0  0  0  0
  7  8  1  0  0  0  0
  7  9  1  0  0  0  0
 21 22  1  0  0  0  0
 21 23  1  0  0  0  0
 21 24  1  0  0  0  0
 19 20  1  0  0  0  0
 19 21  1  0  0  0  0
M  CHG  1  15  -1
M  END
$$$$
default_name
  -OEChem-01062215323D

 24 23  0     1  0  0  0  0  0999 V2000
   -2.8347   -3.7166    0.8034 H   0  0  0  0  0  0  0  0  0  0  0  0
   -2.7728   -2.7096    0.3954 C   0  0  0  0  0  0  0  0  0  0  0  0
   -3.4267   -2.0426    0.9524 H   0  0  0  0  0  0  0  0  0  0  0  0
   -3.0538   -2.7186   -0.6556 H   0  0  0  0  0  0  0  0  0  0  0  0
   -1.3498   -2.2206    0.5184 C   0  0  0  0  0  0  0  0  0  0  0  0
   -0.4997   -2.9426    1.0194 O   0  0  0  0  0  0  0  0  0  0  0  0
   -1.1198   -0.9926    0.0674 N   0  0  0  0  0  0  0  0  0  0  0  0
   -1.8978   -0.4486   -0.2716 H   0  0  0  0  0  0  0  0  0  0  0  0
    0.1693   -0.2866    0.0854 C   0  0  1  0  0  0  0  0  0  0  0  0
    0.9043   -0.8713   -0.4705 H   0  0  0  0  0  0  0  0  0  0  0  0
    0.0106    1.0816   -0.6124 C   0  0  0  0  0  0  0  0  0  0  0  0
   -0.8432    1.6014   -0.1742 H   0  0  0  0  0  0  0  0  0  0  0  0
    0.9019    1.6818   -0.4170 H   0  0  0  0  0  0  0  0  0  0  0  0
   -0.2233    1.0006   -2.1291 C   0  0  0  0  0  0  0  0  0  0  0  0
    0.2546    0.0270   -2.7577 O   0  5  0  0  0  0  0  0  0  0  0  0
   -0.8686    1.9334   -2.6542 O   0  0  0  0  0  0  0  0  0  0  0  0
    0.6664   -0.1450    1.5428 C   0  0  0  0  0  0  0  0  0  0  0  0
    0.1695   -0.8311    2.4438 O   0  0  0  0  0  0  0  0  0  0  0  0
    1.6524    0.7245    1.7844 N   0  0  0  0  0  0  0  0  0  0  0  0
    1.9360    1.3059    0.9935 H   0  0  0  0  0  0  0  0  0  0  0  0
    2.2310    0.9976    3.0957 C   0  0  0  0  0  0  0  0  0  0  0  0
    2.4125    0.0587    3.6205 H   0  0  0  0  0  0  0  0  0  0  0  0
    3.1696    1.5380    2.9758 H   0  0  0  0  0  0  0  0  0  0  0  0
    1.5348    1.6028    3.6766 H   0  0  0  0  0  0  0  0  0  0  0  0
  5  6  2  0  0  0  0
  5  7  1  0  0  0  0
  2  3  1  0  0  0  0
  2  4  1  0  0  0  0
  2  5  1  0  0  0  0
  1  2  1  0  0  0  0
 17 18  2  0  0  0  0
 17 19  1  0  0  0  0
 14 15  1  0  0  0  0
 14 16  2  0  0  0  0
 11 12  1  0  0  0  0
 11 13  1  0  0  0  0
 11 14  1  0  0  0  0
  9 10  1  0  0  0  0
  9 11  1  0  0  0  0
  9 17  1  0  0  0  0
  7  8  1  0  0  0  0
  7  9  1  0  0  0  0
 21 22  1  0  0  0  0
 21 23  1  0  0  0  0
 21 24  1  0  0  0  0
 19 20  1  0  0  0  0
 19 21  1  0  0  0  0
M  CHG  1  15  -1
M  END
$$$$
default_name
  -OEChem-01062215323D

 24 23  0     1  0  0  0  0  0999 V2000
   -2.8347   -3.7166    0.8034 H   0  0  0  0  0  0  0  0  0  0  0  0
   -2.7728   -2.7096    0.3954 C   0  0  0  0  0  0  0  0  0  0  0  0
   -3.4267   -2.0426    0.9524 H   0  0  0  0  0  0  0  0  0  0  0  0
   -3.0538   -2.7186   -0.6556 H   0  0  0  0  0  0  0  0  0  0  0  0
   -1.3498   -2.2206    0.5184 C   0  0  0  0  0  0  0  0  0  0  0  0
   -0.4997   -2.9426    1.0194 O   0  0  0  0  0  0  0  0  0  0  0  0
   -1.1198   -0.9926    0.0674 N   0  0  0  0  0  0  0  0  0  0  0  0
   -1.8978   -0.4486   -0.2716 H   0  0  0  0  0  0  0  0  0  0  0  0
    0.1693   -0.2866    0.0854 C   0  0  1  0  0  0  0  0  0  0  0  0
    0.9043   -0.8713   -0.4705 H   0  0  0  0  0  0  0  0  0  0  0  0
    0.0106    1.0816   -0.6124 C   0  0  0  0  0  0  0  0  0  0  0  0
   -0.8432    1.6014   -0.1742 H   0  0  0  0  0  0  0  0  0  0  0  0
    0.9019    1.6818   -0.4170 H   0  0  0  0  0  0  0  0  0  0  0  0
   -0.2233    1.0006   -2.1291 C   0  0  0  0  0  0  0  0  0  0  0  0
    0.2546    0.0270   -2.7577 O   0  5  0  0  0  0  0  0  0  0  0  0
   -0.8686    1.9334   -2.6542 O   0  0  0  0  0  0  0  0  0  0  0  0
    0.6664   -0.1450    1.5428 C   0  0  0  0  0  0  0  0  0  0  0  0
    0.3820   -1.0020    2.3879 O   0  0  0  0  0  0  0  0  0  0  0  0
    1.4193    0.9173    1.8452 N   0  0  0  0  0  0  0  0  0  0  0  0
    1.5260    1.6120    1.1036 H   0  0  0  0  0  0  0  0  0  0  0  0
    1.9585    1.2175    3.1673 C   0  0  0  0  0  0  0  0  0  0  0  0
    2.3803    0.3127    3.6068 H   0  0  0  0  0  0  0  0  0  0  0  0
    2.7331    1.9792    3.0818 H   0  0  0  0  0  0  0  0  0  0  0  0
    1.1563    1.5852    3.8075 H   0  0  0  0  0  0  0  0  0  0  0  0
  5  6  2  0  0  0  0
  5  7  1  0  0  0  0
  2  3  1  0  0  0  0
  2  4  1  0  0  0  0
  2  5  1  0  0  0  0
  1  2  1  0  0  0  0
 17 18  2  0  0  0  0
 17 19  1  0  0  0  0
 14 15  1  0  0  0  0
 14 16  2  0  0  0  0
 11 12  1  0  0  0  0
 11 13  1  0  0  0  0
 11 14  1  0  0  0  0
  9 10  1  0  0  0  0
  9 11  1  0  0  0  0
  9 17  1  0  0  0  0
  7  8  1  0  0  0  0
  7  9  1  0  0  0  0
 21 22  1  0  0  0  0
 21 23  1  0  0  0  0
 21 24  1  0  0  0  0
 19 20  1  0  0  0  0
 19 21  1  0  0  0  0
M  CHG  1  15  -1
M  END
$$$$
default_name
  -OEChem-01062215323D

 24 23  0     1  0  0  0  0  0999 V2000
   -2.8347   -3.7166    0.8034 H   0  0  0  0  0  0  0  0  0  0  0  0
   -2.7728   -2.7096    0.3954 C   0  0  0  0  0  0  0  0  0  0  0  0
   -3.4267   -2.0426    0.9524 H   0  0  0  0  0  0  0  0  0  0  0  0
   -3.0538   -2.7186   -0.6556 H   0  0  0  0  0  0  0  0  0  0  0  0
   -1.3498   -2.2206    0.5184 C   0  0  0  0  0  0  0  0  0  0  0  0
   -0.4997   -2.9426    1.0194 O   0  0  0  0  0  0  0  0  0  0  0  0
   -1.1198   -0.9926    0.0674 N   0  0  0  0  0  0  0  0  0  0  0  0
   -1.8978   -0.4486   -0.2716 H   0  0  0  0  0  0  0  0  0  0  0  0
    0.1693   -0.2866    0.0854 C   0  0  1  0  0  0  0  0  0  0  0  0
    0.9043   -0.8713   -0.4705 H   0  0  0  0  0  0  0  0  0  0  0  0
    0.0106    1.0816   -0.6124 C   0  0  0  0  0  0  0  0  0  0  0  0
   -0.8432    1.6014   -0.1742 H   0  0  0  0  0  0  0  0  0  0  0  0
    0.9019    1.6818   -0.4170 H   0  0  0  0  0  0  0  0  0  0  0  0
   -0.2233    1.0006   -2.1291 C   0  0  0  0  0  0  0  0  0  0  0  0
    0.2546    0.0270   -2.7577 O   0  5  0  0  0  0  0  0  0  0  0  0
   -0.8686    1.9334   -2.6542 O   0  0  0  0  0  0  0  0  0  0  0  0
    0.6664   -0.1450    1.5428 C   0  0  0  0  0  0  0  0  0  0  0  0
    0.6276   -1.1105    2.3147 O   0  0  0  0  0  0  0  0  0  0  0  0
    1.1485    1.0415    1.9255 N   0  0  0  0  0  0  0  0  0  0  0  0
    1.0580    1.7984    1.2451 H   0  0  0  0  0  0  0  0  0  0  0  0
    1.6433    1.3576    3.2612 C   0  0  0  0  0  0  0  0  0  0  0  0
    2.2870    0.5514    3.6155 H   0  0  0  0  0  0  0  0  0  0  0  0
    2.2062    2.2901    3.2314 H   0  0  0  0  0  0  0  0  0  0  0  0
    0.7981    1.4649    3.9414 H   0  0  0  0  0  0  0  0  0  0  0  0
  5  6  2  0  0  0  0
  5  7  1  0  0  0  0
  2  3  1  0  0  0  0
  2  4  1  0  0  0  0
  2  5  1  0  0  0  0
  1  2  1  0  0  0  0
 17 18  2  0  0  0  0
 17 19  1  0  0  0  0
 14 15  1  0  0  0  0
 14 16  2  0  0  0  0
 11 12  1  0  0  0  0
 11 13  1  0  0  0  0
 11 14  1  0  0  0  0
  9 10  1  0  0  0  0
  9 11  1  0  0  0  0
  9 17  1  0  0  0  0
  7  8  1  0  0  0  0
  7  9  1  0  0  0  0
 21 22  1  0  0  0  0
 21 23  1  0  0  0  0
 21 24  1  0  0  0  0
 19 20  1  0  0  0  0
 19 21  1  0  0  0  0
M  CHG  1  15  -1
M  END
$$$$
default_name
  -OEChem-01062215323D

 24 23  0     1  0  0  0  0  0999 V2000
   -2.8347   -3.7166    0.8034 H   0  0  0  0  0  0  0  0  0  0  0  0
   -2.7728   -2.7096    0.3954 C   0  0  0  0  0  0  0  0  0  0  0  0
   -3.4267   -2.0426    0.9524 H   0  0  0  0  0  0  0  0  0  0  0  0
   -3.0538   -2.7186   -0.6556 H   0  0  0  0  0  0  0  0  0  0  0  0
   -1.3498   -2.2206    0.5184 C   0  0  0  0  0  0  0  0  0  0  0  0
   -0.4997   -2.9426    1.0194 O   0  0  0  0  0  0  0  0  0  0  0  0
   -1.1198   -0.9926    0.0674 N   0  0  0  0  0  0  0  0  0  0  0  0
   -1.8978   -0.4486   -0.2716 H   0  0  0  0  0  0  0  0  0  0  0  0
    0.1693   -0.2866    0.0854 C   0  0  1  0  0  0  0  0  0  0  0  0
    0.9043   -0.8713   -0.4705 H   0  0  0  0  0  0  0  0  0  0  0  0
    0.0106    1.0816   -0.6124 C   0  0  0  0  0  0  0  0  0  0  0  0
   -0.8432    1.6014   -0.1742 H   0  0  0  0  0  0  0  0  0  0  0  0
    0.9019    1.6818   -0.4170 H   0  0  0  0  0  0  0  0  0  0  0  0
   -0.2233    1.0006   -2.1291 C   0  0  0  0  0  0  0  0  0  0  0  0
    0.2546    0.0270   -2.7577 O   0  5  0  0  0  0  0  0  0  0  0  0
   -0.8686    1.9334   -2.6542 O   0  0  0  0  0  0  0  0  0  0  0  0
    0.6664   -0.1450    1.5428 C   0  0  0  0  0  0  0  0  0  0  0  0
    0.8896   -1.1494    2.2291 O   0  0  0  0  0  0  0  0  0  0  0  0
    0.8585    1.0888    2.0198 N   0  0  0  0  0  0  0  0  0  0  0  0
    0.5638    1.8525    1.4084 H   0  0  0  0  0  0  0  0  0  0  0  0
    1.3069    1.4081    3.3711 C   0  0  0  0  0  0  0  0  0  0  0  0
    2.1388    0.7584    3.6459 H   0  0  0  0  0  0  0  0  0  0  0  0
    1.6251    2.4494    3.4141 H   0  0  0  0  0  0  0  0  0  0  0  0
    0.4845    1.2502    4.0692 H   0  0  0  0  0  0  0  0  0  0  0  0
  5  6  2  0  0  0  0
  5  7  1  0  0  0  0
  2  3  1  0  0  0  0
  2  4  1  0  0  0  0
  2  5  1  0  0  0  0
  1  2  1  0  0  0  0
 17 18  2  0  0  0  0
 17 19  1  0  0  0  0
 14 15  1  0  0  0  0
 14 16  2  0  0  0  0
 11 12  1  0  0  0  0
 11 13  1  0  0  0  0
 11 14  1  0  0  0  0
  9 10  1  0  0  0  0
  9 11  1  0  0  0  0
  9 17  1  0  0  0  0
  7  8  1  0  0  0  0
  7  9  1  0  0  0  0
 21 22  1  0  0  0  0
 21 23  1  0  0  0  0
 21 24  1  0  0  0  0
 19 20  1  0  0  0  0
 19 21  1  0  0  0  0
M  CHG  1  15  -1
M  END
$$$$
default_name
  -OEChem-01062215323D

 24 23  0     1  0  0  0  0  0999 V2000
   -2.8347   -3.7166    0.8034 H   0  0  0  0  0  0  0  0  0  0  0  0
   -2.7728   -2.7096    0.3954 C   0  0  0  0  0  0  0  0  0  0  0  0
   -3.4267   -2.0426    0.9524 H   0  0  0  0  0  0  0  0  0  0  0  0
   -3.0538   -2.7186   -0.6556 H   0  0  0  0  0  0  0  0  0  0  0  0
   -1.3498   -2.2206    0.5184 C   0  0  0  0  0  0  0  0  0  0  0  0
   -0.4997   -2.9426    1.0194 O   0  0  0  0  0  0  0  0  0  0  0  0
   -1.1198   -0.9926    0.0674 N   0  0  0  0  0  0  0  0  0  0  0  0
   -1.8978   -0.4486   -0.2716 H   0  0  0  0  0  0  0  0  0  0  0  0
    0.1693   -0.2866    0.0854 C   0  0  1  0  0  0  0  0  0  0  0  0
    0.9043   -0.8713   -0.4705 H   0  0  0  0  0  0  0  0  0  0  0  0
    0.0106    1.0816   -0.6124 C   0  0  0  0  0  0  0  0  0  0  0  0
   -0.8432    1.6014   -0.1742 H   0  0  0  0  0  0  0  0  0  0  0  0
    0.9019    1.6818   -0.4170 H   0  0  0  0  0  0  0  0  0  0  0  0
   -0.2233    1.0006   -2.1291 C   0  0  0  0  0  0  0  0  0  0  0  0
    0.2546    0.0270   -2.7577 O   0  5  0  0  0  0  0  0  0  0  0  0
   -0.8686    1.9334   -2.6542 O   0  0  0  0  0  0  0  0  0  0  0  0
    0.6664   -0.1450    1.5428 C   0  0  0  0  0  0  0  0  0  0  0  0
    1.1501   -1.1159    2.1370 O   0  0  0  0  0  0  0  0  0  0  0  0
    0.5692    1.0558    2.1217 N   0  0  0  0  0  0  0  0  0  0  0  0
    0.0771    1.7707    1.5824 H   0  0  0  0  0  0  0  0  0  0  0  0
    0.9722    1.3658    3.4893 C   0  0  0  0  0  0  0  0  0  0  0  0
    1.9459    0.9197    3.6960 H   0  0  0  0  0  0  0  0  0  0  0  0
    1.0292    2.4463    3.6177 H   0  0  0  0  0  0  0  0  0  0  0  0
    0.2371    0.9558    4.1822 H   0  0  0  0  0  0  0  0  0  0  0  0
  5  6  2  0  0  0  0
  5  7  1  0  0  0  0
  2  3  1  0  0  0  0
  2  4  1  0  0  0  0
  2  5  1  0  0  0  0
  1  2  1  0  0  0  0
 17 18  2  0  0  0  0
 17 19  1  0  0  0  0
 14 15  1  0  0  0  0
 14 16  2  0  0  0  0
 11 12  1  0  0  0  0
 11 13  1  0  0  0  0
 11 14  1  0  0  0  0
  9 10  1  0  0  0  0
  9 11  1  0  0  0  0
  9 17  1  0  0  0  0
  7  8  1  0  0  0  0
  7  9  1  0  0  0  0
 21 22  1  0  0  0  0
 21 23  1  0  0  0  0
 21 24  1  0  0  0  0
 19 20  1  0  0  0  0
 19 21  1  0  0  0  0
M  CHG  1  15  -1
M  END
$$$$
default_name
  -OEChem-01062215323D

 24 23  0     1  0  0  0  0  0999 V2000
   -2.8347   -3.7166    0.8034 H   0  0  0  0  0  0  0  0  0  0  0  0
   -2.7728   -2.7096    0.3954 C   0  0  0  0  0  0  0  0  0  0  0  0
   -3.4267   -2.0426    0.9524 H   0  0  0  0  0  0  0  0  0  0  0  0
   -3.0538   -2.7186   -0.6556 H   0  0  0  0  0  0  0  0  0  0  0  0
   -1.3498   -2.2206    0.5184 C   0  0  0  0  0  0  0  0  0  0  0  0
   -0.4997   -2.9426    1.0194 O   0  0  0  0  0  0  0  0  0  0  0  0
   -1.1198   -0.9926    0.0674 N   0  0  0  0  0  0  0  0  0  0  0  0
   -1.8978   -0.4486   -0.2716 H   0  0  0  0  0  0  0  0  0  0  0  0
    0.1693   -0.2866    0.0854 C   0  0  1  0  0  0  0  0  0  0  0  0
    0.9043   -0.8713   -0.4705 H   0  0  0  0  0  0  0  0  0  0  0  0
    0.0106    1.0816   -0.6124 C   0  0  0  0  0  0  0  0  0  0  0  0
   -0.8432    1.6014   -0.1742 H   0  0  0  0  0  0  0  0  0  0  0  0
    0.9019    1.6818   -0.4170 H   0  0  0  0  0  0  0  0  0  0  0  0
   -0.2233    1.0006   -2.1291 C   0  0  0  0  0  0  0  0  0  0  0  0
    0.2546    0.0270   -2.7577 O   0  5  0  0  0  0  0  0  0  0  0  0
   -0.8686    1.9334   -2.6542 O   0  0  0  0  0  0  0  0  0  0  0  0
    0.6664   -0.1450    1.5428 C   0  0  0  0  0  0  0  0  0  0  0  0
    1.3914   -1.0123    2.0446 O   0  0  0  0  0  0  0  0  0  0  0  0
    0.3001    0.9450    2.2243 N   0  0  0  0  0  0  0  0  0  0  0  0
   -0.3689    1.5585    1.7552 H   0  0  0  0  0  0  0  0  0  0  0  0
    0.6621    1.2334    3.6080 C   0  0  0  0  0  0  0  0  0  0  0  0
    1.7214    1.0243    3.7624 H   0  0  0  0  0  0  0  0  0  0  0  0
    0.4592    2.2811    3.8282 H   0  0  0  0  0  0  0  0  0  0  0  0
    0.0726    0.6016    4.2727 H   0  0  0  0  0  0  0  0  0  0  0  0
  5  6  2  0  0  0  0
  5  7  1  0  0  0  0
  2  3  1  0  0  0  0
  2  4  1  0  0  0  0
  2  5  1  0  0  0  0
  1  2  1  0  0  0  0
 17 18  2  0  0  0  0
 17 19  1  0  0  0  0
 14 15  1  0  0  0  0
 14 16  2  0  0  0  0
 11 12  1  0  0  0  0
 11 13  1  0  0  0  0
 11 14  1  0  0  0  0
  9 10  1  0  0  0  0
  9 11  1  0  0  0  0
  9 17  1  0  0  0  0
  7  8  1  0  0  0  0
  7  9  1  0  0  0  0
 21 22  1  0  0  0  0
 21 23  1  0  0  0  0
 21 24  1  0  0  0  0
 19 20  1  0  0  0  0
 19 21  1  0  0  0  0
M  CHG  1  15  -1
M  END
$$$$
default_name
  -OEChem-01062215323D

 24 23  0     1  0  0  0  0  0999 V2000
   -2.8347   -3.7166    0.8034 H   0  0  0  0  0  0  0  0  0  0  0  0
   -2.7728   -2.7096    0.3954 C   0  0  0  0  0  0  0  0  0  0  0  0
   -3.4267   -2.0426    0.9524 H   0  0  0  0  0  0  0  0  0  0  0  0
   -3.0538   -2.7186   -0.6556 H   0  0  0  0  0  0  0  0  0  0  0  0
   -1.3498   -2.2206    0.5184 C   0  0  0  0  0  0  0  0  0  0  0  0
   -0.4997   -2.9426    1.0194 O   0  0  0  0  0  0  0  0  0  0  0  0
   -1.1198   -0.9926    0.0674 N   0  0  0  0  0  0  0  0  0  0  0  0
   -1.8978   -0.4486   -0.2716 H   0  0  0  0  0  0  0  0  0  0  0  0
    0.1693   -0.2866    0.0854 C   0  0  1  0  0  0  0  0  0  0  0  0
    0.9043   -0.8713   -0.4705 H   0  0  0  0  0  0  0  0  0  0  0  0
    0.0106    1.0816   -0.6124 C   0  0  0  0  0  0  0  0  0  0  0  0
   -0.8432    1.6014   -0.1742 H   0  0  0  0  0  0  0  0  0  0  0  0
    0.9019    1.6818   -0.4170 H   0  0  0  0  0  0  0  0  0  0  0  0
   -0.2233    1.0006   -2.1291 C   0  0  0  0  0  0  0  0  0  0  0  0
    0.2546    0.0270   -2.7577 O   0  5  0  0  0  0  0  0  0  0  0  0
   -0.8686    1.9334   -2.6542 O   0  0  0  0  0  0  0  0  0  0  0  0
    0.6664   -0.1450    1.5428 C   0  0  0  0  0  0  0  0  0  0  0  0
    1.5970   -0.8457    1.9583 O   0  0  0  0  0  0  0  0  0  0  0  0
    0.0697    0.7637    2.3205 N   0  0  0  0  0  0  0  0  0  0  0  0
   -0.7439    1.2303    1.9150 H   0  0  0  0  0  0  0  0  0  0  0  0
    0.3976    1.0199    3.7189 C   0  0  0  0  0  0  0  0  0  0  0  0
    1.4806    1.0650    3.8406 H   0  0  0  0  0  0  0  0  0  0  0  0
   -0.0461    1.9649    4.0313 H   0  0  0  0  0  0  0  0  0  0  0  0
    0.0022    0.2118    4.3346 H   0  0  0  0  0  0  0  0  0  0  0  0
  5  6  2  0  0  0  0
  5  7  1  0  0  0  0
  2  3  1  0  0  0  0
  2  4  1  0  0  0  0
  2  5  1  0  0  0  0
  1  2  1  0  0  0  0
 17 18  2  0  0  0  0
 17 19  1  0  0  0  0
 14 15  1  0  0  0  0
 14 16  2  0  0  0  0
 11 12  1  0  0  0  0
 11 13  1  0  0  0  0
 11 14  1  0  0  0  0
  9 10  1  0  0  0  0
  9 11  1  0  0  0  0
  9 17  1  0  0  0  0
  7  8  1  0  0  0  0
  7  9  1  0  0  0  0
 21 22  1  0  0  0  0
 21 23  1  0  0  0  0
 21 24  1  0  0  0  0
 19 20  1  0  0  0  0
 19 21  1  0  0  0  0
M  CHG  1  15  -1
M  END
$$$$
default_name
  -OEChem-01062215323D

 24 23  0     1  0  0  0  0  0999 V2000
   -2.8347   -3.7166    0.8034 H   0  0  0  0  0  0  0  0  0  0  0  0
   -2.7728   -2.7096    0.3954 C   0  0  0  0  0  0  0  0  0  0  0  0
   -3.4267   -2.0426    0.9524 H   0  0  0  0  0  0  0  0  0  0  0  0
   -3.0538   -2.7186   -0.6556 H   0  0  0  0  0  0  0  0  0  0  0  0
   -1.3498   -2.2206    0.5184 C   0  0  0  0  0  0  0  0  0  0  0  0
   -0.4997   -2.9426    1.0194 O   0  0  0  0  0  0  0  0  0  0  0  0
   -1.1198   -0.9926    0.0674 N   0  0  0  0  0  0  0  0  0  0  0  0
   -1.8978   -0.4486   -0.2716 H   0  0  0  0  0  0  0  0  0  0  0  0
    0.1693   -0.2866    0.0854 C   0  0  1  0  0  0  0  0  0  0  0  0
    0.9043   -0.8713   -0.4705 H   0  0  0  0  0  0  0  0  0  0  0  0
    0.0106    1.0816   -0.6124 C   0  0  0  0  0  0  0  0  0  0  0  0
   -0.8432    1.6014   -0.1742 H   0  0  0  0  0  0  0  0  0  0  0  0
    0.9019    1.6818   -0.4170 H   0  0  0  0  0  0  0  0  0  0  0  0
   -0.2233    1.0006   -2.1291 C   0  0  0  0  0  0  0  0  0  0  0  0
    0.2546    0.0270   -2.7577 O   0  5  0  0  0  0  0  0  0  0  0  0
   -0.8686    1.9334   -2.6542 O   0  0  0  0  0  0  0  0  0  0  0  0
    0.6664   -0.1450    1.5428 C   0  0  0  0  0  0  0  0  0  0  0  0
    1.7529   -0.6274    1.8839 O   0  0  0  0  0  0  0  0  0  0  0  0
   -0.1064    0.5244    2.4038 N   0  0  0  0  0  0  0  0  0  0  0  0
   -1.0222    0.8085    2.0509 H   0  0  0  0  0  0  0  0  0  0  0  0
    0.1968    0.7401    3.8146 C   0  0  0  0  0  0  0  0  0  0  0  0
    1.2400    1.0391    3.9252 H   0  0  0  0  0  0  0  0  0  0  0  0
   -0.4522    1.5194    4.2131 H   0  0  0  0  0  0  0  0  0  0  0  0
    0.0308   -0.1871    4.3636 H   0  0  0  0  0  0  0  0  0  0  0  0
  5  6  2  0  0  0  0
  5  7  1  0  0  0  0
  2  3  1  0  0  0  0
  2  4  1  0  0  0  0
  2  5  1  0  0  0  0
  1  2  1  0  0  0  0
 17 18  2  0  0  0  0
 17 19  1  0  0  0  0
 14 15  1  0  0  0  0
 14 16  2  0  0  0  0
 11 12  1  0  0  0  0
 11 13  1  0  0  0  0
 11 14  1  0  0  0  0
  9 10  1  0  0  0  0
  9 11  1  0  0  0  0
  9 17  1  0  0  0  0
  7  8  1  0  0  0  0
  7  9  1  0  0  0  0
 21 22  1  0  0  0  0
 21 23  1  0  0  0  0
 21 24  1  0  0  0  0
 19 20  1  0  0  0  0
 19 21  1  0  0  0  0
M  CHG  1  15  -1
M  END
$$$$
default_name
  -OEChem-01062215323D

 24 23  0     1  0  0  0  0  0999 V2000
   -2.8347   -3.7166    0.8034 H   0  0  0  0  0  0  0  0  0  0  0  0
   -2.7728   -2.7096    0.3954 C   0  0  0  0  0  0  0  0  0  0  0  0
   -3.4267   -2.0426    0.9524 H   0  0  0  0  0  0  0  0  0  0  0  0
   -3.0538   -2.7186   -0.6556 H   0  0  0  0  0  0  0  0  0  0  0  0
   -1.3498   -2.2206    0.5184 C   0  0  0  0  0  0  0  0  0  0  0  0
   -0.4997   -2.9426    1.0194 O   0  0  0  0  0  0  0  0  0  0  0  0
   -1.1198   -0.9926    0.0674 N   0  0  0  0  0  0  0  0  0  0  0  0
   -1.8978   -0.4486   -0.2716 H   0  0  0  0  0  0  0  0  0  0  0  0
    0.1693   -0.2866    0.0854 C   0  0  1  0  0  0  0  0  0  0  0  0
    0.9043   -0.8713   -0.4705 H   0  0  0  0  0  0  0  0  0  0  0  0
    0.0106    1.0816   -0.6124 C   0  0  0  0  0  0  0  0  0  0  0  0
   -0.8432    1.6014   -0.1742 H   0  0  0  0  0  0  0  0  0  0  0  0
    0.9019    1.6818   -0.4170 H   0  0  0  0  0  0  0  0  0  0  0  0
   -0.2233    1.0006   -2.1291 C   0  0  0  0  0  0  0  0  0  0  0  0
    0.2546    0.0270   -2.7577 O   0  5  0  0  0  0  0  0  0  0  0  0
   -0.8686    1.9334   -2.6542 O   0  0  0  0  0  0  0  0  0  0  0  0
    0.6664   -0.1450    1.5428 C   0  0  0  0  0  0  0  0  0  0  0  0
    1.8485   -0.3724    1.8265 O   0  0  0  0  0  0  0  0  0  0  0  0
   -0.2161    0.2434    2.4686 N   0  0  0  0  0  0  0  0  0  0  0  0
   -1.1850    0.3219    2.1537 H   0  0  0  0  0  0  0  0  0  0  0  0
    0.0735    0.4128    3.8885 C   0  0  0  0  0  0  0  0  0  0  0  0
    1.0159    0.9483    4.0105 H   0  0  0  0  0  0  0  0  0  0  0  0
   -0.7315    0.9748    4.3613 H   0  0  0  0  0  0  0  0  0  0  0  0
    0.1564   -0.5677    4.3577 H   0  0  0  0  0  0  0  0  0  0  0  0
  5  6  2  0  0  0  0
  5  7  1  0  0  0  0
  2  3  1  0  0  0  0
  2  4  1  0  0  0  0
  2  5  1  0  0  0  0
  1  2  1  0  0  0  0
 17 18  2  0  0  0  0
 17 19  1  0  0  0  0
 14 15  1  0  0  0  0
 14 16  2  0  0  0  0
 11 12  1  0  0  0  0
 11 13  1  0  0  0  0
 11 14  1  0  0  0  0
  9 10  1  0  0  0  0
  9 11  1  0  0  0  0
  9 17  1  0  0  0  0
  7  8  1  0  0  0  0
  7  9  1  0  0  0  0
 21 22  1  0  0  0  0
 21 23  1  0  0  0  0
 21 24  1  0  0  0  0
 19 20  1  0  0  0  0
 19 21  1  0  0  0  0
M  CHG  1  15  -1
M  END
$$$$
default_name
  -OEChem-01062215323D

 24 23  0     1  0  0  0  0  0999 V2000
   -2.8347   -3.7166    0.8034 H   0  0  0  0  0  0  0  0  0  0  0  0
   -2.7728   -2.7096    0.3954 C   0  0  0  0  0  0  0  0  0  0  0  0
   -3.4267   -2.0426    0.9524 H   0  0  0  0  0  0  0  0  0  0  0  0
   -3.0538   -2.7186   -0.6556 H   0  0  0  0  0  0  0  0  0  0  0  0
   -1.3498   -2.2206    0.5184 C   0  0  0  0  0  0  0  0  0  0  0  0
   -0.4997   -2.9426    1.0194 O   0  0  0  0  0  0  0  0  0  0  0  0
   -1.1198   -0.9926    0.0674 N   0  0  0  0  0  0  0  0  0  0  0  0
   -1.8978   -0.4486   -0.2716 H   0  0  0  0  0  0  0  0  0  0  0  0
    0.1693   -0.2866    0.0854 C   0  0  1  0  0  0  0  0  0  0  0  0
    0.9043   -0.8713   -0.4705 H   0  0  0  0  0  0  0  0  0  0  0  0
    0.0106    1.0816   -0.6124 C   0  0  0  0  0  0  0  0  0  0  0  0
   -0.8432    1.6014   -0.1742 H   0  0  0  0  0  0  0  0  0  0  0  0
    0.9019    1.6818   -0.4170 H   0  0  0  0  0  0  0  0  0  0  0  0
   -0.2233    1.0006   -2.1291 C   0  0  0  0  0  0  0  0  0  0  0  0
    0.2546    0.0270   -2.7577 O   0  5  0  0  0  0  0  0  0  0  0  0
   -0.8686    1.9334   -2.6542 O   0  0  0  0  0  0  0  0  0  0  0  0
    0.6664   -0.1450    1.5428 C   0  0  0  0  0  0  0  0  0  0  0  0
    1.8773   -0.0980    1.7900 O   0  0  0  0  0  0  0  0  0  0  0  0
   -0.2520   -0.0602    2.5103 N   0  0  0  0  0  0  0  0  0  0  0  0
   -1.2211   -0.1964    2.2164 H   0  0  0  0  0  0  0  0  0  0  0  0
    0.0359    0.0604    3.9355 C   0  0  0  0  0  0  0  0  0  0  0  0
    0.8235    0.7989    4.0906 H   0  0  0  0  0  0  0  0  0  0  0  0
   -0.8650    0.3683    4.4657 H   0  0  0  0  0  0  0  0  0  0  0  0
    0.3705   -0.9043    4.3174 H   0  0  0  0  0  0  0  0  0  0  0  0
  5  6  2  0  0  0  0
  5  7  1  0  0  0  0
  2  3  1  0  0  0  0
  2  4  1  0  0  0  0
  2  5  1  0  0  0  0
  1  2  1  0  0  0  0
 17 18  2  0  0  0  0
 17 19  1  0  0  0  0
 14 15  1  0  0  0  0
 14 16  2  0  0  0  0
 11 12  1  0  0  0  0
 11 13  1  0  0  0  0
 11 14  1  0  0  0  0
  9 10  1  0  0  0  0
  9 11  1  0  0  0  0
  9 17  1  0  0  0  0
  7  8  1  0  0  0  0
  7  9  1  0  0  0  0
 21 22  1  0  0  0  0
 21 23  1  0  0  0  0
 21 24  1  0  0  0  0
 19 20  1  0  0  0  0
 19 21  1  0  0  0  0
M  CHG  1  15  -1
M  END
$$$$
default_name
  -OEChem-01062215323D

 24 23  0     1  0  0  0  0  0999 V2000
   -2.8347   -3.7166    0.8034 H   0  0  0  0  0  0  0  0  0  0  0  0
   -2.7728   -2.7096    0.3954 C   0  0  0  0  0  0  0  0  0  0  0  0
   -3.4267   -2.0426    0.9524 H   0  0  0  0  0  0  0  0  0  0  0  0
   -3.0538   -2.7186   -0.6556 H   0  0  0  0  0  0  0  0  0  0  0  0
   -1.3498   -2.2206    0.5184 C   0  0  0  0  0  0  0  0  0  0  0  0
   -0.4997   -2.9426    1.0194 O   0  0  0  0  0  0  0  0  0  0  0  0
   -1.1198   -0.9926    0.0674 N   0  0  0  0  0  0  0  0  0  0  0  0
   -1.8978   -0.4486   -0.2716 H   0  0  0  0  0  0  0  0  0  0  0  0
    0.1693   -0.2866    0.0854 C   0  0  1  0  0  0  0  0  0  0  0  0
    0.9043   -0.8713   -0.4705 H   0  0  0  0  0  0  0  0  0  0  0  0
    0.0106    1.0816   -0.6124 C   0  0  0  0  0  0  0  0  0  0  0  0
   -0.8432    1.6014   -0.1742 H   0  0  0  0  0  0  0  0  0  0  0  0
    0.9019    1.6818   -0.4170 H   0  0  0  0  0  0  0  0  0  0  0  0
   -0.2233    1.0006   -2.1291 C   0  0  0  0  0  0  0  0  0  0  0  0
    0.2546    0.0270   -2.7577 O   0  5  0  0  0  0  0  0  0  0  0  0
   -0.8686    1.9334   -2.6542 O   0  0  0  0  0  0  0  0  0  0  0  0
    0.6664   -0.1450    1.5428 C   0  0  0  0  0  0  0  0  0  0  0  0
    1.8372    0.1772    1.7770 O   0  0  0  0  0  0  0  0  0  0  0  0
   -0.2117   -0.3656    2.5262 N   0  0  0  0  0  0  0  0  0  0  0  0
   -1.1280   -0.7110    2.2346 H   0  0  0  0  0  0  0  0  0  0  0  0
    0.0866   -0.2930    3.9526 C   0  0  0  0  0  0  0  0  0  0  0  0
    0.6761    0.6010    4.1601 H   0  0  0  0  0  0  0  0  0  0  0  0
   -0.8434   -0.2587    4.5193 H   0  0  0  0  0  0  0  0  0  0  0  0
    0.6584   -1.1739    4.2454 H   0  0  0  0  0  0  0  0  0  0  0  0
  5  6  2  0  0  0  0
  5  7  1  0  0  0  0
  2  3  1  0  0  0  0
  2  4  1  0  0  0  0
  2  5  1  0  0  0  0
  1  2  1  0  0  0  0
 17 18  2  0  0  0  0
 17 19  1  0  0  0  0
 14 15  1  0  0  0  0
 14 16  2  0  0  0  0
 11 12  1  0  0  0  0
 11 13  1  0  0  0  0
 11 14  1  0  0  0  0
  9 10  1  0  0  0  0
  9 11  1  0  0  0  0
  9 17  1  0  0  0  0
  7  8  1  0  0  0  0
  7  9  1  0  0  0  0
 21 22  1  0  0  0  0
 21 23  1  0  0  0  0
 21 24  1  0  0  0  0
 19 20  1  0  0  0  0
 19 21  1  0  0  0  0
M  CHG  1  15  -1
M  END
$$$$
default_name
  -OEChem-01062215323D

 24 23  0     1  0  0  0  0  0999 V2000
   -2.8347   -3.7166    0.8034 H   0  0  0  0  0  0  0  0  0  0  0  0
   -2.7728   -2.7096    0.3954 C   0  0  0  0  0  0  0  0  0  0  0  0
   -3.4267   -2.0426    0.9524 H   0  0  0  0  0  0  0  0  0  0  0  0
   -3.0538   -2.7186   -0.6556 H   0  0  0  0  0  0  0  0  0  0  0  0
   -1.3498   -2.2206    0.5184 C   0  0  0  0  0  0  0  0  0  0  0  0
   -0.4997   -2.9426    1.0194 O   0  0  0  0  0  0  0  0  0  0  0  0
   -1.1198   -0.9926    0.0674 N   0  0  0  0  0  0  0  0  0  0  0  0
   -1.8978   -0.4486   -0.2716 H   0  0  0  0  0  0  0  0  0  0  0  0
    0.1693   -0.2866    0.0854 C   0  0  1  0  0  0  0  0  0  0  0  0
    0.9043   -0.8713   -0.4705 H   0  0  0  0  0  0  0  0  0  0  0  0
    0.0106    1.0816   -0.6124 C   0  0  0  0  0  0  0  0  0  0  0  0
   -0.8432    1.6014   -0.1742 H   0  0  0  0  0  0  0  0  0  0  0  0
    0.9019    1.6818   -0.4170 H   0  0  0  0  0  0  0  0  0  0  0  0
   -0.2233    1.0006   -2.1291 C   0  0  0  0  0  0  0  0  0  0  0  0
    0.2546    0.0270   -2.7577 O   0  5  0  0  0  0  0  0  0  0  0  0
   -0.8686    1.9334   -2.6542 O   0  0  0  0  0  0  0  0  0  0  0  0
    0.6664   -0.1450    1.5428 C   0  0  0  0  0  0  0  0  0  0  0  0
    1.7312    0.4343    1.7882 O   0  0  0  0  0  0  0  0  0  0  0  0
   -0.0978   -0.6522    2.5152 N   0  0  0  0  0  0  0  0  0  0  0  0
   -0.9122   -1.1870    2.2072 H   0  0  0  0  0  0  0  0  0  0  0  0
    0.2223   -0.6235    3.9384 C   0  0  0  0  0  0  0  0  0  0  0  0
    0.5836    0.3680    4.2143 H   0  0  0  0  0  0  0  0  0  0  0  0
   -0.6684   -0.8636    4.5184 H   0  0  0  0  0  0  0  0  0  0  0  0
    1.0005   -1.3580    4.1465 H   0  0  0  0  0  0  0  0  0  0  0  0
  5  6  2  0  0  0  0
  5  7  1  0  0  0  0
  2  3  1  0  0  0  0
  2  4  1  0  0  0  0
  2  5  1  0  0  0  0
  1  2  1  0  0  0  0
 17 18  2  0  0  0  0
 17 19  1  0  0  0  0
 14 15  1  0  0  0  0
 14 16  2  0  0  0  0
 11 12  1  0  0  0  0
 11 13  1  0  0  0  0
 11 14  1  0  0  0  0
  9 10  1  0  0  0  0
  9 11  1  0  0  0  0
  9 17  1  0  0  0  0
  7  8  1  0  0  0  0
  7  9  1  0  0  0  0
 21 22  1  0  0  0  0
 21 23  1  0  0  0  0
 21 24  1  0  0  0  0
 19 20  1  0  0  0  0
 19 21  1  0  0  0  0
M  CHG  1  15  -1
M  END
$$$$
default_name
  -OEChem-01062215323D

 24 23  0     1  0  0  0  0  0999 V2000
   -2.8347   -3.7166    0.8034 H   0  0  0  0  0  0  0  0  0  0  0  0
   -2.7728   -2.7096    0.3954 C   0  0  0  0  0  0  0  0  0  0  0  0
   -3.4267   -2.0426    0.9524 H   0  0  0  0  0  0  0  0  0  0  0  0
   -3.0538   -2.7186   -0.6556 H   0  0  0  0  0  0  0  0  0  0  0  0
   -1.3498   -2.2206    0.5184 C   0  0  0  0  0  0  0  0  0  0  0  0
   -0.4997   -2.9426    1.0194 O   0  0  0  0  0  0  0  0  0  0  0  0
   -1.1198   -0.9926    0.0674 N   0  0  0  0  0  0  0  0  0  0  0  0
   -1.8978   -0.4486   -0.2716 H   0  0  0  0  0  0  0  0  0  0  0  0
    0.1693   -0.2866    0.0854 C   0  0  1  0  0  0  0  0  0  0  0  0
    0.9043   -0.8713   -0.4705 H   0  0  0  0  0  0  0  0  0  0  0  0
    0.0106    1.0816   -0.6124 C   0  0  0  0  0  0  0  0  0  0  0  0
   -0.8432    1.6014   -0.1742 H   0  0  0  0  0  0  0  0  0  0  0  0
    0.9019    1.6818   -0.4170 H   0  0  0  0  0  0  0  0  0  0  0  0
   -0.2233    1.0006   -2.1291 C   0  0  0  0  0  0  0  0  0  0  0  0
    0.2546    0.0270   -2.7577 O   0  5  0  0  0  0  0  0  0  0  0  0
   -0.8686    1.9334   -2.6542 O   0  0  0  0  0  0  0  0  0  0  0  0
    0.6664   -0.1450    1.5428 C   0  0  0  0  0  0  0  0  0  0  0  0
    1.5662    0.6558    1.8229 O   0  0  0  0  0  0  0  0  0  0  0  0
    0.0818   -0.9003    2.4780 N   0  0  0  0  0  0  0  0  0  0  0  0
   -0.5882   -1.5917    2.1360 H   0  0  0  0  0  0  0  0  0  0  0  0
    0.4336   -0.9084    3.8940 C   0  0  0  0  0  0  0  0  0  0  0  0
    0.5524    0.1160    4.2495 H   0  0  0  0  0  0  0  0  0  0  0  0
   -0.3518   -1.4051    4.4630 H   0  0  0  0  0  0  0  0  0  0  0  0
    1.3735   -1.4442    4.0277 H   0  0  0  0  0  0  0  0  0  0  0  0
  5  6  2  0  0  0  0
  5  7  1  0  0  0  0
  2  3  1  0  0  0  0
  2  4  1  0  0  0  0
  2  5  1  0  0  0  0
  1  2  1  0  0  0  0
 17 18  2  0  0  0  0
 17 19  1  0  0  0  0
 14 15  1  0  0  0  0
 14 16  2  0  0  0  0
 11 12  1  0  0  0  0
 11 13  1  0  0  0  0
 11 14  1  0  0  0  0
  9 10  1  0  0  0  0
  9 11  1  0  0  0  0
  9 17  1  0  0  0  0
  7  8  1  0  0  0  0
  7  9  1  0  0  0  0
 21 22  1  0  0  0  0
 21 23  1  0  0  0  0
 21 24  1  0  0  0  0
 19 20  1  0  0  0  0
 19 21  1  0  0  0  0
M  CHG  1  15  -1
M  END
$$$$
default_name
  -OEChem-01062215323D

 24 23  0     1  0  0  0  0  0999 V2000
   -2.8347   -3.7166    0.8034 H   0  0  0  0  0  0  0  0  0  0  0  0
   -2.7728   -2.7096    0.3954 C   0  0  0  0  0  0  0  0  0  0  0  0
   -3.4267   -2.0426    0.9524 H   0  0  0  0  0  0  0  0  0  0  0  0
   -3.0538   -2.7186   -0.6556 H   0  0  0  0  0  0  0  0  0  0  0  0
   -1.3498   -2.2206    0.5184 C   0  0  0  0  0  0  0  0  0  0  0  0
   -0.4997   -2.9426    1.0194 O   0  0  0  0  0  0  0  0  0  0  0  0
   -1.1198   -0.9926    0.0674 N   0  0  0  0  0  0  0  0  0  0  0  0
   -1.8978   -0.4486   -0.2716 H   0  0  0  0  0  0  0  0  0  0  0  0
    0.1693   -0.2866    0.0854 C   0  0  1  0  0  0  0  0  0  0  0  0
    0.9043   -0.8713   -0.4705 H   0  0  0  0  0  0  0  0  0  0  0  0
    0.0106    1.0816   -0.6124 C   0  0  0  0  0  0  0  0  0  0  0  0
   -0.8432    1.6014   -0.1742 H   0  0  0  0  0  0  0  0  0  0  0  0
    0.9019    1.6818   -0.4170 H   0  0  0  0  0  0  0  0  0  0  0  0
   -0.2233    1.0006   -2.1291 C   0  0  0  0  0  0  0  0  0  0  0  0
    0.2546    0.0270   -2.7577 O   0  5  0  0  0  0  0  0  0  0  0  0
   -0.8686    1.9334   -2.6542 O   0  0  0  0  0  0  0  0  0  0  0  0
    0.6664   -0.1450    1.5428 C   0  0  0  0  0  0  0  0  0  0  0  0
    1.3537    0.8266    1.8788 O   0  0  0  0  0  0  0  0  0  0  0  0
    0.3150   -1.0930    2.4172 N   0  0  0  0  0  0  0  0  0  0  0  0
   -0.1783   -1.8978    2.0259 H   0  0  0  0  0  0  0  0  0  0  0  0
    0.7061   -1.1283    3.8224 C   0  0  0  0  0  0  0  0  0  0  0  0
    0.5846   -0.1380    4.2632 H   0  0  0  0  0  0  0  0  0  0  0  0
    0.0847   -1.8464    4.3569 H   0  0  0  0  0  0  0  0  0  0  0  0
    1.7521   -1.4266    3.8968 H   0  0  0  0  0  0  0  0  0  0  0  0
  5  6  2  0  0  0  0
  5  7  1  0  0  0  0
  2  3  1  0  0  0  0
  2  4  1  0  0  0  0
  2  5  1  0  0  0  0
  1  2  1  0  0  0  0
 17 18  2  0  0  0  0
 17 19  1  0  0  0  0
 14 15  1  0  0  0  0
 14 16  2  0  0  0  0
 11 12  1  0  0  0  0
 11 13  1  0  0  0  0
 11 14  1  0  0  0  0
  9 10  1  0  0  0  0
  9 11  1  0  0  0  0
  9 17  1  0  0  0  0
  7  8  1  0  0  0  0
  7  9  1  0  0  0  0
 21 22  1  0  0  0  0
 21 23  1  0  0  0  0
 21 24  1  0  0  0  0
 19 20  1  0  0  0  0
 19 21  1  0  0  0  0
M  CHG  1  15  -1
M  END
$$$$
default_name
  -OEChem-01062215323D

 24 23  0     1  0  0  0  0  0999 V2000
   -2.8347   -3.7166    0.8034 H   0  0  0  0  0  0  0  0  0  0  0  0
   -2.7728   -2.7096    0.3954 C   0  0  0  0  0  0  0  0  0  0  0  0
   -3.4267   -2.0426    0.9524 H   0  0  0  0  0  0  0  0  0  0  0  0
   -3.0538   -2.7186   -0.6556 H   0  0  0  0  0  0  0  0  0  0  0  0
   -1.3498   -2.2206    0.5184 C   0  0  0  0  0  0  0  0  0  0  0  0
   -0.4997   -2.9426    1.0194 O   0  0  0  0  0  0  0  0  0  0  0  0
   -1.1198   -0.9926    0.0674 N   0  0  0  0  0  0  0  0  0  0  0  0
   -1.8978   -0.4486   -0.2716 H   0  0  0  0  0  0  0  0  0  0  0  0
    0.1693   -0.2866    0.0854 C   0  0  1  0  0  0  0  0  0  0  0  0
    0.9043   -0.8713   -0.4705 H   0  0  0  0  0  0  0  0  0  0  0  0
    0.0106    1.0816   -0.6124 C   0  0  0  0  0  0  0  0  0  0  0  0
   -0.8432    1.6014   -0.1742 H   0  0  0  0  0  0  0  0  0  0  0  0
    0.9019    1.6818   -0.4170 H   0  0  0  0  0  0  0  0  0  0  0  0
   -0.2233    1.0006   -2.1291 C   0  0  0  0  0  0  0  0  0  0  0  0
    0.2546    0.0270   -2.7577 O   0  5  0  0  0  0  0  0  0  0  0  0
   -0.8686    1.9334   -2.6542 O   0  0  0  0  0  0  0  0  0  0  0  0
    0.6664   -0.1450    1.5428 C   0  0  0  0  0  0  0  0  0  0  0  0
    1.1081    0.9352    1.9520 O   0  0  0  0  0  0  0  0  0  0  0  0
    0.5858   -1.2173    2.3369 N   0  0  0  0  0  0  0  0  0  0  0  0
    0.2898   -2.0842    1.8844 H   0  0  0  0  0  0  0  0  0  0  0  0
    1.0213   -1.2684    3.7285 C   0  0  0  0  0  0  0  0  0  0  0  0
    0.6779   -0.3767    4.2545 H   0  0  0  0  0  0  0  0  0  0  0  0
    0.6115   -2.1572    4.2074 H   0  0  0  0  0  0  0  0  0  0  0  0
    2.1103   -1.3063    3.7629 H   0  0  0  0  0  0  0  0  0  0  0  0
  5  6  2  0  0  0  0
  5  7  1  0  0  0  0
  2  3  1  0  0  0  0
  2  4  1  0  0  0  0
  2  5  1  0  0  0  0
  1  2  1  0  0  0  0
 17 18  2  0  0  0  0
 17 19  1  0  0  0  0
 14 15  1  0  0  0  0
 14 16  2  0  0  0  0
 11 12  1  0  0  0  0
 11 13  1  0  0  0  0
 11 14  1  0  0  0  0
  9 10  1  0  0  0  0
  9 11  1  0  0  0  0
  9 17  1  0  0  0  0
  7  8  1  0  0  0  0
  7  9  1  0  0  0  0
 21 22  1  0  0  0  0
 21 23  1  0  0  0  0
 21 24  1  0  0  0  0
 19 20  1  0  0  0  0
 19 21  1  0  0  0  0
M  CHG  1  15  -1
M  END
$$$$
default_name
  -OEChem-01062215323D

 24 23  0     1  0  0  0  0  0999 V2000
   -2.8347   -3.7166    0.8034 H   0  0  0  0  0  0  0  0  0  0  0  0
   -2.7728   -2.7096    0.3954 C   0  0  0  0  0  0  0  0  0  0  0  0
   -3.4267   -2.0426    0.9524 H   0  0  0  0  0  0  0  0  0  0  0  0
   -3.0538   -2.7186   -0.6556 H   0  0  0  0  0  0  0  0  0  0  0  0
   -1.3498   -2.2206    0.5184 C   0  0  0  0  0  0  0  0  0  0  0  0
   -0.4997   -2.9426    1.0194 O   0  0  0  0  0  0  0  0  0  0  0  0
   -1.1198   -0.9926    0.0674 N   0  0  0  0  0  0  0  0  0  0  0  0
   -1.8978   -0.4486   -0.2716 H   0  0  0  0  0  0  0  0  0  0  0  0
    0.1693   -0.2866    0.0854 C   0  0  1  0  0  0  0  0  0  0  0  0
    0.9043   -0.8713   -0.4705 H   0  0  0  0  0  0  0  0  0  0  0  0
    0.0106    1.0816   -0.6124 C   0  0  0  0  0  0  0  0  0  0  0  0
   -0.8432    1.6014   -0.1742 H   0  0  0  0  0  0  0  0  0  0  0  0
    0.9019    1.6818   -0.4170 H   0  0  0  0  0  0  0  0  0  0  0  0
   -0.2233    1.0006   -2.1291 C   0  0  0  0  0  0  0  0  0  0  0  0
    0.2546    0.0270   -2.7577 O   0  5  0  0  0  0  0  0  0  0  0  0
   -0.8686    1.9334   -2.6542 O   0  0  0  0  0  0  0  0  0  0  0  0
    0.6664   -0.1450    1.5428 C   0  0  0  0  0  0  0  0  0  0  0  0
    0.8461    0.9740    2.0376 O   0  0  0  0  0  0  0  0  0  0  0  0
    0.8757   -1.2645    2.2426 N   0  0  0  0  0  0  0  0  0  0  0  0
    0.7840   -2.1384    1.7211 H   0  0  0  0  0  0  0  0  0  0  0  0
    1.3577   -1.3189    3.6186 C   0  0  0  0  0  0  0  0  0  0  0  0
    0.8261   -0.5837    4.2241 H   0  0  0  0  0  0  0  0  0  0  0  0
    1.1927   -2.3166    4.0246 H   0  0  0  0  0  0  0  0  0  0  0  0
    2.4238   -1.0916    3.6351 H   0  0  0  0  0  0  0  0  0  0  0  0
  5  6  2  0  0  0  0
  5  7  1  0  0  0  0
  2  3  1  0  0  0  0
  2  4  1  0  0  0  0
  2  5  1  0  0  0  0
  1  2  1  0  0  0  0
 17 18  2  0  0  0  0
 17 19  1  0  0  0  0
 14 15  1  0  0  0  0
 14 16  2  0  0  0  0
 11 12  1  0  0  0  0
 11 13  1  0  0  0  0
 11 14  1  0  0  0  0
  9 10  1  0  0  0  0
  9 11  1  0  0  0  0
  9 17  1  0  0  0  0
  7  8  1  0  0  0  0
  7  9  1  0  0  0  0
 21 22  1  0  0  0  0
 21 23  1  0  0  0  0
 21 24  1  0  0  0  0
 19 20  1  0  0  0  0
 19 21  1  0  0  0  0
M  CHG  1  15  -1
M  END
$$$$
default_name
  -OEChem-01062215323D

 24 23  0     1  0  0  0  0  0999 V2000
   -2.8347   -3.7166    0.8034 H   0  0  0  0  0  0  0  0  0  0  0  0
   -2.7728   -2.7096    0.3954 C   0  0  0  0  0  0  0  0  0  0  0  0
   -3.4267   -2.0426    0.9524 H   0  0  0  0  0  0  0  0  0  0  0  0
   -3.0538   -2.7186   -0.6556 H   0  0  0  0  0  0  0  0  0  0  0  0
   -1.3498   -2.2206    0.5184 C   0  0  0  0  0  0  0  0  0  0  0  0
   -0.4997   -2.9426    1.0194 O   0  0  0  0  0  0  0  0  0  0  0  0
   -1.1198   -0.9926    0.0674 N   0  0  0  0  0  0  0  0  0  0  0  0
   -1.8978   -0.4486   -0.2716 H   0  0  0  0  0  0  0  0  0  0  0  0
    0.1693   -0.2866    0.0854 C   0  0  1  0  0  0  0  0  0  0  0  0
    0.9043   -0.8713   -0.4705 H   0  0  0  0  0  0  0  0  0  0  0  0
    0.0106    1.0816   -0.6124 C   0  0  0  0  0  0  0  0  0  0  0  0
   -0.8432    1.6014   -0.1742 H   0  0  0  0  0  0  0  0  0  0  0  0
    0.9019    1.6818   -0.4170 H   0  0  0  0  0  0  0  0  0  0  0  0
   -0.2233    1.0006   -2.1291 C   0  0  0  0  0  0  0  0  0  0  0  0
    0.2546    0.0270   -2.7577 O   0  5  0  0  0  0  0  0  0  0  0  0
   -0.8686    1.9334   -2.6542 O   0  0  0  0  0  0  0  0  0  0  0  0
    0.6664   -0.1450    1.5428 C   0  0  0  0  0  0  0  0  0  0  0  0
    0.5856    0.9405    2.1298 O   0  0  0  0  0  0  0  0  0  0  0  0
    1.1651   -1.2316    2.1407 N   0  0  0  0  0  0  0  0  0  0  0  0
    1.2707   -2.0565    1.5471 H   0  0  0  0  0  0  0  0  0  0  0  0
    1.6924   -1.2766    3.5003 C   0  0  0  0  0  0  0  0  0  0  0  0
    1.0190   -0.7450    4.1739 H   0  0  0  0  0  0  0  0  0  0  0  0
    1.7886   -2.3135    3.8211 H   0  0  0  0  0  0  0  0  0  0  0  0
    2.6713   -0.7971    3.5221 H   0  0  0  0  0  0  0  0  0  0  0  0
  5  6  2  0  0  0  0
  5  7  1  0  0  0  0
  2  3  1  0  0  0  0
  2  4  1  0  0  0  0
  2  5  1  0  0  0  0
  1  2  1  0  0  0  0
 17 18  2  0  0  0  0
 17 19  1  0  0  0  0
 14 15  1  0  0  0  0
 14 16  2  0  0  0  0
 11 12  1  0  0  0  0
 11 13  1  0  0  0  0
 11 14  1  0  0  0  0
  9 10  1  0  0  0  0
  9 11  1  0  0  0  0
  9 17  1  0  0  0  0
  7  8  1  0  0  0  0
  7  9  1  0  0  0  0
 21 22  1  0  0  0  0
 21 23  1  0  0  0  0
 21 24  1  0  0  0  0
 19 20  1  0  0  0  0
 19 21  1  0  0  0  0
M  CHG  1  15  -1
M  END
$$$$
default_name
  -OEChem-01062215323D

 24 23  0     1  0  0  0  0  0999 V2000
   -2.8347   -3.7166    0.8034 H   0  0  0  0  0  0  0  0  0  0  0  0
   -2.7728   -2.7096    0.3954 C   0  0  0  0  0  0  0  0  0  0  0  0
   -3.4267   -2.0426    0.9524 H   0  0  0  0  0  0  0  0  0  0  0  0
   -3.0538   -2.7186   -0.6556 H   0  0  0  0  0  0  0  0  0  0  0  0
   -1.3498   -2.2206    0.5184 C   0  0  0  0  0  0  0  0  0  0  0  0
   -0.4997   -2.9426    1.0194 O   0  0  0  0  0  0  0  0  0  0  0  0
   -1.1198   -0.9926    0.0674 N   0  0  0  0  0  0  0  0  0  0  0  0
   -1.8978   -0.4486   -0.2716 H   0  0  0  0  0  0  0  0  0  0  0  0
    0.1693   -0.2866    0.0854 C   0  0  1  0  0  0  0  0  0  0  0  0
    0.9043   -0.8713   -0.4705 H   0  0  0  0  0  0  0  0  0  0  0  0
    0.0106    1.0816   -0.6124 C   0  0  0  0  0  0  0  0  0  0  0  0
   -0.8432    1.6014   -0.1742 H   0  0  0  0  0  0  0  0  0  0  0  0
    0.9019    1.6818   -0.4170 H   0  0  0  0  0  0  0  0  0  0  0  0
   -0.2233    1.0006   -2.1291 C   0  0  0  0  0  0  0  0  0  0  0  0
    0.2546    0.0270   -2.7577 O   0  5  0  0  0  0  0  0  0  0  0  0
   -0.8686    1.9334   -2.6542 O   0  0  0  0  0  0  0  0  0  0  0  0
    0.6664   -0.1450    1.5428 C   0  0  0  0  0  0  0  0  0  0  0  0
    0.3443    0.8369    2.2221 O   0  0  0  0  0  0  0  0  0  0  0  0
    1.4341   -1.1207    2.0381 N   0  0  0  0  0  0  0  0  0  0  0  0
    1.7167   -1.8443    1.3743 H   0  0  0  0  0  0  0  0  0  0  0  0
    2.0025   -1.1442    3.3817 C   0  0  0  0  0  0  0  0  0  0  0  0
    1.2435   -0.8496    4.1075 H   0  0  0  0  0  0  0  0  0  0  0  0
    2.3586   -2.1483    3.6106 H   0  0  0  0  0  0  0  0  0  0  0  0
    2.8358   -0.4429    3.4316 H   0  0  0  0  0  0  0  0  0  0  0  0
  5  6  2  0  0  0  0
  5  7  1  0  0  0  0
  2  3  1  0  0  0  0
  2  4  1  0  0  0  0
  2  5  1  0  0  0  0
  1  2  1  0  0  0  0
 17 18  2  0  0  0  0
 17 19  1  0  0  0  0
 14 15  1  0  0  0  0
 14 16  2  0  0  0  0
 11 12  1  0  0  0  0
 11 13  1  0  0  0  0
 11 14  1  0  0  0  0
  9 10  1  0  0  0  0
  9 11  1  0  0  0  0
  9 17  1  0  0  0  0
  7  8  1  0  0  0  0
  7  9  1  0  0  0  0
 21 22  1  0  0  0  0
 21 23  1  0  0  0  0
 21 24  1  0  0  0  0
 19 20  1  0  0  0  0
 19 21  1  0  0  0  0
M  CHG  1  15  -1
M  END
$$$$
default_name
  -OEChem-01062215323D

 24 23  0     1  0  0  0  0  0999 V2000
   -2.8347   -3.7166    0.8034 H   0  0  0  0  0  0  0  0  0  0  0  0
   -2.7728   -2.7096    0.3954 C   0  0  0  0  0  0  0  0  0  0  0  0
   -3.4267   -2.0426    0.9524 H   0  0  0  0  0  0  0  0  0  0  0  0
   -3.0538   -2.7186   -0.6556 H   0  0  0  0  0  0  0  0  0  0  0  0
   -1.3498   -2.2206    0.5184 C   0  0  0  0  0  0  0  0  0  0  0  0
   -0.4997   -2.9426    1.0194 O   0  0  0  0  0  0  0  0  0  0  0  0
   -1.1198   -0.9926    0.0674 N   0  0  0  0  0  0  0  0  0  0  0  0
   -1.8978   -0.4486   -0.2716 H   0  0  0  0  0  0  0  0  0  0  0  0
    0.1693   -0.2866    0.0854 C   0  0  1  0  0  0  0  0  0  0  0  0
    0.9043   -0.8713   -0.4705 H   0  0  0  0  0  0  0  0  0  0  0  0
    0.0106    1.0816   -0.6124 C   0  0  0  0  0  0  0  0  0  0  0  0
   -0.8432    1.6014   -0.1742 H   0  0  0  0  0  0  0  0  0  0  0  0
    0.9019    1.6818   -0.4170 H   0  0  0  0  0  0  0  0  0  0  0  0
   -0.2233    1.0006   -2.1291 C   0  0  0  0  0  0  0  0  0  0  0  0
    0.2546    0.0270   -2.7577 O   0  5  0  0  0  0  0  0  0  0  0  0
   -0.8686    1.9334   -2.6542 O   0  0  0  0  0  0  0  0  0  0  0  0
    0.6664   -0.1450    1.5428 C   0  0  0  0  0  0  0  0  0  0  0  0
    0.1387    0.6703    2.3085 O   0  0  0  0  0  0  0  0  0  0  0  0
    1.6646   -0.9395    1.9419 N   0  0  0  0  0  0  0  0  0  0  0  0
    2.0917   -1.5161    1.2145 H   0  0  0  0  0  0  0  0  0  0  0  0
    2.2670   -0.9308    3.2707 C   0  0  0  0  0  0  0  0  0  0  0  0
    1.4842   -0.8903    4.0293 H   0  0  0  0  0  0  0  0  0  0  0  0
    2.8639   -1.8321    3.4075 H   0  0  0  0  0  0  0  0  0  0  0  0
    2.9061   -0.0531    3.3697 H   0  0  0  0  0  0  0  0  0  0  0  0
  5  6  2  0  0  0  0
  5  7  1  0  0  0  0
  2  3  1  0  0  0  0
  2  4  1  0  0  0  0
  2  5  1  0  0  0  0
  1  2  1  0  0  0  0
 17 18  2  0  0  0  0
 17 19  1  0  0  0  0
 14 15  1  0  0  0  0
 14 16  2  0  0  0  0
 11 12  1  0  0  0  0
 11 13  1  0  0  0  0
 11 14  1  0  0  0  0
  9 10  1  0  0  0  0
  9 11  1  0  0  0  0
  9 17  1  0  0  0  0
  7  8  1  0  0  0  0
  7  9  1  0  0  0  0
 21 22  1  0  0  0  0
 21 23  1  0  0  0  0
 21 24  1  0  0  0  0
 19 20  1  0  0  0  0
 19 21  1  0  0  0  0
M  CHG  1  15  -1
M  END
$$$$
default_name
  -OEChem-01062215323D

 24 23  0     1  0  0  0  0  0999 V2000
   -2.8347   -3.7166    0.8034 H   0  0  0  0  0  0  0  0  0  0  0  0
   -2.7728   -2.7096    0.3954 C   0  0  0  0  0  0  0  0  0  0  0  0
   -3.4267   -2.0426    0.9524 H   0  0  0  0  0  0  0  0  0  0  0  0
   -3.0538   -2.7186   -0.6556 H   0  0  0  0  0  0  0  0  0  0  0  0
   -1.3498   -2.2206    0.5184 C   0  0  0  0  0  0  0  0  0  0  0  0
   -0.4997   -2.9426    1.0194 O   0  0  0  0  0  0  0  0  0  0  0  0
   -1.1198   -0.9926    0.0674 N   0  0  0  0  0  0  0  0  0  0  0  0
   -1.8978   -0.4486   -0.2716 H   0  0  0  0  0  0  0  0  0  0  0  0
    0.1693   -0.2866    0.0854 C   0  0  1  0  0  0  0  0  0  0  0  0
    0.9043   -0.8713   -0.4705 H   0  0  0  0  0  0  0  0  0  0  0  0
    0.0106    1.0816   -0.6124 C   0  0  0  0  0  0  0  0  0  0  0  0
   -0.8432    1.6014   -0.1742 H   0  0  0  0  0  0  0  0  0  0  0  0
    0.9019    1.6818   -0.4170 H   0  0  0  0  0  0  0  0  0  0  0  0
   -0.2233    1.0006   -2.1291 C   0  0  0  0  0  0  0  0  0  0  0  0
    0.2546    0.0270   -2.7577 O   0  5  0  0  0  0  0  0  0  0  0  0
   -0.8686    1.9334   -2.6542 O   0  0  0  0  0  0  0  0  0  0  0  0
    0.6664   -0.1450    1.5428 C   0  0  0  0  0  0  0  0  0  0  0  0
   -0.0172    0.4521    2.3828 O   0  0  0  0  0  0  0  0  0  0  0  0
    1.8406   -0.7002    1.8586 N   0  0  0  0  0  0  0  0  0  0  0  0
    2.3700   -1.0943    1.0786 H   0  0  0  0  0  0  0  0  0  0  0  0
    2.4677   -0.6509    3.1751 C   0  0  0  0  0  0  0  0  0  0  0  0
    1.7249   -0.8644    3.9447 H   0  0  0  0  0  0  0  0  0  0  0  0
    3.2700   -1.3865    3.2257 H   0  0  0  0  0  0  0  0  0  0  0  0
    2.8775    0.3457    3.3407 H   0  0  0  0  0  0  0  0  0  0  0  0
  5  6  2  0  0  0  0
  5  7  1  0  0  0  0
  2  3  1  0  0  0  0
  2  4  1  0  0  0  0
  2  5  1  0  0  0  0
  1  2  1  0  0  0  0
 17 18  2  0  0  0  0
 17 19  1  0  0  0  0
 14 15  1  0  0  0  0
 14 16  2  0  0  0  0
 11 12  1  0  0  0  0
 11 13  1  0  0  0  0
 11 14  1  0  0  0  0
  9 10  1  0  0  0  0
  9 11  1  0  0  0  0
  9 17  1  0  0  0  0
  7  8  1  0  0  0  0
  7  9  1  0  0  0  0
 21 22  1  0  0  0  0
 21 23  1  0  0  0  0
 21 24  1  0  0  0  0
 19 20  1  0  0  0  0
 19 21  1  0  0  0  0
M  CHG  1  15  -1
M  END
$$$$
default_name
  -OEChem-01062215323D

 24 23  0     1  0  0  0  0  0999 V2000
   -2.8347   -3.7166    0.8034 H   0  0  0  0  0  0  0  0  0  0  0  0
   -2.7728   -2.7096    0.3954 C   0  0  0  0  0  0  0  0  0  0  0  0
   -3.4267   -2.0426    0.9524 H   0  0  0  0  0  0  0  0  0  0  0  0
   -3.0538   -2.7186   -0.6556 H   0  0  0  0  0  0  0  0  0  0  0  0
   -1.3498   -2.2206    0.5184 C   0  0  0  0  0  0  0  0  0  0  0  0
   -0.4997   -2.9426    1.0194 O   0  0  0  0  0  0  0  0  0  0  0  0
   -1.1198   -0.9926    0.0674 N   0  0  0  0  0  0  0  0  0  0  0  0
   -1.8978   -0.4486   -0.2716 H   0  0  0  0  0  0  0  0  0  0  0  0
    0.1693   -0.2866    0.0854 C   0  0  1  0  0  0  0  0  0  0  0  0
    0.9043   -0.8713   -0.4705 H   0  0  0  0  0  0  0  0  0  0  0  0
    0.0106    1.0816   -0.6124 C   0  0  0  0  0  0  0  0  0  0  0  0
   -0.8432    1.6014   -0.1742 H   0  0  0  0  0  0  0  0  0  0  0  0
    0.9019    1.6818   -0.4170 H   0  0  0  0  0  0  0  0  0  0  0  0
   -0.2233    1.0006   -2.1291 C   0  0  0  0  0  0  0  0  0  0  0  0
    0.2546    0.0270   -2.7577 O   0  5  0  0  0  0  0  0  0  0  0  0
   -0.8686    1.9334   -2.6542 O   0  0  0  0  0  0  0  0  0  0  0  0
    0.6664   -0.1450    1.5428 C   0  0  0  0  0  0  0  0  0  0  0  0
   -0.1128    0.1971    2.4402 O   0  0  0  0  0  0  0  0  0  0  0  0
    1.9504   -0.4192    1.7939 N   0  0  0  0  0  0  0  0  0  0  0  0
    2.5328   -0.6077    0.9758 H   0  0  0  0  0  0  0  0  0  0  0  0
    2.5911   -0.3236    3.1012 C   0  0  0  0  0  0  0  0  0  0  0  0
    1.9490   -0.7736    3.8595 H   0  0  0  0  0  0  0  0  0  0  0  0
    3.5493   -0.8420    3.0775 H   0  0  0  0  0  0  0  0  0  0  0  0
    2.7519    0.7264    3.3466 H   0  0  0  0  0  0  0  0  0  0  0  0
  5  6  2  0  0  0  0
  5  7  1  0  0  0  0
  2  3  1  0  0  0  0
  2  4  1  0  0  0  0
  2  5  1  0  0  0  0
  1  2  1  0  0  0  0
 17 18  2  0  0  0  0
 17 19  1  0  0  0  0
 14 15  1  0  0  0  0
 14 16  2  0  0  0  0
 11 12  1  0  0  0  0
 11 13  1  0  0  0  0
 11 14  1  0  0  0  0
  9 10  1  0  0  0  0
  9 11  1  0  0  0  0
  9 17  1  0  0  0  0
  7  8  1  0  0  0  0
  7  9  1  0  0  0  0
 21 22  1  0  0  0  0
 21 23  1  0  0  0  0
 21 24  1  0  0  0  0
 19 20  1  0  0  0  0
 19 21  1  0  0  0  0
M  CHG  1  15  -1
M  END
$$$$
default_name
  -OEChem-01062215323D

 24 23  0     1  0  0  0  0  0999 V2000
   -2.8347   -3.7166    0.8034 H   0  0  0  0  0  0  0  0  0  0  0  0
   -2.7728   -2.7096    0.3954 C   0  0  0  0  0  0  0  0  0  0  0  0
   -3.4267   -2.0426    0.9524 H   0  0  0  0  0  0  0  0  0  0  0  0
   -3.0538   -2.7186   -0.6556 H   0  0  0  0  0  0  0  0  0  0  0  0
   -1.3498   -2.2206    0.5184 C   0  0  0  0  0  0  0  0  0  0  0  0
   -0.4997   -2.9426    1.0194 O   0  0  0  0  0  0  0  0  0  0  0  0
   -1.1198   -0.9926    0.0674 N   0  0  0  0  0  0  0  0  0  0  0  0
   -1.8978   -0.4486   -0.2716 H   0  0  0  0  0  0  0  0  0  0  0  0
    0.1693   -0.2866    0.0854 C   0  0  1  0  0  0  0  0  0  0  0  0
    0.9043   -0.8713   -0.4705 H   0  0  0  0  0  0  0  0  0  0  0  0
    0.0106    1.0816   -0.6124 C   0  0  0  0  0  0  0  0  0  0  0  0
   -0.8432    1.6014   -0.1742 H   0  0  0  0  0  0  0  0  0  0  0  0
    0.9019    1.6818   -0.4170 H   0  0  0  0  0  0  0  0  0  0  0  0
   -0.2233    1.0006   -2.1291 C   0  0  0  0  0  0  0  0  0  0  0  0
    0.2546    0.0270   -2.7577 O   0  5  0  0  0  0  0  0  0  0  0  0
   -0.8686    1.9334   -2.6542 O   0  0  0  0  0  0  0  0  0  0  0  0
    0.6664   -0.1450    1.5428 C   0  0  0  0  0  0  0  0  0  0  0  0
   -0.1415   -0.0774    2.4767 O   0  0  0  0  0  0  0  0  0  0  0  0
    1.9863   -0.1156    1.7521 N   0  0  0  0  0  0  0  0  0  0  0  0
    2.5689   -0.0894    0.9131 H   0  0  0  0  0  0  0  0  0  0  0  0
    2.6287    0.0288    3.0541 C   0  0  0  0  0  0  0  0  0  0  0  0
    2.1413   -0.6242    3.7793 H   0  0  0  0  0  0  0  0  0  0  0  0
    3.6827   -0.2355    2.9730 H   0  0  0  0  0  0  0  0  0  0  0  0
    2.5379    1.0629    3.3869 H   0  0  0  0  0  0  0  0  0  0  0  0
  5  6  2  0  0  0  0
  5  7  1  0  0  0  0
  2  3  1  0  0  0  0
  2  4  1  0  0  0  0
  2  5  1  0  0  0  0
  1  2  1  0  0  0  0
 17 18  2  0  0  0  0
 17 19  1  0  0  0  0
 14 15  1  0  0  0  0
 14 16  2  0  0  0  0
 11 12  1  0  0  0  0
 11 13  1  0  0  0  0
 11 14  1  0  0  0  0
  9 10  1  0  0  0  0
  9 11  1  0  0  0  0
  9 17  1  0  0  0  0
  7  8  1  0  0  0  0
  7  9  1  0  0  0  0
 21 22  1  0  0  0  0
 21 23  1  0  0  0  0
 21 24  1  0  0  0  0
 19 20  1  0  0  0  0
 19 21  1  0  0  0  0
M  CHG  1  15  -1
M  END
$$$$
default_name
  -OEChem-01062215323D

 24 23  0     1  0  0  0  0  0999 V2000
   -2.8347   -3.7166    0.8034 H   0  0  0  0  0  0  0  0  0  0  0  0
   -2.7728   -2.7096    0.3954 C   0  0  0  0  0  0  0  0  0  0  0  0
   -3.4267   -2.0426    0.9524 H   0  0  0  0  0  0  0  0  0  0  0  0
   -3.0538   -2.7186   -0.6556 H   0  0  0  0  0  0  0  0  0  0  0  0
   -1.3498   -2.2206    0.5184 C   0  0  0  0  0  0  0  0  0  0  0  0
   -0.4997   -2.9426    1.0194 O   0  0  0  0  0  0  0  0  0  0  0  0
   -1.1198   -0.9926    0.0674 N   0  0  0  0  0  0  0  0  0  0  0  0
   -1.8978   -0.4486   -0.2716 H   0  0  0  0  0  0  0  0  0  0  0  0
    0.1693   -0.2866    0.0854 C   0  0  1  0  0  0  0  0  0  0  0  0
    0.9043   -0.8713   -0.4705 H   0  0  0  0  0  0  0  0  0  0  0  0
    0.0106    1.0816   -0.6124 C   0  0  0  0  0  0  0  0  0  0  0  0
   -0.8432    1.6014   -0.1742 H   0  0  0  0  0  0  0  0  0  0  0  0
    0.9019    1.6818   -0.4170 H   0  0  0  0  0  0  0  0  0  0  0  0
   -0.2233    1.0006   -2.1291 C   0  0  0  0  0  0  0  0  0  0  0  0
    0.2546    0.0270   -2.7577 O   0  5  0  0  0  0  0  0  0  0  0  0
   -0.8686    1.9334   -2.6542 O   0  0  0  0  0  0  0  0  0  0  0  0
    0.6664   -0.1450    1.5428 C   0  0  0  0  0  0  0  0  0  0  0  0
   -0.1015   -0.3525    2.4898 O   0  0  0  0  0  0  0  0  0  0  0  0
    1.9459    0.1899    1.7362 N   0  0  0  0  0  0  0  0  0  0  0  0
    2.4758    0.4252    0.8949 H   0  0  0  0  0  0  0  0  0  0  0  0
    2.5780    0.3822    3.0371 C   0  0  0  0  0  0  0  0  0  0  0  0
    2.2888   -0.4263    3.7098 H   0  0  0  0  0  0  0  0  0  0  0  0
    3.6612    0.3916    2.9195 H   0  0  0  0  0  0  0  0  0  0  0  0
    2.2500    1.3325    3.4589 H   0  0  0  0  0  0  0  0  0  0  0  0
  5  6  2  0  0  0  0
  5  7  1  0  0  0  0
  2  3  1  0  0  0  0
  2  4  1  0  0  0  0
  2  5  1  0  0  0  0
  1  2  1  0  0  0  0
 17 18  2  0  0  0  0
 17 19  1  0  0  0  0
 14 15  1  0  0  0  0
 14 16  2  0  0  0  0
 11 12  1  0  0  0  0
 11 13  1  0  0  0  0
 11 14  1  0  0  0  0
  9 10  1  0  0  0  0
  9 11  1  0  0  0  0
  9 17  1  0  0  0  0
  7  8  1  0  0  0  0
  7  9  1  0  0  0  0
 21 22  1  0  0  0  0
 21 23  1  0  0  0  0
 21 24  1  0  0  0  0
 19 20  1  0  0  0  0
 19 21  1  0  0  0  0
M  CHG  1  15  -1
M  END
$$$$
default_name
  -OEChem-01062215323D

 24 23  0     1  0  0  0  0  0999 V2000
   -2.8347   -3.7166    0.8034 H   0  0  0  0  0  0  0  0  0  0  0  0
   -2.7728   -2.7096    0.3954 C   0  0  0  0  0  0  0  0  0  0  0  0
   -3.4267   -2.0426    0.9524 H   0  0  0  0  0  0  0  0  0  0  0  0
   -3.0538   -2.7186   -0.6556 H   0  0  0  0  0  0  0  0  0  0  0  0
   -1.3498   -2.2206    0.5184 C   0  0  0  0  0  0  0  0  0  0  0  0
   -0.4997   -2.9426    1.0194 O   0  0  0  0  0  0  0  0  0  0  0  0
   -1.1198   -0.9926    0.0674 N   0  0  0  0  0  0  0  0  0  0  0  0
   -1.8978   -0.4486   -0.2716 H   0  0  0  0  0  0  0  0  0  0  0  0
    0.1693   -0.2866    0.0854 C   0  0  1  0  0  0  0  0  0  0  0  0
    0.8226   -0.7170   -0.6755 H   0  0  0  0  0  0  0  0  0  0  0  0
   -0.0599    1.2012   -0.2581 C   0  0  0  0  0  0  0  0  0  0  0  0
   -0.8465    1.5931    0.3891 H   0  0  0  0  0  0  0  0  0  0  0  0
    0.8555    1.7570   -0.0435 H   0  0  0  0  0  0  0  0  0  0  0  0
   -0.4819    1.4622   -1.7125 C   0  0  0  0  0  0  0  0  0  0  0  0
   -0.0970    0.6650   -2.6002 O   0  5  0  0  0  0  0  0  0  0  0  0
   -1.1772    2.4783   -1.9279 O   0  0  0  0  0  0  0  0  0  0  0  0
    0.8458   -0.4706    1.4637 C   0  0  0  0  0  0  0  0  0  0  0  0
    0.3007   -1.1468    2.3441 O   0  0  0  0  0  0  0  0  0  0  0  0
    2.0347    0.1087    1.6579 N   0  0  0  0  0  0  0  0  0  0  0  0
    2.3611    0.7169    0.9045 H   0  0  0  0  0  0  0  0  0  0  0  0
    2.8054    0.0537    2.8955 C   0  0  0  0  0  0  0  0  0  0  0  0
    2.8101   -0.9667    3.2810 H   0  0  0  0  0  0  0  0  0  0  0  0
    3.8279    0.3780    2.7042 H   0  0  0  0  0  0  0  0  0  0  0  0
    2.3473    0.7124    3.6336 H   0  0  0  0  0  0  0  0  0  0  0  0
  5  6  2  0  0  0  0
  5  7  1  0  0  0  0
  2  3  1  0  0  0  0
  2  4  1  0  0  0  0
  2  5  1  0  0  0  0
  1  2  1  0  0  0  0
 17 18  2  0  0  0  0
 17 19  1  0  0  0  0
 14 15  1  0  0  0  0
 14 16  2  0  0  0  0
 11 12  1  0  0  0  0
 11 13  1  0  0  0  0
 11 14  1  0  0  0  0
  9 10  1  0  0  0  0
  9 11  1  0  0  0  0
  9 17  1  0  0  0  0
  7  8  1  0  0  0  0
  7  9  1  0  0  0  0
 21 22  1  0  0  0  0
 21 23  1  0  0  0  0
 21 24  1  0  0  0  0
 19 20  1  0  0  0  0
 19 21  1  0  0  0  0
M  CHG  1  15  -1
M  END
$$$$
default_name
  -OEChem-01062215323D

 24 23  0     1  0  0  0  0  0999 V2000
   -2.8347   -3.7166    0.8034 H   0  0  0  0  0  0  0  0  0  0  0  0
   -2.7728   -2.7096    0.3954 C   0  0  0  0  0  0  0  0  0  0  0  0
   -3.4267   -2.0426    0.9524 H   0  0  0  0  0  0  0  0  0  0  0  0
   -3.0538   -2.7186   -0.6556 H   0  0  0  0  0  0  0  0  0  0  0  0
   -1.3498   -2.2206    0.5184 C   0  0  0  0  0  0  0  0  0  0  0  0
   -0.4997   -2.9426    1.0194 O   0  0  0  0  0  0  0  0  0  0  0  0
   -1.1198   -0.9926    0.0674 N   0  0  0  0  0  0  0  0  0  0  0  0
   -1.8978   -0.4486   -0.2716 H   0  0  0  0  0  0  0  0  0  0  0  0
    0.1693   -0.2866    0.0854 C   0  0  1  0  0  0  0  0  0  0  0  0
    0.8226   -0.7170   -0.6755 H   0  0  0  0  0  0  0  0  0  0  0  0
   -0.0599    1.2012   -0.2581 C   0  0  0  0  0  0  0  0  0  0  0  0
   -0.8465    1.5931    0.3891 H   0  0  0  0  0  0  0  0  0  0  0  0
    0.8555    1.7570   -0.0435 H   0  0  0  0  0  0  0  0  0  0  0  0
   -0.4819    1.4622   -1.7125 C   0  0  0  0  0  0  0  0  0  0  0  0
   -0.0970    0.6650   -2.6002 O   0  5  0  0  0  0  0  0  0  0  0  0
   -1.1772    2.4783   -1.9279 O   0  0  0  0  0  0  0  0  0  0  0  0
    0.8458   -0.4706    1.4637 C   0  0  0  0  0  0  0  0  0  0  0  0
    0.4575   -1.3517    2.2398 O   0  0  0  0  0  0  0  0  0  0  0  0
    1.8639    0.3387    1.7724 N   0  0  0  0  0  0  0  0  0  0  0  0
    2.0531    1.0892    1.1053 H   0  0  0  0  0  0  0  0  0  0  0  0
    2.6045    0.3174    3.0293 C   0  0  0  0  0  0  0  0  0  0  0  0
    2.8395   -0.7127    3.3005 H   0  0  0  0  0  0  0  0  0  0  0  0
    3.5268    0.8872    2.9199 H   0  0  0  0  0  0  0  0  0  0  0  0
    1.9930    0.7628    3.8143 H   0  0  0  0  0  0  0  0  0  0  0  0
  5  6  2  0  0  0  0
  5  7  1  0  0  0  0
  2  3  1  0  0  0  0
  2  4  1  0  0  0  0
  2  5  1  0  0  0  0
  1  2  1  0  0  0  0
 17 18  2  0  0  0  0
 17 19  1  0  0  0  0
 14 15  1  0  0  0  0
 14 16  2  0  0  0  0
 11 12  1  0  0  0  0
 11 13  1  0  0  0  0
 11 14  1  0  0  0  0
  9 10  1  0  0  0  0
  9 11  1  0  0  0  0
  9 17  1  0  0  0  0
  7  8  1  0  0  0  0
  7  9  1  0  0  0  0
 21 22  1  0  0  0  0
 21 23  1  0  0  0  0
 21 24  1  0  0  0  0
 19 20  1  0  0  0  0
 19 21  1  0  0  0  0
M  CHG  1  15  -1
M  END
$$$$
default_name
  -OEChem-01062215323D

 24 23  0     1  0  0  0  0  0999 V2000
   -2.8347   -3.7166    0.8034 H   0  0  0  0  0  0  0  0  0  0  0  0
   -2.7728   -2.7096    0.3954 C   0  0  0  0  0  0  0  0  0  0  0  0
   -3.4267   -2.0426    0.9524 H   0  0  0  0  0  0  0  0  0  0  0  0
   -3.0538   -2.7186   -0.6556 H   0  0  0  0  0  0  0  0  0  0  0  0
   -1.3498   -2.2206    0.5184 C   0  0  0  0  0  0  0  0  0  0  0  0
   -0.4997   -2.9426    1.0194 O   0  0  0  0  0  0  0  0  0  0  0  0
   -1.1198   -0.9926    0.0674 N   0  0  0  0  0  0  0  0  0  0  0  0
   -1.8978   -0.4486   -0.2716 H   0  0  0  0  0  0  0  0  0  0  0  0
    0.1693   -0.2866    0.0854 C   0  0  1  0  0  0  0  0  0  0  0  0
    0.8226   -0.7170   -0.6755 H   0  0  0  0  0  0  0  0  0  0  0  0
   -0.0599    1.2012   -0.2581 C   0  0  0  0  0  0  0  0  0  0  0  0
   -0.8465    1.5931    0.3891 H   0  0  0  0  0  0  0  0  0  0  0  0
    0.8555    1.7570   -0.0435 H   0  0  0  0  0  0  0  0  0  0  0  0
   -0.4819    1.4622   -1.7125 C   0  0  0  0  0  0  0  0  0  0  0  0
   -0.0970    0.6650   -2.6002 O   0  5  0  0  0  0  0  0  0  0  0  0
   -1.1772    2.4783   -1.9279 O   0  0  0  0  0  0  0  0  0  0  0  0
    0.8458   -0.4706    1.4637 C   0  0  0  0  0  0  0  0  0  0  0  0
    0.6594   -1.5017    2.1206 O   0  0  0  0  0  0  0  0  0  0  0  0
    1.6423    0.5085    1.9038 N   0  0  0  0  0  0  0  0  0  0  0  0
    1.6636    1.3551    1.3320 H   0  0  0  0  0  0  0  0  0  0  0  0
    2.3455    0.5105    3.1822 C   0  0  0  0  0  0  0  0  0  0  0  0
    2.8087   -0.4628    3.3489 H   0  0  0  0  0  0  0  0  0  0  0  0
    3.1118    1.2852    3.1767 H   0  0  0  0  0  0  0  0  0  0  0  0
    1.6336    0.7093    3.9836 H   0  0  0  0  0  0  0  0  0  0  0  0
  5  6  2  0  0  0  0
  5  7  1  0  0  0  0
  2  3  1  0  0  0  0
  2  4  1  0  0  0  0
  2  5  1  0  0  0  0
  1  2  1  0  0  0  0
 17 18  2  0  0  0  0
 17 19  1  0  0  0  0
 14 15  1  0  0  0  0
 14 16  2  0  0  0  0
 11 12  1  0  0  0  0
 11 13  1  0  0  0  0
 11 14  1  0  0  0  0
  9 10  1  0  0  0  0
  9 11  1  0  0  0  0
  9 17  1  0  0  0  0
  7  8  1  0  0  0  0
  7  9  1  0  0  0  0
 21 22  1  0  0  0  0
 21 23  1  0  0  0  0
 21 24  1  0  0  0  0
 19 20  1  0  0  0  0
 19 21  1  0  0  0  0
M  CHG  1  15  -1
M  END
$$$$
default_name
  -OEChem-01062215323D

 24 23  0     1  0  0  0  0  0999 V2000
   -2.8347   -3.7166    0.8034 H   0  0  0  0  0  0  0  0  0  0  0  0
   -2.7728   -2.7096    0.3954 C   0  0  0  0  0  0  0  0  0  0  0  0
   -3.4267   -2.0426    0.9524 H   0  0  0  0  0  0  0  0  0  0  0  0
   -3.0538   -2.7186   -0.6556 H   0  0  0  0  0  0  0  0  0  0  0  0
   -1.3498   -2.2206    0.5184 C   0  0  0  0  0  0  0  0  0  0  0  0
   -0.4997   -2.9426    1.0194 O   0  0  0  0  0  0  0  0  0  0  0  0
   -1.1198   -0.9926    0.0674 N   0  0  0  0  0  0  0  0  0  0  0  0
   -1.8978   -0.4486   -0.2716 H   0  0  0  0  0  0  0  0  0  0  0  0
    0.1693   -0.2866    0.0854 C   0  0  1  0  0  0  0  0  0  0  0  0
    0.8226   -0.7170   -0.6755 H   0  0  0  0  0  0  0  0  0  0  0  0
   -0.0599    1.2012   -0.2581 C   0  0  0  0  0  0  0  0  0  0  0  0
   -0.8465    1.5931    0.3891 H   0  0  0  0  0  0  0  0  0  0  0  0
    0.8555    1.7570   -0.0435 H   0  0  0  0  0  0  0  0  0  0  0  0
   -0.4819    1.4622   -1.7125 C   0  0  0  0  0  0  0  0  0  0  0  0
   -0.0970    0.6650   -2.6002 O   0  5  0  0  0  0  0  0  0  0  0  0
   -1.1772    2.4783   -1.9279 O   0  0  0  0  0  0  0  0  0  0  0  0
    0.8458   -0.4706    1.4637 C   0  0  0  0  0  0  0  0  0  0  0  0
    0.8928   -1.5865    1.9948 O   0  0  0  0  0  0  0  0  0  0  0  0
    1.3851    0.6065    2.0432 N   0  0  0  0  0  0  0  0  0  0  0  0
    1.2189    1.4963    1.5691 H   0  0  0  0  0  0  0  0  0  0  0  0
    2.0460    0.6201    3.3438 C   0  0  0  0  0  0  0  0  0  0  0  0
    2.7198   -0.2340    3.4231 H   0  0  0  0  0  0  0  0  0  0  0  0
    2.6113    1.5448    3.4571 H   0  0  0  0  0  0  0  0  0  0  0  0
    1.2935    0.5556    4.1300 H   0  0  0  0  0  0  0  0  0  0  0  0
  5  6  2  0  0  0  0
  5  7  1  0  0  0  0
  2  3  1  0  0  0  0
  2  4  1  0  0  0  0
  2  5  1  0  0  0  0
  1  2  1  0  0  0  0
 17 18  2  0  0  0  0
 17 19  1  0  0  0  0
 14 15  1  0  0  0  0
 14 16  2  0  0  0  0
 11 12  1  0  0  0  0
 11 13  1  0  0  0  0
 11 14  1  0  0  0  0
  9 10  1  0  0  0  0
  9 11  1  0  0  0  0
  9 17  1  0  0  0  0
  7  8  1  0  0  0  0
  7  9  1  0  0  0  0
 21 22  1  0  0  0  0
 21 23  1  0  0  0  0
 21 24  1  0  0  0  0
 19 20  1  0  0  0  0
 19 21  1  0  0  0  0
M  CHG  1  15  -1
M  END
$$$$
default_name
  -OEChem-01062215323D

 24 23  0     1  0  0  0  0  0999 V2000
   -2.8347   -3.7166    0.8034 H   0  0  0  0  0  0  0  0  0  0  0  0
   -2.7728   -2.7096    0.3954 C   0  0  0  0  0  0  0  0  0  0  0  0
   -3.4267   -2.0426    0.9524 H   0  0  0  0  0  0  0  0  0  0  0  0
   -3.0538   -2.7186   -0.6556 H   0  0  0  0  0  0  0  0  0  0  0  0
   -1.3498   -2.2206    0.5184 C   0  0  0  0  0  0  0  0  0  0  0  0
   -0.4997   -2.9426    1.0194 O   0  0  0  0  0  0  0  0  0  0  0  0
   -1.1198   -0.9926    0.0674 N   0  0  0  0  0  0  0  0  0  0  0  0
   -1.8978   -0.4486   -0.2716 H   0  0  0  0  0  0  0  0  0  0  0  0
    0.1693   -0.2866    0.0854 C   0  0  1  0  0  0  0  0  0  0  0  0
    0.8226   -0.7170   -0.6755 H   0  0  0  0  0  0  0  0  0  0  0  0
   -0.0599    1.2012   -0.2581 C   0  0  0  0  0  0  0  0  0  0  0  0
   -0.8465    1.5931    0.3891 H   0  0  0  0  0  0  0  0  0  0  0  0
    0.8555    1.7570   -0.0435 H   0  0  0  0  0  0  0  0  0  0  0  0
   -0.4819    1.4622   -1.7125 C   0  0  0  0  0  0  0  0  0  0  0  0
   -0.0970    0.6650   -2.6002 O   0  5  0  0  0  0  0  0  0  0  0  0
   -1.1772    2.4783   -1.9279 O   0  0  0  0  0  0  0  0  0  0  0  0
    0.8458   -0.4706    1.4637 C   0  0  0  0  0  0  0  0  0  0  0  0
    1.1416   -1.6003    1.8708 O   0  0  0  0  0  0  0  0  0  0  0  0
    1.1097    0.6261    2.1810 N   0  0  0  0  0  0  0  0  0  0  0  0
    0.7496    1.5033    1.8005 H   0  0  0  0  0  0  0  0  0  0  0  0
    1.7265    0.6385    3.5031 C   0  0  0  0  0  0  0  0  0  0  0  0
    2.5789   -0.0419    3.5179 H   0  0  0  0  0  0  0  0  0  0  0  0
    2.0593    1.6483    3.7418 H   0  0  0  0  0  0  0  0  0  0  0  0
    0.9960    0.3120    4.2435 H   0  0  0  0  0  0  0  0  0  0  0  0
  5  6  2  0  0  0  0
  5  7  1  0  0  0  0
  2  3  1  0  0  0  0
  2  4  1  0  0  0  0
  2  5  1  0  0  0  0
  1  2  1  0  0  0  0
 17 18  2  0  0  0  0
 17 19  1  0  0  0  0
 14 15  1  0  0  0  0
 14 16  2  0  0  0  0
 11 12  1  0  0  0  0
 11 13  1  0  0  0  0
 11 14  1  0  0  0  0
  9 10  1  0  0  0  0
  9 11  1  0  0  0  0
  9 17  1  0  0  0  0
  7  8  1  0  0  0  0
  7  9  1  0  0  0  0
 21 22  1  0  0  0  0
 21 23  1  0  0  0  0
 21 24  1  0  0  0  0
 19 20  1  0  0  0  0
 19 21  1  0  0  0  0
M  CHG  1  15  -1
M  END
$$$$
default_name
  -OEChem-01062215323D

 24 23  0     1  0  0  0  0  0999 V2000
   -2.8347   -3.7166    0.8034 H   0  0  0  0  0  0  0  0  0  0  0  0
   -2.7728   -2.7096    0.3954 C   0  0  0  0  0  0  0  0  0  0  0  0
   -3.4267   -2.0426    0.9524 H   0  0  0  0  0  0  0  0  0  0  0  0
   -3.0538   -2.7186   -0.6556 H   0  0  0  0  0  0  0  0  0  0  0  0
   -1.3498   -2.2206    0.5184 C   0  0  0  0  0  0  0  0  0  0  0  0
   -0.4997   -2.9426    1.0194 O   0  0  0  0  0  0  0  0  0  0  0  0
   -1.1198   -0.9926    0.0674 N   0  0  0  0  0  0  0  0  0  0  0  0
   -1.8978   -0.4486   -0.2716 H   0  0  0  0  0  0  0  0  0  0  0  0
    0.1693   -0.2866    0.0854 C   0  0  1  0  0  0  0  0  0  0  0  0
    0.8226   -0.7170   -0.6755 H   0  0  0  0  0  0  0  0  0  0  0  0
   -0.0599    1.2012   -0.2581 C   0  0  0  0  0  0  0  0  0  0  0  0
   -0.8465    1.5931    0.3891 H   0  0  0  0  0  0  0  0  0  0  0  0
    0.8555    1.7570   -0.0435 H   0  0  0  0  0  0  0  0  0  0  0  0
   -0.4819    1.4622   -1.7125 C   0  0  0  0  0  0  0  0  0  0  0  0
   -0.0970    0.6650   -2.6002 O   0  5  0  0  0  0  0  0  0  0  0  0
   -1.1772    2.4783   -1.9279 O   0  0  0  0  0  0  0  0  0  0  0  0
    0.8458   -0.4706    1.4637 C   0  0  0  0  0  0  0  0  0  0  0  0
    1.3889   -1.5422    1.7571 O   0  0  0  0  0  0  0  0  0  0  0  0
    0.8350    0.5659    2.3078 N   0  0  0  0  0  0  0  0  0  0  0  0
    0.2875    1.3757    2.0102 H   0  0  0  0  0  0  0  0  0  0  0  0
    1.4088    0.5646    3.6492 C   0  0  0  0  0  0  0  0  0  0  0  0
    2.3956    0.1004    3.6269 H   0  0  0  0  0  0  0  0  0  0  0  0
    1.4934    1.5887    4.0116 H   0  0  0  0  0  0  0  0  0  0  0  0
    0.7613   -0.0047    4.3164 H   0  0  0  0  0  0  0  0  0  0  0  0
  5  6  2  0  0  0  0
  5  7  1  0  0  0  0
  2  3  1  0  0  0  0
  2  4  1  0  0  0  0
  2  5  1  0  0  0  0
  1  2  1  0  0  0  0
 17 18  2  0  0  0  0
 17 19  1  0  0  0  0
 14 15  1  0  0  0  0
 14 16  2  0  0  0  0
 11 12  1  0  0  0  0
 11 13  1  0  0  0  0
 11 14  1  0  0  0  0
  9 10  1  0  0  0  0
  9 11  1  0  0  0  0
  9 17  1  0  0  0  0
  7  8  1  0  0  0  0
  7  9  1  0  0  0  0
 21 22  1  0  0  0  0
 21 23  1  0  0  0  0
 21 24  1  0  0  0  0
 19 20  1  0  0  0  0
 19 21  1  0  0  0  0
M  CHG  1  15  -1
M  END
$$$$
default_name
  -OEChem-01062215323D

 24 23  0     1  0  0  0  0  0999 V2000
   -2.8347   -3.7166    0.8034 H   0  0  0  0  0  0  0  0  0  0  0  0
   -2.7728   -2.7096    0.3954 C   0  0  0  0  0  0  0  0  0  0  0  0
   -3.4267   -2.0426    0.9524 H   0  0  0  0  0  0  0  0  0  0  0  0
   -3.0538   -2.7186   -0.6556 H   0  0  0  0  0  0  0  0  0  0  0  0
   -1.3498   -2.2206    0.5184 C   0  0  0  0  0  0  0  0  0  0  0  0
   -0.4997   -2.9426    1.0194 O   0  0  0  0  0  0  0  0  0  0  0  0
   -1.1198   -0.9926    0.0674 N   0  0  0  0  0  0  0  0  0  0  0  0
   -1.8978   -0.4486   -0.2716 H   0  0  0  0  0  0  0  0  0  0  0  0
    0.1693   -0.2866    0.0854 C   0  0  1  0  0  0  0  0  0  0  0  0
    0.8226   -0.7170   -0.6755 H   0  0  0  0  0  0  0  0  0  0  0  0
   -0.0599    1.2012   -0.2581 C   0  0  0  0  0  0  0  0  0  0  0  0
   -0.8465    1.5931    0.3891 H   0  0  0  0  0  0  0  0  0  0  0  0
    0.8555    1.7570   -0.0435 H   0  0  0  0  0  0  0  0  0  0  0  0
   -0.4819    1.4622   -1.7125 C   0  0  0  0  0  0  0  0  0  0  0  0
   -0.0970    0.6650   -2.6002 O   0  5  0  0  0  0  0  0  0  0  0  0
   -1.1772    2.4783   -1.9279 O   0  0  0  0  0  0  0  0  0  0  0  0
    0.8458   -0.4706    1.4637 C   0  0  0  0  0  0  0  0  0  0  0  0
    1.6179   -1.4162    1.6615 O   0  0  0  0  0  0  0  0  0  0  0  0
    0.5796    0.4299    2.4150 N   0  0  0  0  0  0  0  0  0  0  0  0
   -0.1359    1.1220    2.1842 H   0  0  0  0  0  0  0  0  0  0  0  0
    1.1144    0.4033    3.7722 C   0  0  0  0  0  0  0  0  0  0  0  0
    2.1823    0.1832    3.7426 H   0  0  0  0  0  0  0  0  0  0  0  0
    0.9523    1.3701    4.2481 H   0  0  0  0  0  0  0  0  0  0  0  0
    0.6054   -0.3730    4.3438 H   0  0  0  0  0  0  0  0  0  0  0  0
  5  6  2  0  0  0  0
  5  7  1  0  0  0  0
  2  3  1  0  0  0  0
  2  4  1  0  0  0  0
  2  5  1  0  0  0  0
  1  2  1  0  0  0  0
 17 18  2  0  0  0  0
 17 19  1  0  0  0  0
 14 15  1  0  0  0  0
 14 16  2  0  0  0  0
 11 12  1  0  0  0  0
 11 13  1  0  0  0  0
 11 14  1  0  0  0  0
  9 10  1  0  0  0  0
  9 11  1  0  0  0  0
  9 17  1  0  0  0  0
  7  8  1  0  0  0  0
  7  9  1  0  0  0  0
 21 22  1  0  0  0  0
 21 23  1  0  0  0  0
 21 24  1  0  0  0  0
 19 20  1  0  0  0  0
 19 21  1  0  0  0  0
M  CHG  1  15  -1
M  END
$$$$
default_name
  -OEChem-01062215323D

 24 23  0     1  0  0  0  0  0999 V2000
   -2.8347   -3.7166    0.8034 H   0  0  0  0  0  0  0  0  0  0  0  0
   -2.7728   -2.7096    0.3954 C   0  0  0  0  0  0  0  0  0  0  0  0
   -3.4267   -2.0426    0.9524 H   0  0  0  0  0  0  0  0  0  0  0  0
   -3.0538   -2.7186   -0.6556 H   0  0  0  0  0  0  0  0  0  0  0  0
   -1.3498   -2.2206    0.5184 C   0  0  0  0  0  0  0  0  0  0  0  0
   -0.4997   -2.9426    1.0194 O   0  0  0  0  0  0  0  0  0  0  0  0
   -1.1198   -0.9926    0.0674 N   0  0  0  0  0  0  0  0  0  0  0  0
   -1.8978   -0.4486   -0.2716 H   0  0  0  0  0  0  0  0  0  0  0  0
    0.1693   -0.2866    0.0854 C   0  0  1  0  0  0  0  0  0  0  0  0
    0.8226   -0.7170   -0.6755 H   0  0  0  0  0  0  0  0  0  0  0  0
   -0.0599    1.2012   -0.2581 C   0  0  0  0  0  0  0  0  0  0  0  0
   -0.8465    1.5931    0.3891 H   0  0  0  0  0  0  0  0  0  0  0  0
    0.8555    1.7570   -0.0435 H   0  0  0  0  0  0  0  0  0  0  0  0
   -0.4819    1.4622   -1.7125 C   0  0  0  0  0  0  0  0  0  0  0  0
   -0.0970    0.6650   -2.6002 O   0  5  0  0  0  0  0  0  0  0  0  0
   -1.1772    2.4783   -1.9279 O   0  0  0  0  0  0  0  0  0  0  0  0
    0.8458   -0.4706    1.4637 C   0  0  0  0  0  0  0  0  0  0  0  0
    1.8130   -1.2307    1.5905 O   0  0  0  0  0  0  0  0  0  0  0  0
    0.3609    0.2276    2.4953 N   0  0  0  0  0  0  0  0  0  0  0  0
   -0.4916    0.7596    2.3105 H   0  0  0  0  0  0  0  0  0  0  0  0
    0.8635    0.1657    3.8637 C   0  0  0  0  0  0  0  0  0  0  0  0
    1.9537    0.2009    3.8572 H   0  0  0  0  0  0  0  0  0  0  0  0
    0.4728    1.0073    4.4350 H   0  0  0  0  0  0  0  0  0  0  0  0
    0.5389   -0.7679    4.3237 H   0  0  0  0  0  0  0  0  0  0  0  0
  5  6  2  0  0  0  0
  5  7  1  0  0  0  0
  2  3  1  0  0  0  0
  2  4  1  0  0  0  0
  2  5  1  0  0  0  0
  1  2  1  0  0  0  0
 17 18  2  0  0  0  0
 17 19  1  0  0  0  0
 14 15  1  0  0  0  0
 14 16  2  0  0  0  0
 11 12  1  0  0  0  0
 11 13  1  0  0  0  0
 11 14  1  0  0  0  0
  9 10  1  0  0  0  0
  9 11  1  0  0  0  0
  9 17  1  0  0  0  0
  7  8  1  0  0  0  0
  7  9  1  0  0  0  0
 21 22  1  0  0  0  0
 21 23  1  0  0  0  0
 21 24  1  0  0  0  0
 19 20  1  0  0  0  0
 19 21  1  0  0  0  0
M  CHG  1  15  -1
M  END
$$$$
default_name
  -OEChem-01062215323D

 24 23  0     1  0  0  0  0  0999 V2000
   -2.8347   -3.7166    0.8034 H   0  0  0  0  0  0  0  0  0  0  0  0
   -2.7728   -2.7096    0.3954 C   0  0  0  0  0  0  0  0  0  0  0  0
   -3.4267   -2.0426    0.9524 H   0  0  0  0  0  0  0  0  0  0  0  0
   -3.0538   -2.7186   -0.6556 H   0  0  0  0  0  0  0  0  0  0  0  0
   -1.3498   -2.2206    0.5184 C   0  0  0  0  0  0  0  0  0  0  0  0
   -0.4997   -2.9426    1.0194 O   0  0  0  0  0  0  0  0  0  0  0  0
   -1.1198   -0.9926    0.0674 N   0  0  0  0  0  0  0  0  0  0  0  0
   -1.8978   -0.4486   -0.2716 H   0  0  0  0  0  0  0  0  0  0  0  0
    0.1693   -0.2866    0.0854 C   0  0  1  0  0  0  0  0  0  0  0  0
    0.8226   -0.7170   -0.6755 H   0  0  0  0  0  0  0  0  0  0  0  0
   -0.0599    1.2012   -0.2581 C   0  0  0  0  0  0  0  0  0  0  0  0
   -0.8465    1.5931    0.3891 H   0  0  0  0  0  0  0  0  0  0  0  0
    0.8555    1.7570   -0.0435 H   0  0  0  0  0  0  0  0  0  0  0  0
   -0.4819    1.4622   -1.7125 C   0  0  0  0  0  0  0  0  0  0  0  0
   -0.0970    0.6650   -2.6002 O   0  5  0  0  0  0  0  0  0  0  0  0
   -1.1772    2.4783   -1.9279 O   0  0  0  0  0  0  0  0  0  0  0  0
    0.8458   -0.4706    1.4637 C   0  0  0  0  0  0  0  0  0  0  0  0
    1.9609   -0.9986    1.5489 O   0  0  0  0  0  0  0  0  0  0  0  0
    0.1939   -0.0274    2.5433 N   0  0  0  0  0  0  0  0  0  0  0  0
   -0.7555    0.3132    2.3804 H   0  0  0  0  0  0  0  0  0  0  0  0
    0.6731   -0.1321    3.9174 C   0  0  0  0  0  0  0  0  0  0  0  0
    1.7252    0.1523    3.9629 H   0  0  0  0  0  0  0  0  0  0  0  0
    0.0875    0.5250    4.5598 H   0  0  0  0  0  0  0  0  0  0  0  0
    0.5665   -1.1623    4.2576 H   0  0  0  0  0  0  0  0  0  0  0  0
  5  6  2  0  0  0  0
  5  7  1  0  0  0  0
  2  3  1  0  0  0  0
  2  4  1  0  0  0  0
  2  5  1  0  0  0  0
  1  2  1  0  0  0  0
 17 18  2  0  0  0  0
 17 19  1  0  0  0  0
 14 15  1  0  0  0  0
 14 16  2  0  0  0  0
 11 12  1  0  0  0  0
 11 13  1  0  0  0  0
 11 14  1  0  0  0  0
  9 10  1  0  0  0  0
  9 11  1  0  0  0  0
  9 17  1  0  0  0  0
  7  8  1  0  0  0  0
  7  9  1  0  0  0  0
 21 22  1  0  0  0  0
 21 23  1  0  0  0  0
 21 24  1  0  0  0  0
 19 20  1  0  0  0  0
 19 21  1  0  0  0  0
M  CHG  1  15  -1
M  END
$$$$
default_name
  -OEChem-01062215323D

 24 23  0     1  0  0  0  0  0999 V2000
   -2.8347   -3.7166    0.8034 H   0  0  0  0  0  0  0  0  0  0  0  0
   -2.7728   -2.7096    0.3954 C   0  0  0  0  0  0  0  0  0  0  0  0
   -3.4267   -2.0426    0.9524 H   0  0  0  0  0  0  0  0  0  0  0  0
   -3.0538   -2.7186   -0.6556 H   0  0  0  0  0  0  0  0  0  0  0  0
   -1.3498   -2.2206    0.5184 C   0  0  0  0  0  0  0  0  0  0  0  0
   -0.4997   -2.9426    1.0194 O   0  0  0  0  0  0  0  0  0  0  0  0
   -1.1198   -0.9926    0.0674 N   0  0  0  0  0  0  0  0  0  0  0  0
   -1.8978   -0.4486   -0.2716 H   0  0  0  0  0  0  0  0  0  0  0  0
    0.1693   -0.2866    0.0854 C   0  0  1  0  0  0  0  0  0  0  0  0
    0.8226   -0.7170   -0.6755 H   0  0  0  0  0  0  0  0  0  0  0  0
   -0.0599    1.2012   -0.2581 C   0  0  0  0  0  0  0  0  0  0  0  0
   -0.8465    1.5931    0.3891 H   0  0  0  0  0  0  0  0  0  0  0  0
    0.8555    1.7570   -0.0435 H   0  0  0  0  0  0  0  0  0  0  0  0
   -0.4819    1.4622   -1.7125 C   0  0  0  0  0  0  0  0  0  0  0  0
   -0.0970    0.6650   -2.6002 O   0  5  0  0  0  0  0  0  0  0  0  0
   -1.1772    2.4783   -1.9279 O   0  0  0  0  0  0  0  0  0  0  0  0
    0.8458   -0.4706    1.4637 C   0  0  0  0  0  0  0  0  0  0  0  0
    2.0514   -0.7356    1.5396 O   0  0  0  0  0  0  0  0  0  0  0  0
    0.0900   -0.3177    2.5556 N   0  0  0  0  0  0  0  0  0  0  0  0
   -0.9097   -0.1869    2.3894 H   0  0  0  0  0  0  0  0  0  0  0  0
    0.5562   -0.4697    3.9297 C   0  0  0  0  0  0  0  0  0  0  0  0
    1.5124    0.0406    4.0524 H   0  0  0  0  0  0  0  0  0  0  0  0
   -0.1772   -0.0438    4.6138 H   0  0  0  0  0  0  0  0  0  0  0  0
    0.6861   -1.5295    4.1499 H   0  0  0  0  0  0  0  0  0  0  0  0
  5  6  2  0  0  0  0
  5  7  1  0  0  0  0
  2  3  1  0  0  0  0
  2  4  1  0  0  0  0
  2  5  1  0  0  0  0
  1  2  1  0  0  0  0
 17 18  2  0  0  0  0
 17 19  1  0  0  0  0
 14 15  1  0  0  0  0
 14 16  2  0  0  0  0
 11 12  1  0  0  0  0
 11 13  1  0  0  0  0
 11 14  1  0  0  0  0
  9 10  1  0  0  0  0
  9 11  1  0  0  0  0
  9 17  1  0  0  0  0
  7  8  1  0  0  0  0
  7  9  1  0  0  0  0
 21 22  1  0  0  0  0
 21 23  1  0  0  0  0
 21 24  1  0  0  0  0
 19 20  1  0  0  0  0
 19 21  1  0  0  0  0
M  CHG  1  15  -1
M  END
$$$$
default_name
  -OEChem-01062215323D

 24 23  0     1  0  0  0  0  0999 V2000
   -2.8347   -3.7166    0.8034 H   0  0  0  0  0  0  0  0  0  0  0  0
   -2.7728   -2.7096    0.3954 C   0  0  0  0  0  0  0  0  0  0  0  0
   -3.4267   -2.0426    0.9524 H   0  0  0  0  0  0  0  0  0  0  0  0
   -3.0538   -2.7186   -0.6556 H   0  0  0  0  0  0  0  0  0  0  0  0
   -1.3498   -2.2206    0.5184 C   0  0  0  0  0  0  0  0  0  0  0  0
   -0.4997   -2.9426    1.0194 O   0  0  0  0  0  0  0  0  0  0  0  0
   -1.1198   -0.9926    0.0674 N   0  0  0  0  0  0  0  0  0  0  0  0
   -1.8978   -0.4486   -0.2716 H   0  0  0  0  0  0  0  0  0  0  0  0
    0.1693   -0.2866    0.0854 C   0  0  1  0  0  0  0  0  0  0  0  0
    0.8226   -0.7170   -0.6755 H   0  0  0  0  0  0  0  0  0  0  0  0
   -0.0599    1.2012   -0.2581 C   0  0  0  0  0  0  0  0  0  0  0  0
   -0.8465    1.5931    0.3891 H   0  0  0  0  0  0  0  0  0  0  0  0
    0.8555    1.7570   -0.0435 H   0  0  0  0  0  0  0  0  0  0  0  0
   -0.4819    1.4622   -1.7125 C   0  0  0  0  0  0  0  0  0  0  0  0
   -0.0970    0.6650   -2.6002 O   0  5  0  0  0  0  0  0  0  0  0  0
   -1.1772    2.4783   -1.9279 O   0  0  0  0  0  0  0  0  0  0  0  0
    0.8458   -0.4706    1.4637 C   0  0  0  0  0  0  0  0  0  0  0  0
    2.0785   -0.4596    1.5631 O   0  0  0  0  0  0  0  0  0  0  0  0
    0.0562   -0.6234    2.5314 N   0  0  0  0  0  0  0  0  0  0  0  0
   -0.9434   -0.7064    2.3366 H   0  0  0  0  0  0  0  0  0  0  0  0
    0.5209   -0.8242    3.8998 C   0  0  0  0  0  0  0  0  0  0  0  0
    1.3299   -0.1264    4.1197 H   0  0  0  0  0  0  0  0  0  0  0  0
   -0.3033   -0.6604    4.5935 H   0  0  0  0  0  0  0  0  0  0  0  0
    0.8897   -1.8443    4.0079 H   0  0  0  0  0  0  0  0  0  0  0  0
  5  6  2  0  0  0  0
  5  7  1  0  0  0  0
  2  3  1  0  0  0  0
  2  4  1  0  0  0  0
  2  5  1  0  0  0  0
  1  2  1  0  0  0  0
 17 18  2  0  0  0  0
 17 19  1  0  0  0  0
 14 15  1  0  0  0  0
 14 16  2  0  0  0  0
 11 12  1  0  0  0  0
 11 13  1  0  0  0  0
 11 14  1  0  0  0  0
  9 10  1  0  0  0  0
  9 11  1  0  0  0  0
  9 17  1  0  0  0  0
  7  8  1  0  0  0  0
  7  9  1  0  0  0  0
 21 22  1  0  0  0  0
 21 23  1  0  0  0  0
 21 24  1  0  0  0  0
 19 20  1  0  0  0  0
 19 21  1  0  0  0  0
M  CHG  1  15  -1
M  END
$$$$
default_name
  -OEChem-01062215323D

 24 23  0     1  0  0  0  0  0999 V2000
   -2.8347   -3.7166    0.8034 H   0  0  0  0  0  0  0  0  0  0  0  0
   -2.7728   -2.7096    0.3954 C   0  0  0  0  0  0  0  0  0  0  0  0
   -3.4267   -2.0426    0.9524 H   0  0  0  0  0  0  0  0  0  0  0  0
   -3.0538   -2.7186   -0.6556 H   0  0  0  0  0  0  0  0  0  0  0  0
   -1.3498   -2.2206    0.5184 C   0  0  0  0  0  0  0  0  0  0  0  0
   -0.4997   -2.9426    1.0194 O   0  0  0  0  0  0  0  0  0  0  0  0
   -1.1198   -0.9926    0.0674 N   0  0  0  0  0  0  0  0  0  0  0  0
   -1.8978   -0.4486   -0.2716 H   0  0  0  0  0  0  0  0  0  0  0  0
    0.1693   -0.2866    0.0854 C   0  0  1  0  0  0  0  0  0  0  0  0
    0.8226   -0.7170   -0.6755 H   0  0  0  0  0  0  0  0  0  0  0  0
   -0.0599    1.2012   -0.2581 C   0  0  0  0  0  0  0  0  0  0  0  0
   -0.8465    1.5931    0.3891 H   0  0  0  0  0  0  0  0  0  0  0  0
    0.8555    1.7570   -0.0435 H   0  0  0  0  0  0  0  0  0  0  0  0
   -0.4819    1.4622   -1.7125 C   0  0  0  0  0  0  0  0  0  0  0  0
   -0.0970    0.6650   -2.6002 O   0  5  0  0  0  0  0  0  0  0  0  0
   -1.1772    2.4783   -1.9279 O   0  0  0  0  0  0  0  0  0  0  0  0
    0.8458   -0.4706    1.4637 C   0  0  0  0  0  0  0  0  0  0  0  0
    2.0402   -0.1894    1.6179 O   0  0  0  0  0  0  0  0  0  0  0  0
    0.0948   -0.9238    2.4723 N   0  0  0  0  0  0  0  0  0  0  0  0
   -0.8546   -1.2101    2.2258 H   0  0  0  0  0  0  0  0  0  0  0  0
    0.5694   -1.1713    3.8296 C   0  0  0  0  0  0  0  0  0  0  0  0
    1.1901   -0.3375    4.1601 H   0  0  0  0  0  0  0  0  0  0  0  0
   -0.2823   -1.2827    4.5001 H   0  0  0  0  0  0  0  0  0  0  0  0
    1.1633   -2.0854    3.8414 H   0  0  0  0  0  0  0  0  0  0  0  0
  5  6  2  0  0  0  0
  5  7  1  0  0  0  0
  2  3  1  0  0  0  0
  2  4  1  0  0  0  0
  2  5  1  0  0  0  0
  1  2  1  0  0  0  0
 17 18  2  0  0  0  0
 17 19  1  0  0  0  0
 14 15  1  0  0  0  0
 14 16  2  0  0  0  0
 11 12  1  0  0  0  0
 11 13  1  0  0  0  0
 11 14  1  0  0  0  0
  9 10  1  0  0  0  0
  9 11  1  0  0  0  0
  9 17  1  0  0  0  0
  7  8  1  0  0  0  0
  7  9  1  0  0  0  0
 21 22  1  0  0  0  0
 21 23  1  0  0  0  0
 21 24  1  0  0  0  0
 19 20  1  0  0  0  0
 19 21  1  0  0  0  0
M  CHG  1  15  -1
M  END
$$$$
default_name
  -OEChem-01062215323D

 24 23  0     1  0  0  0  0  0999 V2000
   -2.8347   -3.7166    0.8034 H   0  0  0  0  0  0  0  0  0  0  0  0
   -2.7728   -2.7096    0.3954 C   0  0  0  0  0  0  0  0  0  0  0  0
   -3.4267   -2.0426    0.9524 H   0  0  0  0  0  0  0  0  0  0  0  0
   -3.0538   -2.7186   -0.6556 H   0  0  0  0  0  0  0  0  0  0  0  0
   -1.3498   -2.2206    0.5184 C   0  0  0  0  0  0  0  0  0  0  0  0
   -0.4997   -2.9426    1.0194 O   0  0  0  0  0  0  0  0  0  0  0  0
   -1.1198   -0.9926    0.0674 N   0  0  0  0  0  0  0  0  0  0  0  0
   -1.8978   -0.4486   -0.2716 H   0  0  0  0  0  0  0  0  0  0  0  0
    0.1693   -0.2866    0.0854 C   0  0  1  0  0  0  0  0  0  0  0  0
    0.8226   -0.7170   -0.6755 H   0  0  0  0  0  0  0  0  0  0  0  0
   -0.0599    1.2012   -0.2581 C   0  0  0  0  0  0  0  0  0  0  0  0
   -0.8465    1.5931    0.3891 H   0  0  0  0  0  0  0  0  0  0  0  0
    0.8555    1.7570   -0.0435 H   0  0  0  0  0  0  0  0  0  0  0  0
   -0.4819    1.4622   -1.7125 C   0  0  0  0  0  0  0  0  0  0  0  0
   -0.0970    0.6650   -2.6002 O   0  5  0  0  0  0  0  0  0  0  0  0
   -1.1772    2.4783   -1.9279 O   0  0  0  0  0  0  0  0  0  0  0  0
    0.8458   -0.4706    1.4637 C   0  0  0  0  0  0  0  0  0  0  0  0
    1.9392    0.0566    1.7003 O   0  0  0  0  0  0  0  0  0  0  0  0
    0.2032   -1.1983    2.3825 N   0  0  0  0  0  0  0  0  0  0  0  0
   -0.6492   -1.6635    2.0644 H   0  0  0  0  0  0  0  0  0  0  0  0
    0.6985   -1.4875    3.7240 C   0  0  0  0  0  0  0  0  0  0  0  0
    1.1025   -0.5782    4.1710 H   0  0  0  0  0  0  0  0  0  0  0  0
   -0.1156   -1.8685    4.3401 H   0  0  0  0  0  0  0  0  0  0  0  0
    1.4883   -2.2364    3.6617 H   0  0  0  0  0  0  0  0  0  0  0  0
  5  6  2  0  0  0  0
  5  7  1  0  0  0  0
  2  3  1  0  0  0  0
  2  4  1  0  0  0  0
  2  5  1  0  0  0  0
  1  2  1  0  0  0  0
 17 18  2  0  0  0  0
 17 19  1  0  0  0  0
 14 15  1  0  0  0  0
 14 16  2  0  0  0  0
 11 12  1  0  0  0  0
 11 13  1  0  0  0  0
 11 14  1  0  0  0  0
  9 10  1  0  0  0  0
  9 11  1  0  0  0  0
  9 17  1  0  0  0  0
  7  8  1  0  0  0  0
  7  9  1  0  0  0  0
 21 22  1  0  0  0  0
 21 23  1  0  0  0  0
 21 24  1  0  0  0  0
 19 20  1  0  0  0  0
 19 21  1  0  0  0  0
M  CHG  1  15  -1
M  END
$$$$
default_name
  -OEChem-01062215323D

 24 23  0     1  0  0  0  0  0999 V2000
   -2.8347   -3.7166    0.8034 H   0  0  0  0  0  0  0  0  0  0  0  0
   -2.7728   -2.7096    0.3954 C   0  0  0  0  0  0  0  0  0  0  0  0
   -3.4267   -2.0426    0.9524 H   0  0  0  0  0  0  0  0  0  0  0  0
   -3.0538   -2.7186   -0.6556 H   0  0  0  0  0  0  0  0  0  0  0  0
   -1.3498   -2.2206    0.5184 C   0  0  0  0  0  0  0  0  0  0  0  0
   -0.4997   -2.9426    1.0194 O   0  0  0  0  0  0  0  0  0  0  0  0
   -1.1198   -0.9926    0.0674 N   0  0  0  0  0  0  0  0  0  0  0  0
   -1.8978   -0.4486   -0.2716 H   0  0  0  0  0  0  0  0  0  0  0  0
    0.1693   -0.2866    0.0854 C   0  0  1  0  0  0  0  0  0  0  0  0
    0.8226   -0.7170   -0.6755 H   0  0  0  0  0  0  0  0  0  0  0  0
   -0.0599    1.2012   -0.2581 C   0  0  0  0  0  0  0  0  0  0  0  0
   -0.8465    1.5931    0.3891 H   0  0  0  0  0  0  0  0  0  0  0  0
    0.8555    1.7570   -0.0435 H   0  0  0  0  0  0  0  0  0  0  0  0
   -0.4819    1.4622   -1.7125 C   0  0  0  0  0  0  0  0  0  0  0  0
   -0.0970    0.6650   -2.6002 O   0  5  0  0  0  0  0  0  0  0  0  0
   -1.1772    2.4783   -1.9279 O   0  0  0  0  0  0  0  0  0  0  0  0
    0.8458   -0.4706    1.4637 C   0  0  0  0  0  0  0  0  0  0  0  0
    1.7824    0.2615    1.8047 O   0  0  0  0  0  0  0  0  0  0  0  0
    0.3740   -1.4283    2.2679 N   0  0  0  0  0  0  0  0  0  0  0  0
   -0.3412   -2.0358    1.8636 H   0  0  0  0  0  0  0  0  0  0  0  0
    0.8994   -1.7512    3.5902 C   0  0  0  0  0  0  0  0  0  0  0  0
    1.0731   -0.8322    4.1516 H   0  0  0  0  0  0  0  0  0  0  0  0
    0.1856   -2.3777    4.1243 H   0  0  0  0  0  0  0  0  0  0  0  0
    1.8427   -2.2868    3.4811 H   0  0  0  0  0  0  0  0  0  0  0  0
  5  6  2  0  0  0  0
  5  7  1  0  0  0  0
  2  3  1  0  0  0  0
  2  4  1  0  0  0  0
  2  5  1  0  0  0  0
  1  2  1  0  0  0  0
 17 18  2  0  0  0  0
 17 19  1  0  0  0  0
 14 15  1  0  0  0  0
 14 16  2  0  0  0  0
 11 12  1  0  0  0  0
 11 13  1  0  0  0  0
 11 14  1  0  0  0  0
  9 10  1  0  0  0  0
  9 11  1  0  0  0  0
  9 17  1  0  0  0  0
  7  8  1  0  0  0  0
  7  9  1  0  0  0  0
 21 22  1  0  0  0  0
 21 23  1  0  0  0  0
 21 24  1  0  0  0  0
 19 20  1  0  0  0  0
 19 21  1  0  0  0  0
M  CHG  1  15  -1
M  END
$$$$
default_name
  -OEChem-01062215323D

 24 23  0     1  0  0  0  0  0999 V2000
   -2.8347   -3.7166    0.8034 H   0  0  0  0  0  0  0  0  0  0  0  0
   -2.7728   -2.7096    0.3954 C   0  0  0  0  0  0  0  0  0  0  0  0
   -3.4267   -2.0426    0.9524 H   0  0  0  0  0  0  0  0  0  0  0  0
   -3.0538   -2.7186   -0.6556 H   0  0  0  0  0  0  0  0  0  0  0  0
   -1.3498   -2.2206    0.5184 C   0  0  0  0  0  0  0  0  0  0  0  0
   -0.4997   -2.9426    1.0194 O   0  0  0  0  0  0  0  0  0  0  0  0
   -1.1198   -0.9926    0.0674 N   0  0  0  0  0  0  0  0  0  0  0  0
   -1.8978   -0.4486   -0.2716 H   0  0  0  0  0  0  0  0  0  0  0  0
    0.1693   -0.2866    0.0854 C   0  0  1  0  0  0  0  0  0  0  0  0
    0.8226   -0.7170   -0.6755 H   0  0  0  0  0  0  0  0  0  0  0  0
   -0.0599    1.2012   -0.2581 C   0  0  0  0  0  0  0  0  0  0  0  0
   -0.8465    1.5931    0.3891 H   0  0  0  0  0  0  0  0  0  0  0  0
    0.8555    1.7570   -0.0435 H   0  0  0  0  0  0  0  0  0  0  0  0
   -0.4819    1.4622   -1.7125 C   0  0  0  0  0  0  0  0  0  0  0  0
   -0.0970    0.6650   -2.6002 O   0  5  0  0  0  0  0  0  0  0  0  0
   -1.1772    2.4783   -1.9279 O   0  0  0  0  0  0  0  0  0  0  0  0
    0.8458   -0.4706    1.4637 C   0  0  0  0  0  0  0  0  0  0  0  0
    1.5805    0.4115    1.9238 O   0  0  0  0  0  0  0  0  0  0  0  0
    0.5956   -1.5981    2.1365 N   0  0  0  0  0  0  0  0  0  0  0  0
    0.0484   -2.3017    1.6369 H   0  0  0  0  0  0  0  0  0  0  0  0
    1.1584   -1.9444    3.4373 C   0  0  0  0  0  0  0  0  0  0  0  0
    1.1039   -1.0821    4.1031 H   0  0  0  0  0  0  0  0  0  0  0  0
    0.6005   -2.7757    3.8675 H   0  0  0  0  0  0  0  0  0  0  0  0
    2.2021   -2.2333    3.3118 H   0  0  0  0  0  0  0  0  0  0  0  0
  5  6  2  0  0  0  0
  5  7  1  0  0  0  0
  2  3  1  0  0  0  0
  2  4  1  0  0  0  0
  2  5  1  0  0  0  0
  1  2  1  0  0  0  0
 17 18  2  0  0  0  0
 17 19  1  0  0  0  0
 14 15  1  0  0  0  0
 14 16  2  0  0  0  0
 11 12  1  0  0  0  0
 11 13  1  0  0  0  0
 11 14  1  0  0  0  0
  9 10  1  0  0  0  0
  9 11  1  0  0  0  0
  9 17  1  0  0  0  0
  7  8  1  0  0  0  0
  7  9  1  0  0  0  0
 21 22  1  0  0  0  0
 21 23  1  0  0  0  0
 21 24  1  0  0  0  0
 19 20  1  0  0  0  0
 19 21  1  0  0  0  0
M  CHG  1  15  -1
M  END
$$$$
default_name
  -OEChem-01062215323D

 24 23  0     1  0  0  0  0  0999 V2000
   -2.8347   -3.7166    0.8034 H   0  0  0  0  0  0  0  0  0  0  0  0
   -2.7728   -2.7096    0.3954 C   0  0  0  0  0  0  0  0  0  0  0  0
   -3.4267   -2.0426    0.9524 H   0  0  0  0  0  0  0  0  0  0  0  0
   -3.0538   -2.7186   -0.6556 H   0  0  0  0  0  0  0  0  0  0  0  0
   -1.3498   -2.2206    0.5184 C   0  0  0  0  0  0  0  0  0  0  0  0
   -0.4997   -2.9426    1.0194 O   0  0  0  0  0  0  0  0  0  0  0  0
   -1.1198   -0.9926    0.0674 N   0  0  0  0  0  0  0  0  0  0  0  0
   -1.8978   -0.4486   -0.2716 H   0  0  0  0  0  0  0  0  0  0  0  0
    0.1693   -0.2866    0.0854 C   0  0  1  0  0  0  0  0  0  0  0  0
    0.8226   -0.7170   -0.6755 H   0  0  0  0  0  0  0  0  0  0  0  0
   -0.0599    1.2012   -0.2581 C   0  0  0  0  0  0  0  0  0  0  0  0
   -0.8465    1.5931    0.3891 H   0  0  0  0  0  0  0  0  0  0  0  0
    0.8555    1.7570   -0.0435 H   0  0  0  0  0  0  0  0  0  0  0  0
   -0.4819    1.4622   -1.7125 C   0  0  0  0  0  0  0  0  0  0  0  0
   -0.0970    0.6650   -2.6002 O   0  5  0  0  0  0  0  0  0  0  0  0
   -1.1772    2.4783   -1.9279 O   0  0  0  0  0  0  0  0  0  0  0  0
    0.8458   -0.4706    1.4637 C   0  0  0  0  0  0  0  0  0  0  0  0
    1.3471    0.4963    2.0497 O   0  0  0  0  0  0  0  0  0  0  0  0
    0.8528   -1.6962    1.9972 N   0  0  0  0  0  0  0  0  0  0  0  0
    0.4930   -2.4430    1.3998 H   0  0  0  0  0  0  0  0  0  0  0  0
    1.4579   -2.0539    3.2757 C   0  0  0  0  0  0  0  0  0  0  0  0
    1.1927   -1.3109    4.0290 H   0  0  0  0  0  0  0  0  0  0  0  0
    1.1011   -3.0353    3.5872 H   0  0  0  0  0  0  0  0  0  0  0  0
    2.5422   -2.0796    3.1654 H   0  0  0  0  0  0  0  0  0  0  0  0
  5  6  2  0  0  0  0
  5  7  1  0  0  0  0
  2  3  1  0  0  0  0
  2  4  1  0  0  0  0
  2  5  1  0  0  0  0
  1  2  1  0  0  0  0
 17 18  2  0  0  0  0
 17 19  1  0  0  0  0
 14 15  1  0  0  0  0
 14 16  2  0  0  0  0
 11 12  1  0  0  0  0
 11 13  1  0  0  0  0
 11 14  1  0  0  0  0
  9 10  1  0  0  0  0
  9 11  1  0  0  0  0
  9 17  1  0  0  0  0
  7  8  1  0  0  0  0
  7  9  1  0  0  0  0
 21 22  1  0  0  0  0
 21 23  1  0  0  0  0
 21 24  1  0  0  0  0
 19 20  1  0  0  0  0
 19 21  1  0  0  0  0
M  CHG  1  15  -1
M  END
$$$$
default_name
  -OEChem-01062215323D

 24 23  0     1  0  0  0  0  0999 V2000
   -2.8347   -3.7166    0.8034 H   0  0  0  0  0  0  0  0  0  0  0  0
   -2.7728   -2.7096    0.3954 C   0  0  0  0  0  0  0  0  0  0  0  0
   -3.4267   -2.0426    0.9524 H   0  0  0  0  0  0  0  0  0  0  0  0
   -3.0538   -2.7186   -0.6556 H   0  0  0  0  0  0  0  0  0  0  0  0
   -1.3498   -2.2206    0.5184 C   0  0  0  0  0  0  0  0  0  0  0  0
   -0.4997   -2.9426    1.0194 O   0  0  0  0  0  0  0  0  0  0  0  0
   -1.1198   -0.9926    0.0674 N   0  0  0  0  0  0  0  0  0  0  0  0
   -1.8978   -0.4486   -0.2716 H   0  0  0  0  0  0  0  0  0  0  0  0
    0.1693   -0.2866    0.0854 C   0  0  1  0  0  0  0  0  0  0  0  0
    0.8226   -0.7170   -0.6755 H   0  0  0  0  0  0  0  0  0  0  0  0
   -0.0599    1.2012   -0.2581 C   0  0  0  0  0  0  0  0  0  0  0  0
   -0.8465    1.5931    0.3891 H   0  0  0  0  0  0  0  0  0  0  0  0
    0.8555    1.7570   -0.0435 H   0  0  0  0  0  0  0  0  0  0  0  0
   -0.4819    1.4622   -1.7125 C   0  0  0  0  0  0  0  0  0  0  0  0
   -0.0970    0.6650   -2.6002 O   0  5  0  0  0  0  0  0  0  0  0  0
   -1.1772    2.4783   -1.9279 O   0  0  0  0  0  0  0  0  0  0  0  0
    0.8458   -0.4706    1.4637 C   0  0  0  0  0  0  0  0  0  0  0  0
    1.0983    0.5101    2.1736 O   0  0  0  0  0  0  0  0  0  0  0  0
    1.1282   -1.7157    1.8594 N   0  0  0  0  0  0  0  0  0  0  0  0
    0.9624   -2.4500    1.1685 H   0  0  0  0  0  0  0  0  0  0  0  0
    1.7774   -2.0723    3.1164 C   0  0  0  0  0  0  0  0  0  0  0  0
    1.3336   -1.5030    3.9342 H   0  0  0  0  0  0  0  0  0  0  0  0
    1.6531   -3.1388    3.3024 H   0  0  0  0  0  0  0  0  0  0  0  0
    2.8397   -1.8360    3.0518 H   0  0  0  0  0  0  0  0  0  0  0  0
  5  6  2  0  0  0  0
  5  7  1  0  0  0  0
  2  3  1  0  0  0  0
  2  4  1  0  0  0  0
  2  5  1  0  0  0  0
  1  2  1  0  0  0  0
 17 18  2  0  0  0  0
 17 19  1  0  0  0  0
 14 15  1  0  0  0  0
 14 16  2  0  0  0  0
 11 12  1  0  0  0  0
 11 13  1  0  0  0  0
 11 14  1  0  0  0  0
  9 10  1  0  0  0  0
  9 11  1  0  0  0  0
  9 17  1  0  0  0  0
  7  8  1  0  0  0  0
  7  9  1  0  0  0  0
 21 22  1  0  0  0  0
 21 23  1  0  0  0  0
 21 24  1  0  0  0  0
 19 20  1  0  0  0  0
 19 21  1  0  0  0  0
M  CHG  1  15  -1
M  END
$$$$
default_name
  -OEChem-01062215323D

 24 23  0     1  0  0  0  0  0999 V2000
   -2.8347   -3.7166    0.8034 H   0  0  0  0  0  0  0  0  0  0  0  0
   -2.7728   -2.7096    0.3954 C   0  0  0  0  0  0  0  0  0  0  0  0
   -3.4267   -2.0426    0.9524 H   0  0  0  0  0  0  0  0  0  0  0  0
   -3.0538   -2.7186   -0.6556 H   0  0  0  0  0  0  0  0  0  0  0  0
   -1.3498   -2.2206    0.5184 C   0  0  0  0  0  0  0  0  0  0  0  0
   -0.4997   -2.9426    1.0194 O   0  0  0  0  0  0  0  0  0  0  0  0
   -1.1198   -0.9926    0.0674 N   0  0  0  0  0  0  0  0  0  0  0  0
   -1.8978   -0.4486   -0.2716 H   0  0  0  0  0  0  0  0  0  0  0  0
    0.1693   -0.2866    0.0854 C   0  0  1  0  0  0  0  0  0  0  0  0
    0.8226   -0.7170   -0.6755 H   0  0  0  0  0  0  0  0  0  0  0  0
   -0.0599    1.2012   -0.2581 C   0  0  0  0  0  0  0  0  0  0  0  0
   -0.8465    1.5931    0.3891 H   0  0  0  0  0  0  0  0  0  0  0  0
    0.8555    1.7570   -0.0435 H   0  0  0  0  0  0  0  0  0  0  0  0
   -0.4819    1.4622   -1.7125 C   0  0  0  0  0  0  0  0  0  0  0  0
   -0.0970    0.6650   -2.6002 O   0  5  0  0  0  0  0  0  0  0  0  0
   -1.1772    2.4783   -1.9279 O   0  0  0  0  0  0  0  0  0  0  0  0
    0.8458   -0.4706    1.4637 C   0  0  0  0  0  0  0  0  0  0  0  0
    0.8510    0.4520    2.2873 O   0  0  0  0  0  0  0  0  0  0  0  0
    1.4029   -1.6555    1.7326 N   0  0  0  0  0  0  0  0  0  0  0  0
    1.4245   -2.3223    0.9587 H   0  0  0  0  0  0  0  0  0  0  0  0
    2.0951   -1.9984    2.9703 C   0  0  0  0  0  0  0  0  0  0  0  0
    1.5170   -1.6453    3.8252 H   0  0  0  0  0  0  0  0  0  0  0  0
    2.2189   -3.0792    3.0326 H   0  0  0  0  0  0  0  0  0  0  0  0
    3.0744   -1.5193    2.9789 H   0  0  0  0  0  0  0  0  0  0  0  0
  5  6  2  0  0  0  0
  5  7  1  0  0  0  0
  2  3  1  0  0  0  0
  2  4  1  0  0  0  0
  2  5  1  0  0  0  0
  1  2  1  0  0  0  0
 17 18  2  0  0  0  0
 17 19  1  0  0  0  0
 14 15  1  0  0  0  0
 14 16  2  0  0  0  0
 11 12  1  0  0  0  0
 11 13  1  0  0  0  0
 11 14  1  0  0  0  0
  9 10  1  0  0  0  0
  9 11  1  0  0  0  0
  9 17  1  0  0  0  0
  7  8  1  0  0  0  0
  7  9  1  0  0  0  0
 21 22  1  0  0  0  0
 21 23  1  0  0  0  0
 21 24  1  0  0  0  0
 19 20  1  0  0  0  0
 19 21  1  0  0  0  0
M  CHG  1  15  -1
M  END
$$$$
default_name
  -OEChem-01062215323D

 24 23  0     1  0  0  0  0  0999 V2000
   -2.8347   -3.7166    0.8034 H   0  0  0  0  0  0  0  0  0  0  0  0
   -2.7728   -2.7096    0.3954 C   0  0  0  0  0  0  0  0  0  0  0  0
   -3.4267   -2.0426    0.9524 H   0  0  0  0  0  0  0  0  0  0  0  0
   -3.0538   -2.7186   -0.6556 H   0  0  0  0  0  0  0  0  0  0  0  0
   -1.3498   -2.2206    0.5184 C   0  0  0  0  0  0  0  0  0  0  0  0
   -0.4997   -2.9426    1.0194 O   0  0  0  0  0  0  0  0  0  0  0  0
   -1.1198   -0.9926    0.0674 N   0  0  0  0  0  0  0  0  0  0  0  0
   -1.8978   -0.4486   -0.2716 H   0  0  0  0  0  0  0  0  0  0  0  0
    0.1693   -0.2866    0.0854 C   0  0  1  0  0  0  0  0  0  0  0  0
    0.8226   -0.7170   -0.6755 H   0  0  0  0  0  0  0  0  0  0  0  0
   -0.0599    1.2012   -0.2581 C   0  0  0  0  0  0  0  0  0  0  0  0
   -0.8465    1.5931    0.3891 H   0  0  0  0  0  0  0  0  0  0  0  0
    0.8555    1.7570   -0.0435 H   0  0  0  0  0  0  0  0  0  0  0  0
   -0.4819    1.4622   -1.7125 C   0  0  0  0  0  0  0  0  0  0  0  0
   -0.0970    0.6650   -2.6002 O   0  5  0  0  0  0  0  0  0  0  0  0
   -1.1772    2.4783   -1.9279 O   0  0  0  0  0  0  0  0  0  0  0  0
    0.8458   -0.4706    1.4637 C   0  0  0  0  0  0  0  0  0  0  0  0
    0.6220    0.3260    2.3829 O   0  0  0  0  0  0  0  0  0  0  0  0
    1.6583   -1.5196    1.6253 N   0  0  0  0  0  0  0  0  0  0  0  0
    1.8478   -2.0686    0.7847 H   0  0  0  0  0  0  0  0  0  0  0  0
    2.3895   -1.8371    2.8473 C   0  0  0  0  0  0  0  0  0  0  0  0
    1.7302   -1.7281    3.7094 H   0  0  0  0  0  0  0  0  0  0  0  0
    2.7601   -2.8606    2.7962 H   0  0  0  0  0  0  0  0  0  0  0  0
    3.2303   -1.1510    2.9515 H   0  0  0  0  0  0  0  0  0  0  0  0
  5  6  2  0  0  0  0
  5  7  1  0  0  0  0
  2  3  1  0  0  0  0
  2  4  1  0  0  0  0
  2  5  1  0  0  0  0
  1  2  1  0  0  0  0
 17 18  2  0  0  0  0
 17 19  1  0  0  0  0
 14 15  1  0  0  0  0
 14 16  2  0  0  0  0
 11 12  1  0  0  0  0
 11 13  1  0  0  0  0
 11 14  1  0  0  0  0
  9 10  1  0  0  0  0
  9 11  1  0  0  0  0
  9 17  1  0  0  0  0
  7  8  1  0  0  0  0
  7  9  1  0  0  0  0
 21 22  1  0  0  0  0
 21 23  1  0  0  0  0
 21 24  1  0  0  0  0
 19 20  1  0  0  0  0
 19 21  1  0  0  0  0
M  CHG  1  15  -1
M  END
$$$$
default_name
  -OEChem-01062215323D

 24 23  0     1  0  0  0  0  0999 V2000
   -2.8347   -3.7166    0.8034 H   0  0  0  0  0  0  0  0  0  0  0  0
   -2.7728   -2.7096    0.3954 C   0  0  0  0  0  0  0  0  0  0  0  0
   -3.4267   -2.0426    0.9524 H   0  0  0  0  0  0  0  0  0  0  0  0
   -3.0538   -2.7186   -0.6556 H   0  0  0  0  0  0  0  0  0  0  0  0
   -1.3498   -2.2206    0.5184 C   0  0  0  0  0  0  0  0  0  0  0  0
   -0.4997   -2.9426    1.0194 O   0  0  0  0  0  0  0  0  0  0  0  0
   -1.1198   -0.9926    0.0674 N   0  0  0  0  0  0  0  0  0  0  0  0
   -1.8978   -0.4486   -0.2716 H   0  0  0  0  0  0  0  0  0  0  0  0
    0.1693   -0.2866    0.0854 C   0  0  1  0  0  0  0  0  0  0  0  0
    0.8226   -0.7170   -0.6755 H   0  0  0  0  0  0  0  0  0  0  0  0
   -0.0599    1.2012   -0.2581 C   0  0  0  0  0  0  0  0  0  0  0  0
   -0.8465    1.5931    0.3891 H   0  0  0  0  0  0  0  0  0  0  0  0
    0.8555    1.7570   -0.0435 H   0  0  0  0  0  0  0  0  0  0  0  0
   -0.4819    1.4622   -1.7125 C   0  0  0  0  0  0  0  0  0  0  0  0
   -0.0970    0.6650   -2.6002 O   0  5  0  0  0  0  0  0  0  0  0  0
   -1.1772    2.4783   -1.9279 O   0  0  0  0  0  0  0  0  0  0  0  0
    0.8458   -0.4706    1.4637 C   0  0  0  0  0  0  0  0  0  0  0  0
    0.4269    0.1406    2.4539 O   0  0  0  0  0  0  0  0  0  0  0  0
    1.8770   -1.3172    1.5450 N   0  0  0  0  0  0  0  0  0  0  0  0
    2.2036   -1.7062    0.6584 H   0  0  0  0  0  0  0  0  0  0  0  0
    2.6405   -1.5995    2.7559 C   0  0  0  0  0  0  0  0  0  0  0  0
    1.9589   -1.7458    3.5948 H   0  0  0  0  0  0  0  0  0  0  0  0
    3.2396   -2.4978    2.6092 H   0  0  0  0  0  0  0  0  0  0  0  0
    3.2967   -0.7561    2.9716 H   0  0  0  0  0  0  0  0  0  0  0  0
  5  6  2  0  0  0  0
  5  7  1  0  0  0  0
  2  3  1  0  0  0  0
  2  4  1  0  0  0  0
  2  5  1  0  0  0  0
  1  2  1  0  0  0  0
 17 18  2  0  0  0  0
 17 19  1  0  0  0  0
 14 15  1  0  0  0  0
 14 16  2  0  0  0  0
 11 12  1  0  0  0  0
 11 13  1  0  0  0  0
 11 14  1  0  0  0  0
  9 10  1  0  0  0  0
  9 11  1  0  0  0  0
  9 17  1  0  0  0  0
  7  8  1  0  0  0  0
  7  9  1  0  0  0  0
 21 22  1  0  0  0  0
 21 23  1  0  0  0  0
 21 24  1  0  0  0  0
 19 20  1  0  0  0  0
 19 21  1  0  0  0  0
M  CHG  1  15  -1
M  END
$$$$
default_name
  -OEChem-01062215323D

 24 23  0     1  0  0  0  0  0999 V2000
   -2.8347   -3.7166    0.8034 H   0  0  0  0  0  0  0  0  0  0  0  0
   -2.7728   -2.7096    0.3954 C   0  0  0  0  0  0  0  0  0  0  0  0
   -3.4267   -2.0426    0.9524 H   0  0  0  0  0  0  0  0  0  0  0  0
   -3.0538   -2.7186   -0.6556 H   0  0  0  0  0  0  0  0  0  0  0  0
   -1.3498   -2.2206    0.5184 C   0  0  0  0  0  0  0  0  0  0  0  0
   -0.4997   -2.9426    1.0194 O   0  0  0  0  0  0  0  0  0  0  0  0
   -1.1198   -0.9926    0.0674 N   0  0  0  0  0  0  0  0  0  0  0  0
   -1.8978   -0.4486   -0.2716 H   0  0  0  0  0  0  0  0  0  0  0  0
    0.1693   -0.2866    0.0854 C   0  0  1  0  0  0  0  0  0  0  0  0
    0.8226   -0.7170   -0.6755 H   0  0  0  0  0  0  0  0  0  0  0  0
   -0.0599    1.2012   -0.2581 C   0  0  0  0  0  0  0  0  0  0  0  0
   -0.8465    1.5931    0.3891 H   0  0  0  0  0  0  0  0  0  0  0  0
    0.8555    1.7570   -0.0435 H   0  0  0  0  0  0  0  0  0  0  0  0
   -0.4819    1.4622   -1.7125 C   0  0  0  0  0  0  0  0  0  0  0  0
   -0.0970    0.6650   -2.6002 O   0  5  0  0  0  0  0  0  0  0  0  0
   -1.1772    2.4783   -1.9279 O   0  0  0  0  0  0  0  0  0  0  0  0
    0.8458   -0.4706    1.4637 C   0  0  0  0  0  0  0  0  0  0  0  0
    0.2790   -0.0916    2.4955 O   0  0  0  0  0  0  0  0  0  0  0  0
    2.0440   -1.0622    1.4971 N   0  0  0  0  0  0  0  0  0  0  0  0
    2.4675   -1.2598    0.5885 H   0  0  0  0  0  0  0  0  0  0  0  0
    2.8308   -1.3017    2.7021 C   0  0  0  0  0  0  0  0  0  0  0  0
    2.1874   -1.6972    3.4892 H   0  0  0  0  0  0  0  0  0  0  0  0
    3.6249   -2.0155    2.4844 H   0  0  0  0  0  0  0  0  0  0  0  0
    3.2692   -0.3617    3.0378 H   0  0  0  0  0  0  0  0  0  0  0  0
  5  6  2  0  0  0  0
  5  7  1  0  0  0  0
  2  3  1  0  0  0  0
  2  4  1  0  0  0  0
  2  5  1  0  0  0  0
  1  2  1  0  0  0  0
 17 18  2  0  0  0  0
 17 19  1  0  0  0  0
 14 15  1  0  0  0  0
 14 16  2  0  0  0  0
 11 12  1  0  0  0  0
 11 13  1  0  0  0  0
 11 14  1  0  0  0  0
  9 10  1  0  0  0  0
  9 11  1  0  0  0  0
  9 17  1  0  0  0  0
  7  8  1  0  0  0  0
  7  9  1  0  0  0  0
 21 22  1  0  0  0  0
 21 23  1  0  0  0  0
 21 24  1  0  0  0  0
 19 20  1  0  0  0  0
 19 21  1  0  0  0  0
M  CHG  1  15  -1
M  END
$$$$
default_name
  -OEChem-01062215323D

 24 23  0     1  0  0  0  0  0999 V2000
   -2.8347   -3.7166    0.8034 H   0  0  0  0  0  0  0  0  0  0  0  0
   -2.7728   -2.7096    0.3954 C   0  0  0  0  0  0  0  0  0  0  0  0
   -3.4267   -2.0426    0.9524 H   0  0  0  0  0  0  0  0  0  0  0  0
   -3.0538   -2.7186   -0.6556 H   0  0  0  0  0  0  0  0  0  0  0  0
   -1.3498   -2.2206    0.5184 C   0  0  0  0  0  0  0  0  0  0  0  0
   -0.4997   -2.9426    1.0194 O   0  0  0  0  0  0  0  0  0  0  0  0
   -1.1198   -0.9926    0.0674 N   0  0  0  0  0  0  0  0  0  0  0  0
   -1.8978   -0.4486   -0.2716 H   0  0  0  0  0  0  0  0  0  0  0  0
    0.1693   -0.2866    0.0854 C   0  0  1  0  0  0  0  0  0  0  0  0
    0.8226   -0.7170   -0.6755 H   0  0  0  0  0  0  0  0  0  0  0  0
   -0.0599    1.2012   -0.2581 C   0  0  0  0  0  0  0  0  0  0  0  0
   -0.8465    1.5931    0.3891 H   0  0  0  0  0  0  0  0  0  0  0  0
    0.8555    1.7570   -0.0435 H   0  0  0  0  0  0  0  0  0  0  0  0
   -0.4819    1.4622   -1.7125 C   0  0  0  0  0  0  0  0  0  0  0  0
   -0.0970    0.6650   -2.6002 O   0  5  0  0  0  0  0  0  0  0  0  0
   -1.1772    2.4783   -1.9279 O   0  0  0  0  0  0  0  0  0  0  0  0
    0.8458   -0.4706    1.4637 C   0  0  0  0  0  0  0  0  0  0  0  0
    0.1885   -0.3546    2.5048 O   0  0  0  0  0  0  0  0  0  0  0  0
    2.1479   -0.7720    1.4848 N   0  0  0  0  0  0  0  0  0  0  0  0
    2.6216   -0.7598    0.5795 H   0  0  0  0  0  0  0  0  0  0  0  0
    2.9477   -0.9641    2.6898 C   0  0  0  0  0  0  0  0  0  0  0  0
    2.4001   -1.5856    3.3996 H   0  0  0  0  0  0  0  0  0  0  0  0
    3.8896   -1.4467    2.4304 H   0  0  0  0  0  0  0  0  0  0  0  0
    3.1496    0.0055    3.1455 H   0  0  0  0  0  0  0  0  0  0  0  0
  5  6  2  0  0  0  0
  5  7  1  0  0  0  0
  2  3  1  0  0  0  0
  2  4  1  0  0  0  0
  2  5  1  0  0  0  0
  1  2  1  0  0  0  0
 17 18  2  0  0  0  0
 17 19  1  0  0  0  0
 14 15  1  0  0  0  0
 14 16  2  0  0  0  0
 11 12  1  0  0  0  0
 11 13  1  0  0  0  0
 11 14  1  0  0  0  0
  9 10  1  0  0  0  0
  9 11  1  0  0  0  0
  9 17  1  0  0  0  0
  7  8  1  0  0  0  0
  7  9  1  0  0  0  0
 21 22  1  0  0  0  0
 21 23  1  0  0  0  0
 21 24  1  0  0  0  0
 19 20  1  0  0  0  0
 19 21  1  0  0  0  0
M  CHG  1  15  -1
M  END
$$$$
default_name
  -OEChem-01062215323D

 24 23  0     1  0  0  0  0  0999 V2000
   -2.8347   -3.7166    0.8034 H   0  0  0  0  0  0  0  0  0  0  0  0
   -2.7728   -2.7096    0.3954 C   0  0  0  0  0  0  0  0  0  0  0  0
   -3.4267   -2.0426    0.9524 H   0  0  0  0  0  0  0  0  0  0  0  0
   -3.0538   -2.7186   -0.6556 H   0  0  0  0  0  0  0  0  0  0  0  0
   -1.3498   -2.2206    0.5184 C   0  0  0  0  0  0  0  0  0  0  0  0
   -0.4997   -2.9426    1.0194 O   0  0  0  0  0  0  0  0  0  0  0  0
   -1.1198   -0.9926    0.0674 N   0  0  0  0  0  0  0  0  0  0  0  0
   -1.8978   -0.4486   -0.2716 H   0  0  0  0  0  0  0  0  0  0  0  0
    0.1693   -0.2866    0.0854 C   0  0  1  0  0  0  0  0  0  0  0  0
    0.8226   -0.7170   -0.6755 H   0  0  0  0  0  0  0  0  0  0  0  0
   -0.0599    1.2012   -0.2581 C   0  0  0  0  0  0  0  0  0  0  0  0
   -0.8465    1.5931    0.3891 H   0  0  0  0  0  0  0  0  0  0  0  0
    0.8555    1.7570   -0.0435 H   0  0  0  0  0  0  0  0  0  0  0  0
   -0.4819    1.4622   -1.7125 C   0  0  0  0  0  0  0  0  0  0  0  0
   -0.0970    0.6650   -2.6002 O   0  5  0  0  0  0  0  0  0  0  0  0
   -1.1772    2.4783   -1.9279 O   0  0  0  0  0  0  0  0  0  0  0  0
    0.8458   -0.4706    1.4637 C   0  0  0  0  0  0  0  0  0  0  0  0
    0.1614   -0.6306    2.4813 O   0  0  0  0  0  0  0  0  0  0  0  0
    2.1817   -0.4662    1.5090 N   0  0  0  0  0  0  0  0  0  0  0  0
    2.6554   -0.2402    0.6323 H   0  0  0  0  0  0  0  0  0  0  0  0
    2.9831   -0.6097    2.7198 C   0  0  0  0  0  0  0  0  0  0  0  0
    2.5826   -1.4185    3.3324 H   0  0  0  0  0  0  0  0  0  0  0  0
    4.0157   -0.8301    2.4508 H   0  0  0  0  0  0  0  0  0  0  0  0
    2.9460    0.3203    3.2874 H   0  0  0  0  0  0  0  0  0  0  0  0
  5  6  2  0  0  0  0
  5  7  1  0  0  0  0
  2  3  1  0  0  0  0
  2  4  1  0  0  0  0
  2  5  1  0  0  0  0
  1  2  1  0  0  0  0
 17 18  2  0  0  0  0
 17 19  1  0  0  0  0
 14 15  1  0  0  0  0
 14 16  2  0  0  0  0
 11 12  1  0  0  0  0
 11 13  1  0  0  0  0
 11 14  1  0  0  0  0
  9 10  1  0  0  0  0
  9 11  1  0  0  0  0
  9 17  1  0  0  0  0
  7  8  1  0  0  0  0
  7  9  1  0  0  0  0
 21 22  1  0  0  0  0
 21 23  1  0  0  0  0
 21 24  1  0  0  0  0
 19 20  1  0  0  0  0
 19 21  1  0  0  0  0
M  CHG  1  15  -1
M  END
$$$$
default_name
  -OEChem-01062215323D

 24 23  0     1  0  0  0  0  0999 V2000
   -2.8347   -3.7166    0.8034 H   0  0  0  0  0  0  0  0  0  0  0  0
   -2.7728   -2.7096    0.3954 C   0  0  0  0  0  0  0  0  0  0  0  0
   -3.4267   -2.0426    0.9524 H   0  0  0  0  0  0  0  0  0  0  0  0
   -3.0538   -2.7186   -0.6556 H   0  0  0  0  0  0  0  0  0  0  0  0
   -1.3498   -2.2206    0.5184 C   0  0  0  0  0  0  0  0  0  0  0  0
   -0.4997   -2.9426    1.0194 O   0  0  0  0  0  0  0  0  0  0  0  0
   -1.1198   -0.9926    0.0674 N   0  0  0  0  0  0  0  0  0  0  0  0
   -1.8978   -0.4486   -0.2716 H   0  0  0  0  0  0  0  0  0  0  0  0
    0.1693   -0.2866    0.0854 C   0  0  1  0  0  0  0  0  0  0  0  0
    0.8226   -0.7170   -0.6755 H   0  0  0  0  0  0  0  0  0  0  0  0
   -0.0599    1.2012   -0.2581 C   0  0  0  0  0  0  0  0  0  0  0  0
   -0.8465    1.5931    0.3891 H   0  0  0  0  0  0  0  0  0  0  0  0
    0.8555    1.7570   -0.0435 H   0  0  0  0  0  0  0  0  0  0  0  0
   -0.4819    1.4622   -1.7125 C   0  0  0  0  0  0  0  0  0  0  0  0
   -0.0970    0.6650   -2.6002 O   0  5  0  0  0  0  0  0  0  0  0  0
   -1.1772    2.4783   -1.9279 O   0  0  0  0  0  0  0  0  0  0  0  0
    0.8458   -0.4706    1.4637 C   0  0  0  0  0  0  0  0  0  0  0  0
    0.1997   -0.9008    2.4265 O   0  0  0  0  0  0  0  0  0  0  0  0
    2.1431   -0.1658    1.5680 N   0  0  0  0  0  0  0  0  0  0  0  0
    2.5666    0.2634    0.7431 H   0  0  0  0  0  0  0  0  0  0  0  0
    2.9345   -0.2625    2.7899 C   0  0  0  0  0  0  0  0  0  0  0  0
    2.7225   -1.2074    3.2919 H   0  0  0  0  0  0  0  0  0  0  0  0
    3.9947   -0.2077    2.5441 H   0  0  0  0  0  0  0  0  0  0  0  0
    2.6724    0.5614    3.4539 H   0  0  0  0  0  0  0  0  0  0  0  0
  5  6  2  0  0  0  0
  5  7  1  0  0  0  0
  2  3  1  0  0  0  0
  2  4  1  0  0  0  0
  2  5  1  0  0  0  0
  1  2  1  0  0  0  0
 17 18  2  0  0  0  0
 17 19  1  0  0  0  0
 14 15  1  0  0  0  0
 14 16  2  0  0  0  0
 11 12  1  0  0  0  0
 11 13  1  0  0  0  0
 11 14  1  0  0  0  0
  9 10  1  0  0  0  0
  9 11  1  0  0  0  0
  9 17  1  0  0  0  0
  7  8  1  0  0  0  0
  7  9  1  0  0  0  0
 21 22  1  0  0  0  0
 21 23  1  0  0  0  0
 21 24  1  0  0  0  0
 19 20  1  0  0  0  0
 19 21  1  0  0  0  0
M  CHG  1  15  -1
M  END
$$$$
default_name
  -OEChem-01062215323D

 24 23  0     1  0  0  0  0  0999 V2000
   -2.8347   -3.7166    0.8034 H   0  0  0  0  0  0  0  0  0  0  0  0
   -2.7728   -2.7096    0.3954 C   0  0  0  0  0  0  0  0  0  0  0  0
   -3.4267   -2.0426    0.9524 H   0  0  0  0  0  0  0  0  0  0  0  0
   -3.0538   -2.7186   -0.6556 H   0  0  0  0  0  0  0  0  0  0  0  0
   -1.3498   -2.2206    0.5184 C   0  0  0  0  0  0  0  0  0  0  0  0
   -0.4997   -2.9426    1.0194 O   0  0  0  0  0  0  0  0  0  0  0  0
   -1.1198   -0.9926    0.0674 N   0  0  0  0  0  0  0  0  0  0  0  0
   -1.8978   -0.4486   -0.2716 H   0  0  0  0  0  0  0  0  0  0  0  0
    0.1693   -0.2866    0.0854 C   0  0  1  0  0  0  0  0  0  0  0  0
    0.7178   -0.5217   -0.8284 H   0  0  0  0  0  0  0  0  0  0  0  0
   -0.0843    1.2361    0.1200 C   0  0  0  0  0  0  0  0  0  0  0  0
   -0.7796    1.4571    0.9317 H   0  0  0  0  0  0  0  0  0  0  0  0
    0.8569    1.7447    0.3401 H   0  0  0  0  0  0  0  0  0  0  0  0
   -0.6814    1.8127   -1.1732 C   0  0  0  0  0  0  0  0  0  0  0  0
   -0.4191    1.2445   -2.2595 O   0  5  0  0  0  0  0  0  0  0  0  0
   -1.3867    2.8388   -1.0642 O   0  0  0  0  0  0  0  0  0  0  0  0
    1.0103   -0.7664    1.2911 C   0  0  0  0  0  0  0  0  0  0  0  0
    0.5716   -1.6341    2.0554 O   0  0  0  0  0  0  0  0  0  0  0  0
    2.2205   -0.2256    1.4629 N   0  0  0  0  0  0  0  0  0  0  0  0
    2.4572    0.5432    0.8328 H   0  0  0  0  0  0  0  0  0  0  0  0
    3.1389   -0.5463    2.5503 C   0  0  0  0  0  0  0  0  0  0  0  0
    3.1801   -1.6273    2.6903 H   0  0  0  0  0  0  0  0  0  0  0  0
    4.1331   -0.1692    2.3124 H   0  0  0  0  0  0  0  0  0  0  0  0
    2.7838   -0.0803    3.4697 H   0  0  0  0  0  0  0  0  0  0  0  0
  5  6  2  0  0  0  0
  5  7  1  0  0  0  0
  2  3  1  0  0  0  0
  2  4  1  0  0  0  0
  2  5  1  0  0  0  0
  1  2  1  0  0  0  0
 17 18  2  0  0  0  0
 17 19  1  0  0  0  0
 14 15  1  0  0  0  0
 14 16  2  0  0  0  0
 11 12  1  0  0  0  0
 11 13  1  0  0  0  0
 11 14  1  0  0  0  0
  9 10  1  0  0  0  0
  9 11  1  0  0  0  0
  9 17  1  0  0  0  0
  7  8  1  0  0  0  0
  7  9  1  0  0  0  0
 21 22  1  0  0  0  0
 21 23  1  0  0  0  0
 21 24  1  0  0  0  0
 19 20  1  0  0  0  0
 19 21  1  0  0  0  0
M  CHG  1  15  -1
M  END
$$$$
default_name
  -OEChem-01062215323D

 24 23  0     1  0  0  0  0  0999 V2000
   -2.8347   -3.7166    0.8034 H   0  0  0  0  0  0  0  0  0  0  0  0
   -2.7728   -2.7096    0.3954 C   0  0  0  0  0  0  0  0  0  0  0  0
   -3.4267   -2.0426    0.9524 H   0  0  0  0  0  0  0  0  0  0  0  0
   -3.0538   -2.7186   -0.6556 H   0  0  0  0  0  0  0  0  0  0  0  0
   -1.3498   -2.2206    0.5184 C   0  0  0  0  0  0  0  0  0  0  0  0
   -0.4997   -2.9426    1.0194 O   0  0  0  0  0  0  0  0  0  0  0  0
   -1.1198   -0.9926    0.0674 N   0  0  0  0  0  0  0  0  0  0  0  0
   -1.8978   -0.4486   -0.2716 H   0  0  0  0  0  0  0  0  0  0  0  0
    0.1693   -0.2866    0.0854 C   0  0  1  0  0  0  0  0  0  0  0  0
    0.7178   -0.5217   -0.8284 H   0  0  0  0  0  0  0  0  0  0  0  0
   -0.0843    1.2361    0.1200 C   0  0  0  0  0  0  0  0  0  0  0  0
   -0.7796    1.4571    0.9317 H   0  0  0  0  0  0  0  0  0  0  0  0
    0.8569    1.7447    0.3401 H   0  0  0  0  0  0  0  0  0  0  0  0
   -0.6814    1.8127   -1.1732 C   0  0  0  0  0  0  0  0  0  0  0  0
   -0.4191    1.2445   -2.2595 O   0  5  0  0  0  0  0  0  0  0  0  0
   -1.3867    2.8388   -1.0642 O   0  0  0  0  0  0  0  0  0  0  0  0
    1.0103   -0.7664    1.2911 C   0  0  0  0  0  0  0  0  0  0  0  0
    0.7119   -1.8073    1.8887 O   0  0  0  0  0  0  0  0  0  0  0  0
    2.0679   -0.0306    1.6469 N   0  0  0  0  0  0  0  0  0  0  0  0
    2.1809    0.8549    1.1496 H   0  0  0  0  0  0  0  0  0  0  0  0
    2.9592   -0.3234    2.7644 C   0  0  0  0  0  0  0  0  0  0  0  0
    3.2146   -1.3839    2.7631 H   0  0  0  0  0  0  0  0  0  0  0  0
    3.8670    0.2725    2.6738 H   0  0  0  0  0  0  0  0  0  0  0  0
    2.4553   -0.0784    3.6996 H   0  0  0  0  0  0  0  0  0  0  0  0
  5  6  2  0  0  0  0
  5  7  1  0  0  0  0
  2  3  1  0  0  0  0
  2  4  1  0  0  0  0
  2  5  1  0  0  0  0
  1  2  1  0  0  0  0
 17 18  2  0  0  0  0
 17 19  1  0  0  0  0
 14 15  1  0  0  0  0
 14 16  2  0  0  0  0
 11 12  1  0  0  0  0
 11 13  1  0  0  0  0
 11 14  1  0  0  0  0
  9 10  1  0  0  0  0
  9 11  1  0  0  0  0
  9 17  1  0  0  0  0
  7  8  1  0  0  0  0
  7  9  1  0  0  0  0
 21 22  1  0  0  0  0
 21 23  1  0  0  0  0
 21 24  1  0  0  0  0
 19 20  1  0  0  0  0
 19 21  1  0  0  0  0
M  CHG  1  15  -1
M  END
$$$$
default_name
  -OEChem-01062215323D

 24 23  0     1  0  0  0  0  0999 V2000
   -2.8347   -3.7166    0.8034 H   0  0  0  0  0  0  0  0  0  0  0  0
   -2.7728   -2.7096    0.3954 C   0  0  0  0  0  0  0  0  0  0  0  0
   -3.4267   -2.0426    0.9524 H   0  0  0  0  0  0  0  0  0  0  0  0
   -3.0538   -2.7186   -0.6556 H   0  0  0  0  0  0  0  0  0  0  0  0
   -1.3498   -2.2206    0.5184 C   0  0  0  0  0  0  0  0  0  0  0  0
   -0.4997   -2.9426    1.0194 O   0  0  0  0  0  0  0  0  0  0  0  0
   -1.1198   -0.9926    0.0674 N   0  0  0  0  0  0  0  0  0  0  0  0
   -1.8978   -0.4486   -0.2716 H   0  0  0  0  0  0  0  0  0  0  0  0
    0.1693   -0.2866    0.0854 C   0  0  1  0  0  0  0  0  0  0  0  0
    0.7178   -0.5217   -0.8284 H   0  0  0  0  0  0  0  0  0  0  0  0
   -0.0843    1.2361    0.1200 C   0  0  0  0  0  0  0  0  0  0  0  0
   -0.7796    1.4571    0.9317 H   0  0  0  0  0  0  0  0  0  0  0  0
    0.8569    1.7447    0.3401 H   0  0  0  0  0  0  0  0  0  0  0  0
   -0.6814    1.8127   -1.1732 C   0  0  0  0  0  0  0  0  0  0  0  0
   -0.4191    1.2445   -2.2595 O   0  5  0  0  0  0  0  0  0  0  0  0
   -1.3867    2.8388   -1.0642 O   0  0  0  0  0  0  0  0  0  0  0  0
    1.0103   -0.7664    1.2911 C   0  0  0  0  0  0  0  0  0  0  0  0
    0.8957   -1.9228    1.7145 O   0  0  0  0  0  0  0  0  0  0  0  0
    1.8664    0.1011    1.8399 N   0  0  0  0  0  0  0  0  0  0  0  0
    1.8256    1.0555    1.4773 H   0  0  0  0  0  0  0  0  0  0  0  0
    2.7234   -0.1745    2.9881 C   0  0  0  0  0  0  0  0  0  0  0  0
    3.1929   -1.1521    2.8705 H   0  0  0  0  0  0  0  0  0  0  0  0
    3.4917    0.5945    3.0637 H   0  0  0  0  0  0  0  0  0  0  0  0
    2.1192   -0.1752    3.8955 H   0  0  0  0  0  0  0  0  0  0  0  0
  5  6  2  0  0  0  0
  5  7  1  0  0  0  0
  2  3  1  0  0  0  0
  2  4  1  0  0  0  0
  2  5  1  0  0  0  0
  1  2  1  0  0  0  0
 17 18  2  0  0  0  0
 17 19  1  0  0  0  0
 14 15  1  0  0  0  0
 14 16  2  0  0  0  0
 11 12  1  0  0  0  0
 11 13  1  0  0  0  0
 11 14  1  0  0  0  0
  9 10  1  0  0  0  0
  9 11  1  0  0  0  0
  9 17  1  0  0  0  0
  7  8  1  0  0  0  0
  7  9  1  0  0  0  0
 21 22  1  0  0  0  0
 21 23  1  0  0  0  0
 21 24  1  0  0  0  0
 19 20  1  0  0  0  0
 19 21  1  0  0  0  0
M  CHG  1  15  -1
M  END
$$$$
default_name
  -OEChem-01062215323D

 24 23  0     1  0  0  0  0  0999 V2000
   -2.8347   -3.7166    0.8034 H   0  0  0  0  0  0  0  0  0  0  0  0
   -2.7728   -2.7096    0.3954 C   0  0  0  0  0  0  0  0  0  0  0  0
   -3.4267   -2.0426    0.9524 H   0  0  0  0  0  0  0  0  0  0  0  0
   -3.0538   -2.7186   -0.6556 H   0  0  0  0  0  0  0  0  0  0  0  0
   -1.3498   -2.2206    0.5184 C   0  0  0  0  0  0  0  0  0  0  0  0
   -0.4997   -2.9426    1.0194 O   0  0  0  0  0  0  0  0  0  0  0  0
   -1.1198   -0.9926    0.0674 N   0  0  0  0  0  0  0  0  0  0  0  0
   -1.8978   -0.4486   -0.2716 H   0  0  0  0  0  0  0  0  0  0  0  0
    0.1693   -0.2866    0.0854 C   0  0  1  0  0  0  0  0  0  0  0  0
    0.7178   -0.5217   -0.8284 H   0  0  0  0  0  0  0  0  0  0  0  0
   -0.0843    1.2361    0.1200 C   0  0  0  0  0  0  0  0  0  0  0  0
   -0.7796    1.4571    0.9317 H   0  0  0  0  0  0  0  0  0  0  0  0
    0.8569    1.7447    0.3401 H   0  0  0  0  0  0  0  0  0  0  0  0
   -0.6814    1.8127   -1.1732 C   0  0  0  0  0  0  0  0  0  0  0  0
   -0.4191    1.2445   -2.2595 O   0  5  0  0  0  0  0  0  0  0  0  0
   -1.3867    2.8388   -1.0642 O   0  0  0  0  0  0  0  0  0  0  0  0
    1.0103   -0.7664    1.2911 C   0  0  0  0  0  0  0  0  0  0  0  0
    1.1106   -1.9727    1.5447 O   0  0  0  0  0  0  0  0  0  0  0  0
    1.6296    0.1604    2.0287 N   0  0  0  0  0  0  0  0  0  0  0  0
    1.4156    1.1315    1.7935 H   0  0  0  0  0  0  0  0  0  0  0  0
    2.4477   -0.1097    3.2062 C   0  0  0  0  0  0  0  0  0  0  0  0
    3.1165   -0.9476    3.0052 H   0  0  0  0  0  0  0  0  0  0  0  0
    3.0330    0.7749    3.4556 H   0  0  0  0  0  0  0  0  0  0  0  0
    1.7984   -0.3640    4.0441 H   0  0  0  0  0  0  0  0  0  0  0  0
  5  6  2  0  0  0  0
  5  7  1  0  0  0  0
  2  3  1  0  0  0  0
  2  4  1  0  0  0  0
  2  5  1  0  0  0  0
  1  2  1  0  0  0  0
 17 18  2  0  0  0  0
 17 19  1  0  0  0  0
 14 15  1  0  0  0  0
 14 16  2  0  0  0  0
 11 12  1  0  0  0  0
 11 13  1  0  0  0  0
 11 14  1  0  0  0  0
  9 10  1  0  0  0  0
  9 11  1  0  0  0  0
  9 17  1  0  0  0  0
  7  8  1  0  0  0  0
  7  9  1  0  0  0  0
 21 22  1  0  0  0  0
 21 23  1  0  0  0  0
 21 24  1  0  0  0  0
 19 20  1  0  0  0  0
 19 21  1  0  0  0  0
M  CHG  1  15  -1
M  END
$$$$
default_name
  -OEChem-01062215323D

 24 23  0     1  0  0  0  0  0999 V2000
   -2.8347   -3.7166    0.8034 H   0  0  0  0  0  0  0  0  0  0  0  0
   -2.7728   -2.7096    0.3954 C   0  0  0  0  0  0  0  0  0  0  0  0
   -3.4267   -2.0426    0.9524 H   0  0  0  0  0  0  0  0  0  0  0  0
   -3.0538   -2.7186   -0.6556 H   0  0  0  0  0  0  0  0  0  0  0  0
   -1.3498   -2.2206    0.5184 C   0  0  0  0  0  0  0  0  0  0  0  0
   -0.4997   -2.9426    1.0194 O   0  0  0  0  0  0  0  0  0  0  0  0
   -1.1198   -0.9926    0.0674 N   0  0  0  0  0  0  0  0  0  0  0  0
   -1.8978   -0.4486   -0.2716 H   0  0  0  0  0  0  0  0  0  0  0  0
    0.1693   -0.2866    0.0854 C   0  0  1  0  0  0  0  0  0  0  0  0
    0.7178   -0.5217   -0.8284 H   0  0  0  0  0  0  0  0  0  0  0  0
   -0.0843    1.2361    0.1200 C   0  0  0  0  0  0  0  0  0  0  0  0
   -0.7796    1.4571    0.9317 H   0  0  0  0  0  0  0  0  0  0  0  0
    0.8569    1.7447    0.3401 H   0  0  0  0  0  0  0  0  0  0  0  0
   -0.6814    1.8127   -1.1732 C   0  0  0  0  0  0  0  0  0  0  0  0
   -0.4191    1.2445   -2.2595 O   0  5  0  0  0  0  0  0  0  0  0  0
   -1.3867    2.8388   -1.0642 O   0  0  0  0  0  0  0  0  0  0  0  0
    1.0103   -0.7664    1.2911 C   0  0  0  0  0  0  0  0  0  0  0  0
    1.3418   -1.9537    1.3910 O   0  0  0  0  0  0  0  0  0  0  0  0
    1.3738    0.1434    2.2003 N   0  0  0  0  0  0  0  0  0  0  0  0
    0.9789    1.0777    2.0767 H   0  0  0  0  0  0  0  0  0  0  0  0
    2.1508   -0.1335    3.4038 C   0  0  0  0  0  0  0  0  0  0  0  0
    2.9907   -0.7845    3.1578 H   0  0  0  0  0  0  0  0  0  0  0  0
    2.5220    0.8015    3.8226 H   0  0  0  0  0  0  0  0  0  0  0  0
    1.5146   -0.6322    4.1354 H   0  0  0  0  0  0  0  0  0  0  0  0
  5  6  2  0  0  0  0
  5  7  1  0  0  0  0
  2  3  1  0  0  0  0
  2  4  1  0  0  0  0
  2  5  1  0  0  0  0
  1  2  1  0  0  0  0
 17 18  2  0  0  0  0
 17 19  1  0  0  0  0
 14 15  1  0  0  0  0
 14 16  2  0  0  0  0
 11 12  1  0  0  0  0
 11 13  1  0  0  0  0
 11 14  1  0  0  0  0
  9 10  1  0  0  0  0
  9 11  1  0  0  0  0
  9 17  1  0  0  0  0
  7  8  1  0  0  0  0
  7  9  1  0  0  0  0
 21 22  1  0  0  0  0
 21 23  1  0  0  0  0
 21 24  1  0  0  0  0
 19 20  1  0  0  0  0
 19 21  1  0  0  0  0
M  CHG  1  15  -1
M  END
$$$$
default_name
  -OEChem-01062215323D

 24 23  0     1  0  0  0  0  0999 V2000
   -2.8347   -3.7166    0.8034 H   0  0  0  0  0  0  0  0  0  0  0  0
   -2.7728   -2.7096    0.3954 C   0  0  0  0  0  0  0  0  0  0  0  0
   -3.4267   -2.0426    0.9524 H   0  0  0  0  0  0  0  0  0  0  0  0
   -3.0538   -2.7186   -0.6556 H   0  0  0  0  0  0  0  0  0  0  0  0
   -1.3498   -2.2206    0.5184 C   0  0  0  0  0  0  0  0  0  0  0  0
   -0.4997   -2.9426    1.0194 O   0  0  0  0  0  0  0  0  0  0  0  0
   -1.1198   -0.9926    0.0674 N   0  0  0  0  0  0  0  0  0  0  0  0
   -1.8978   -0.4486   -0.2716 H   0  0  0  0  0  0  0  0  0  0  0  0
    0.1693   -0.2866    0.0854 C   0  0  1  0  0  0  0  0  0  0  0  0
    0.7178   -0.5217   -0.8284 H   0  0  0  0  0  0  0  0  0  0  0  0
   -0.0843    1.2361    0.1200 C   0  0  0  0  0  0  0  0  0  0  0  0
   -0.7796    1.4571    0.9317 H   0  0  0  0  0  0  0  0  0  0  0  0
    0.8569    1.7447    0.3401 H   0  0  0  0  0  0  0  0  0  0  0  0
   -0.6814    1.8127   -1.1732 C   0  0  0  0  0  0  0  0  0  0  0  0
   -0.4191    1.2445   -2.2595 O   0  5  0  0  0  0  0  0  0  0  0  0
   -1.3867    2.8388   -1.0642 O   0  0  0  0  0  0  0  0  0  0  0  0
    1.0103   -0.7664    1.2911 C   0  0  0  0  0  0  0  0  0  0  0  0
    1.5737   -1.8670    1.2637 O   0  0  0  0  0  0  0  0  0  0  0  0
    1.1164    0.0512    2.3432 N   0  0  0  0  0  0  0  0  0  0  0  0
    0.5452    0.8977    2.3077 H   0  0  0  0  0  0  0  0  0  0  0  0
    1.8529   -0.2442    3.5675 C   0  0  0  0  0  0  0  0  0  0  0  0
    2.8240   -0.6739    3.3181 H   0  0  0  0  0  0  0  0  0  0  0  0
    1.9935    0.6724    4.1398 H   0  0  0  0  0  0  0  0  0  0  0  0
    1.2873   -0.9612    4.1630 H   0  0  0  0  0  0  0  0  0  0  0  0
  5  6  2  0  0  0  0
  5  7  1  0  0  0  0
  2  3  1  0  0  0  0
  2  4  1  0  0  0  0
  2  5  1  0  0  0  0
  1  2  1  0  0  0  0
 17 18  2  0  0  0  0
 17 19  1  0  0  0  0
 14 15  1  0  0  0  0
 14 16  2  0  0  0  0
 11 12  1  0  0  0  0
 11 13  1  0  0  0  0
 11 14  1  0  0  0  0
  9 10  1  0  0  0  0
  9 11  1  0  0  0  0
  9 17  1  0  0  0  0
  7  8  1  0  0  0  0
  7  9  1  0  0  0  0
 21 22  1  0  0  0  0
 21 23  1  0  0  0  0
 21 24  1  0  0  0  0
 19 20  1  0  0  0  0
 19 21  1  0  0  0  0
M  CHG  1  15  -1
M  END
$$$$
default_name
  -OEChem-01062215323D

 24 23  0     1  0  0  0  0  0999 V2000
   -2.8347   -3.7166    0.8034 H   0  0  0  0  0  0  0  0  0  0  0  0
   -2.7728   -2.7096    0.3954 C   0  0  0  0  0  0  0  0  0  0  0  0
   -3.4267   -2.0426    0.9524 H   0  0  0  0  0  0  0  0  0  0  0  0
   -3.0538   -2.7186   -0.6556 H   0  0  0  0  0  0  0  0  0  0  0  0
   -1.3498   -2.2206    0.5184 C   0  0  0  0  0  0  0  0  0  0  0  0
   -0.4997   -2.9426    1.0194 O   0  0  0  0  0  0  0  0  0  0  0  0
   -1.1198   -0.9926    0.0674 N   0  0  0  0  0  0  0  0  0  0  0  0
   -1.8978   -0.4486   -0.2716 H   0  0  0  0  0  0  0  0  0  0  0  0
    0.1693   -0.2866    0.0854 C   0  0  1  0  0  0  0  0  0  0  0  0
    0.7178   -0.5217   -0.8284 H   0  0  0  0  0  0  0  0  0  0  0  0
   -0.0843    1.2361    0.1200 C   0  0  0  0  0  0  0  0  0  0  0  0
   -0.7796    1.4571    0.9317 H   0  0  0  0  0  0  0  0  0  0  0  0
    0.8569    1.7447    0.3401 H   0  0  0  0  0  0  0  0  0  0  0  0
   -0.6814    1.8127   -1.1732 C   0  0  0  0  0  0  0  0  0  0  0  0
   -0.4191    1.2445   -2.2595 O   0  5  0  0  0  0  0  0  0  0  0  0
   -1.3867    2.8388   -1.0642 O   0  0  0  0  0  0  0  0  0  0  0  0
    1.0103   -0.7664    1.2911 C   0  0  0  0  0  0  0  0  0  0  0  0
    1.7904   -1.7186    1.1716 O   0  0  0  0  0  0  0  0  0  0  0  0
    0.8748   -0.1100    2.4476 N   0  0  0  0  0  0  0  0  0  0  0  0
    0.1440    0.6037    2.4705 H   0  0  0  0  0  0  0  0  0  0  0  0
    1.5744   -0.4343    3.6862 C   0  0  0  0  0  0  0  0  0  0  0  0
    2.6278   -0.6232    3.4752 H   0  0  0  0  0  0  0  0  0  0  0  0
    1.4837    0.3963    4.3856 H   0  0  0  0  0  0  0  0  0  0  0  0
    1.1320   -1.3289    4.1250 H   0  0  0  0  0  0  0  0  0  0  0  0
  5  6  2  0  0  0  0
  5  7  1  0  0  0  0
  2  3  1  0  0  0  0
  2  4  1  0  0  0  0
  2  5  1  0  0  0  0
  1  2  1  0  0  0  0
 17 18  2  0  0  0  0
 17 19  1  0  0  0  0
 14 15  1  0  0  0  0
 14 16  2  0  0  0  0
 11 12  1  0  0  0  0
 11 13  1  0  0  0  0
 11 14  1  0  0  0  0
  9 10  1  0  0  0  0
  9 11  1  0  0  0  0
  9 17  1  0  0  0  0
  7  8  1  0  0  0  0
  7  9  1  0  0  0  0
 21 22  1  0  0  0  0
 21 23  1  0  0  0  0
 21 24  1  0  0  0  0
 19 20  1  0  0  0  0
 19 21  1  0  0  0  0
M  CHG  1  15  -1
M  END
$$$$
default_name
  -OEChem-01062215323D

 24 23  0     1  0  0  0  0  0999 V2000
   -2.8347   -3.7166    0.8034 H   0  0  0  0  0  0  0  0  0  0  0  0
   -2.7728   -2.7096    0.3954 C   0  0  0  0  0  0  0  0  0  0  0  0
   -3.4267   -2.0426    0.9524 H   0  0  0  0  0  0  0  0  0  0  0  0
   -3.0538   -2.7186   -0.6556 H   0  0  0  0  0  0  0  0  0  0  0  0
   -1.3498   -2.2206    0.5184 C   0  0  0  0  0  0  0  0  0  0  0  0
   -0.4997   -2.9426    1.0194 O   0  0  0  0  0  0  0  0  0  0  0  0
   -1.1198   -0.9926    0.0674 N   0  0  0  0  0  0  0  0  0  0  0  0
   -1.8978   -0.4486   -0.2716 H   0  0  0  0  0  0  0  0  0  0  0  0
    0.1693   -0.2866    0.0854 C   0  0  1  0  0  0  0  0  0  0  0  0
    0.7178   -0.5217   -0.8284 H   0  0  0  0  0  0  0  0  0  0  0  0
   -0.0843    1.2361    0.1200 C   0  0  0  0  0  0  0  0  0  0  0  0
   -0.7796    1.4571    0.9317 H   0  0  0  0  0  0  0  0  0  0  0  0
    0.8569    1.7447    0.3401 H   0  0  0  0  0  0  0  0  0  0  0  0
   -0.6814    1.8127   -1.1732 C   0  0  0  0  0  0  0  0  0  0  0  0
   -0.4191    1.2445   -2.2595 O   0  5  0  0  0  0  0  0  0  0  0  0
   -1.3867    2.8388   -1.0642 O   0  0  0  0  0  0  0  0  0  0  0  0
    1.0103   -0.7664    1.2911 C   0  0  0  0  0  0  0  0  0  0  0  0
    1.9772   -1.5185    1.1210 O   0  0  0  0  0  0  0  0  0  0  0  0
    0.6656   -0.3291    2.5063 N   0  0  0  0  0  0  0  0  0  0  0  0
   -0.1973    0.2160    2.5543 H   0  0  0  0  0  0  0  0  0  0  0  0
    1.3342   -0.6909    3.7517 C   0  0  0  0  0  0  0  0  0  0  0  0
    2.4154   -0.6360    3.6183 H   0  0  0  0  0  0  0  0  0  0  0  0
    1.0272   -0.0077    4.5432 H   0  0  0  0  0  0  0  0  0  0  0  0
    1.0591   -1.7100    4.0242 H   0  0  0  0  0  0  0  0  0  0  0  0
  5  6  2  0  0  0  0
  5  7  1  0  0  0  0
  2  3  1  0  0  0  0
  2  4  1  0  0  0  0
  2  5  1  0  0  0  0
  1  2  1  0  0  0  0
 17 18  2  0  0  0  0
 17 19  1  0  0  0  0
 14 15  1  0  0  0  0
 14 16  2  0  0  0  0
 11 12  1  0  0  0  0
 11 13  1  0  0  0  0
 11 14  1  0  0  0  0
  9 10  1  0  0  0  0
  9 11  1  0  0  0  0
  9 17  1  0  0  0  0
  7  8  1  0  0  0  0
  7  9  1  0  0  0  0
 21 22  1  0  0  0  0
 21 23  1  0  0  0  0
 21 24  1  0  0  0  0
 19 20  1  0  0  0  0
 19 21  1  0  0  0  0
M  CHG  1  15  -1
M  END
$$$$
default_name
  -OEChem-01062215323D

 24 23  0     1  0  0  0  0  0999 V2000
   -2.8347   -3.7166    0.8034 H   0  0  0  0  0  0  0  0  0  0  0  0
   -2.7728   -2.7096    0.3954 C   0  0  0  0  0  0  0  0  0  0  0  0
   -3.4267   -2.0426    0.9524 H   0  0  0  0  0  0  0  0  0  0  0  0
   -3.0538   -2.7186   -0.6556 H   0  0  0  0  0  0  0  0  0  0  0  0
   -1.3498   -2.2206    0.5184 C   0  0  0  0  0  0  0  0  0  0  0  0
   -0.4997   -2.9426    1.0194 O   0  0  0  0  0  0  0  0  0  0  0  0
   -1.1198   -0.9926    0.0674 N   0  0  0  0  0  0  0  0  0  0  0  0
   -1.8978   -0.4486   -0.2716 H   0  0  0  0  0  0  0  0  0  0  0  0
    0.1693   -0.2866    0.0854 C   0  0  1  0  0  0  0  0  0  0  0  0
    0.7178   -0.5217   -0.8284 H   0  0  0  0  0  0  0  0  0  0  0  0
   -0.0843    1.2361    0.1200 C   0  0  0  0  0  0  0  0  0  0  0  0
   -0.7796    1.4571    0.9317 H   0  0  0  0  0  0  0  0  0  0  0  0
    0.8569    1.7447    0.3401 H   0  0  0  0  0  0  0  0  0  0  0  0
   -0.6814    1.8127   -1.1732 C   0  0  0  0  0  0  0  0  0  0  0  0
   -0.4191    1.2445   -2.2595 O   0  5  0  0  0  0  0  0  0  0  0  0
   -1.3867    2.8388   -1.0642 O   0  0  0  0  0  0  0  0  0  0  0  0
    1.0103   -0.7664    1.2911 C   0  0  0  0  0  0  0  0  0  0  0  0
    2.1213   -1.2805    1.1152 O   0  0  0  0  0  0  0  0  0  0  0  0
    0.5031   -0.5912    2.5154 N   0  0  0  0  0  0  0  0  0  0  0  0
   -0.4554   -0.2392    2.5532 H   0  0  0  0  0  0  0  0  0  0  0  0
    1.1487   -0.9963    3.7595 C   0  0  0  0  0  0  0  0  0  0  0  0
    2.2013   -0.7113    3.7376 H   0  0  0  0  0  0  0  0  0  0  0  0
    0.6552   -0.5124    4.6019 H   0  0  0  0  0  0  0  0  0  0  0  0
    1.0738   -2.0786    3.8673 H   0  0  0  0  0  0  0  0  0  0  0  0
  5  6  2  0  0  0  0
  5  7  1  0  0  0  0
  2  3  1  0  0  0  0
  2  4  1  0  0  0  0
  2  5  1  0  0  0  0
  1  2  1  0  0  0  0
 17 18  2  0  0  0  0
 17 19  1  0  0  0  0
 14 15  1  0  0  0  0
 14 16  2  0  0  0  0
 11 12  1  0  0  0  0
 11 13  1  0  0  0  0
 11 14  1  0  0  0  0
  9 10  1  0  0  0  0
  9 11  1  0  0  0  0
  9 17  1  0  0  0  0
  7  8  1  0  0  0  0
  7  9  1  0  0  0  0
 21 22  1  0  0  0  0
 21 23  1  0  0  0  0
 21 24  1  0  0  0  0
 19 20  1  0  0  0  0
 19 21  1  0  0  0  0
M  CHG  1  15  -1
M  END
$$$$
default_name
  -OEChem-01062215323D

 24 23  0     1  0  0  0  0  0999 V2000
   -2.8347   -3.7166    0.8034 H   0  0  0  0  0  0  0  0  0  0  0  0
   -2.7728   -2.7096    0.3954 C   0  0  0  0  0  0  0  0  0  0  0  0
   -3.4267   -2.0426    0.9524 H   0  0  0  0  0  0  0  0  0  0  0  0
   -3.0538   -2.7186   -0.6556 H   0  0  0  0  0  0  0  0  0  0  0  0
   -1.3498   -2.2206    0.5184 C   0  0  0  0  0  0  0  0  0  0  0  0
   -0.4997   -2.9426    1.0194 O   0  0  0  0  0  0  0  0  0  0  0  0
   -1.1198   -0.9926    0.0674 N   0  0  0  0  0  0  0  0  0  0  0  0
   -1.8978   -0.4486   -0.2716 H   0  0  0  0  0  0  0  0  0  0  0  0
    0.1693   -0.2866    0.0854 C   0  0  1  0  0  0  0  0  0  0  0  0
    0.7178   -0.5217   -0.8284 H   0  0  0  0  0  0  0  0  0  0  0  0
   -0.0843    1.2361    0.1200 C   0  0  0  0  0  0  0  0  0  0  0  0
   -0.7796    1.4571    0.9317 H   0  0  0  0  0  0  0  0  0  0  0  0
    0.8569    1.7447    0.3401 H   0  0  0  0  0  0  0  0  0  0  0  0
   -0.6814    1.8127   -1.1732 C   0  0  0  0  0  0  0  0  0  0  0  0
   -0.4191    1.2445   -2.2595 O   0  5  0  0  0  0  0  0  0  0  0  0
   -1.3867    2.8388   -1.0642 O   0  0  0  0  0  0  0  0  0  0  0  0
    1.0103   -0.7664    1.2911 C   0  0  0  0  0  0  0  0  0  0  0  0
    2.2129   -1.0206    1.1547 O   0  0  0  0  0  0  0  0  0  0  0  0
    0.3983   -0.8784    2.4742 N   0  0  0  0  0  0  0  0  0  0  0  0
   -0.6128   -0.7309    2.4673 H   0  0  0  0  0  0  0  0  0  0  0  0
    1.0305   -1.3299    3.7092 C   0  0  0  0  0  0  0  0  0  0  0  0
    2.0001   -0.8440    3.8251 H   0  0  0  0  0  0  0  0  0  0  0  0
    0.3929   -1.0832    4.5577 H   0  0  0  0  0  0  0  0  0  0  0  0
    1.1749   -2.4096    3.6650 H   0  0  0  0  0  0  0  0  0  0  0  0
  5  6  2  0  0  0  0
  5  7  1  0  0  0  0
  2  3  1  0  0  0  0
  2  4  1  0  0  0  0
  2  5  1  0  0  0  0
  1  2  1  0  0  0  0
 17 18  2  0  0  0  0
 17 19  1  0  0  0  0
 14 15  1  0  0  0  0
 14 16  2  0  0  0  0
 11 12  1  0  0  0  0
 11 13  1  0  0  0  0
 11 14  1  0  0  0  0
  9 10  1  0  0  0  0
  9 11  1  0  0  0  0
  9 17  1  0  0  0  0
  7  8  1  0  0  0  0
  7  9  1  0  0  0  0
 21 22  1  0  0  0  0
 21 23  1  0  0  0  0
 21 24  1  0  0  0  0
 19 20  1  0  0  0  0
 19 21  1  0  0  0  0
M  CHG  1  15  -1
M  END
$$$$
default_name
  -OEChem-01062215323D

 24 23  0     1  0  0  0  0  0999 V2000
   -2.8347   -3.7166    0.8034 H   0  0  0  0  0  0  0  0  0  0  0  0
   -2.7728   -2.7096    0.3954 C   0  0  0  0  0  0  0  0  0  0  0  0
   -3.4267   -2.0426    0.9524 H   0  0  0  0  0  0  0  0  0  0  0  0
   -3.0538   -2.7186   -0.6556 H   0  0  0  0  0  0  0  0  0  0  0  0
   -1.3498   -2.2206    0.5184 C   0  0  0  0  0  0  0  0  0  0  0  0
   -0.4997   -2.9426    1.0194 O   0  0  0  0  0  0  0  0  0  0  0  0
   -1.1198   -0.9926    0.0674 N   0  0  0  0  0  0  0  0  0  0  0  0
   -1.8978   -0.4486   -0.2716 H   0  0  0  0  0  0  0  0  0  0  0  0
    0.1693   -0.2866    0.0854 C   0  0  1  0  0  0  0  0  0  0  0  0
    0.7178   -0.5217   -0.8284 H   0  0  0  0  0  0  0  0  0  0  0  0
   -0.0843    1.2361    0.1200 C   0  0  0  0  0  0  0  0  0  0  0  0
   -0.7796    1.4571    0.9317 H   0  0  0  0  0  0  0  0  0  0  0  0
    0.8569    1.7447    0.3401 H   0  0  0  0  0  0  0  0  0  0  0  0
   -0.6814    1.8127   -1.1732 C   0  0  0  0  0  0  0  0  0  0  0  0
   -0.4191    1.2445   -2.2595 O   0  5  0  0  0  0  0  0  0  0  0  0
   -1.3867    2.8388   -1.0642 O   0  0  0  0  0  0  0  0  0  0  0  0
    1.0103   -0.7664    1.2911 C   0  0  0  0  0  0  0  0  0  0  0  0
    2.2458   -0.7567    1.2368 O   0  0  0  0  0  0  0  0  0  0  0  0
    0.3583   -1.1713    2.3855 N   0  0  0  0  0  0  0  0  0  0  0  0
   -0.6587   -1.2254    2.3025 H   0  0  0  0  0  0  0  0  0  0  0  0
    0.9877   -1.6689    3.6041 C   0  0  0  0  0  0  0  0  0  0  0  0
    1.8256   -1.0252    3.8748 H   0  0  0  0  0  0  0  0  0  0  0  0
    0.2583   -1.6812    4.4136 H   0  0  0  0  0  0  0  0  0  0  0  0
    1.3557   -2.6804    3.4311 H   0  0  0  0  0  0  0  0  0  0  0  0
  5  6  2  0  0  0  0
  5  7  1  0  0  0  0
  2  3  1  0  0  0  0
  2  4  1  0  0  0  0
  2  5  1  0  0  0  0
  1  2  1  0  0  0  0
 17 18  2  0  0  0  0
 17 19  1  0  0  0  0
 14 15  1  0  0  0  0
 14 16  2  0  0  0  0
 11 12  1  0  0  0  0
 11 13  1  0  0  0  0
 11 14  1  0  0  0  0
  9 10  1  0  0  0  0
  9 11  1  0  0  0  0
  9 17  1  0  0  0  0
  7  8  1  0  0  0  0
  7  9  1  0  0  0  0
 21 22  1  0  0  0  0
 21 23  1  0  0  0  0
 21 24  1  0  0  0  0
 19 20  1  0  0  0  0
 19 21  1  0  0  0  0
M  CHG  1  15  -1
M  END
$$$$
default_name
  -OEChem-01062215323D

 24 23  0     1  0  0  0  0  0999 V2000
   -2.8347   -3.7166    0.8034 H   0  0  0  0  0  0  0  0  0  0  0  0
   -2.7728   -2.7096    0.3954 C   0  0  0  0  0  0  0  0  0  0  0  0
   -3.4267   -2.0426    0.9524 H   0  0  0  0  0  0  0  0  0  0  0  0
   -3.0538   -2.7186   -0.6556 H   0  0  0  0  0  0  0  0  0  0  0  0
   -1.3498   -2.2206    0.5184 C   0  0  0  0  0  0  0  0  0  0  0  0
   -0.4997   -2.9426    1.0194 O   0  0  0  0  0  0  0  0  0  0  0  0
   -1.1198   -0.9926    0.0674 N   0  0  0  0  0  0  0  0  0  0  0  0
   -1.8978   -0.4486   -0.2716 H   0  0  0  0  0  0  0  0  0  0  0  0
    0.1693   -0.2866    0.0854 C   0  0  1  0  0  0  0  0  0  0  0  0
    0.7178   -0.5217   -0.8284 H   0  0  0  0  0  0  0  0  0  0  0  0
   -0.0843    1.2361    0.1200 C   0  0  0  0  0  0  0  0  0  0  0  0
   -0.7796    1.4571    0.9317 H   0  0  0  0  0  0  0  0  0  0  0  0
    0.8569    1.7447    0.3401 H   0  0  0  0  0  0  0  0  0  0  0  0
   -0.6814    1.8127   -1.1732 C   0  0  0  0  0  0  0  0  0  0  0  0
   -0.4191    1.2445   -2.2595 O   0  5  0  0  0  0  0  0  0  0  0  0
   -1.3867    2.8388   -1.0642 O   0  0  0  0  0  0  0  0  0  0  0  0
    1.0103   -0.7664    1.2911 C   0  0  0  0  0  0  0  0  0  0  0  0
    2.2177   -0.5067    1.3559 O   0  0  0  0  0  0  0  0  0  0  0  0
    0.3859   -1.4497    2.2555 N   0  0  0  0  0  0  0  0  0  0  0  0
   -0.5900   -1.6892    2.0700 H   0  0  0  0  0  0  0  0  0  0  0  0
    1.0232   -1.9902    3.4515 C   0  0  0  0  0  0  0  0  0  0  0  0
    1.6896   -1.2423    3.8832 H   0  0  0  0  0  0  0  0  0  0  0  0
    0.2606   -2.2657    4.1794 H   0  0  0  0  0  0  0  0  0  0  0  0
    1.6037   -2.8727    3.1816 H   0  0  0  0  0  0  0  0  0  0  0  0
  5  6  2  0  0  0  0
  5  7  1  0  0  0  0
  2  3  1  0  0  0  0
  2  4  1  0  0  0  0
  2  5  1  0  0  0  0
  1  2  1  0  0  0  0
 17 18  2  0  0  0  0
 17 19  1  0  0  0  0
 14 15  1  0  0  0  0
 14 16  2  0  0  0  0
 11 12  1  0  0  0  0
 11 13  1  0  0  0  0
 11 14  1  0  0  0  0
  9 10  1  0  0  0  0
  9 11  1  0  0  0  0
  9 17  1  0  0  0  0
  7  8  1  0  0  0  0
  7  9  1  0  0  0  0
 21 22  1  0  0  0  0
 21 23  1  0  0  0  0
 21 24  1  0  0  0  0
 19 20  1  0  0  0  0
 19 21  1  0  0  0  0
M  CHG  1  15  -1
M  END
$$$$
default_name
  -OEChem-01062215323D

 24 23  0     1  0  0  0  0  0999 V2000
   -2.8347   -3.7166    0.8034 H   0  0  0  0  0  0  0  0  0  0  0  0
   -2.7728   -2.7096    0.3954 C   0  0  0  0  0  0  0  0  0  0  0  0
   -3.4267   -2.0426    0.9524 H   0  0  0  0  0  0  0  0  0  0  0  0
   -3.0538   -2.7186   -0.6556 H   0  0  0  0  0  0  0  0  0  0  0  0
   -1.3498   -2.2206    0.5184 C   0  0  0  0  0  0  0  0  0  0  0  0
   -0.4997   -2.9426    1.0194 O   0  0  0  0  0  0  0  0  0  0  0  0
   -1.1198   -0.9926    0.0674 N   0  0  0  0  0  0  0  0  0  0  0  0
   -1.8978   -0.4486   -0.2716 H   0  0  0  0  0  0  0  0  0  0  0  0
    0.1693   -0.2866    0.0854 C   0  0  1  0  0  0  0  0  0  0  0  0
    0.7178   -0.5217   -0.8284 H   0  0  0  0  0  0  0  0  0  0  0  0
   -0.0843    1.2361    0.1200 C   0  0  0  0  0  0  0  0  0  0  0  0
   -0.7796    1.4571    0.9317 H   0  0  0  0  0  0  0  0  0  0  0  0
    0.8569    1.7447    0.3401 H   0  0  0  0  0  0  0  0  0  0  0  0
   -0.6814    1.8127   -1.1732 C   0  0  0  0  0  0  0  0  0  0  0  0
   -0.4191    1.2445   -2.2595 O   0  5  0  0  0  0  0  0  0  0  0  0
   -1.3867    2.8388   -1.0642 O   0  0  0  0  0  0  0  0  0  0  0  0
    1.0103   -0.7664    1.2911 C   0  0  0  0  0  0  0  0  0  0  0  0
    2.1305   -0.2876    1.5039 O   0  0  0  0  0  0  0  0  0  0  0  0
    0.4791   -1.6948    2.0929 N   0  0  0  0  0  0  0  0  0  0  0  0
   -0.4114   -2.0906    1.7857 H   0  0  0  0  0  0  0  0  0  0  0  0
    1.1346   -2.2719    3.2616 C   0  0  0  0  0  0  0  0  0  0  0  0
    1.6013   -1.4808    3.8499 H   0  0  0  0  0  0  0  0  0  0  0  0
    0.3995   -2.7969    3.8711 H   0  0  0  0  0  0  0  0  0  0  0  0
    1.9021   -2.9732    2.9334 H   0  0  0  0  0  0  0  0  0  0  0  0
  5  6  2  0  0  0  0
  5  7  1  0  0  0  0
  2  3  1  0  0  0  0
  2  4  1  0  0  0  0
  2  5  1  0  0  0  0
  1  2  1  0  0  0  0
 17 18  2  0  0  0  0
 17 19  1  0  0  0  0
 14 15  1  0  0  0  0
 14 16  2  0  0  0  0
 11 12  1  0  0  0  0
 11 13  1  0  0  0  0
 11 14  1  0  0  0  0
  9 10  1  0  0  0  0
  9 11  1  0  0  0  0
  9 17  1  0  0  0  0
  7  8  1  0  0  0  0
  7  9  1  0  0  0  0
 21 22  1  0  0  0  0
 21 23  1  0  0  0  0
 21 24  1  0  0  0  0
 19 20  1  0  0  0  0
 19 21  1  0  0  0  0
M  CHG  1  15  -1
M  END
$$$$
default_name
  -OEChem-01062215323D

 24 23  0     1  0  0  0  0  0999 V2000
   -2.8347   -3.7166    0.8034 H   0  0  0  0  0  0  0  0  0  0  0  0
   -2.7728   -2.7096    0.3954 C   0  0  0  0  0  0  0  0  0  0  0  0
   -3.4267   -2.0426    0.9524 H   0  0  0  0  0  0  0  0  0  0  0  0
   -3.0538   -2.7186   -0.6556 H   0  0  0  0  0  0  0  0  0  0  0  0
   -1.3498   -2.2206    0.5184 C   0  0  0  0  0  0  0  0  0  0  0  0
   -0.4997   -2.9426    1.0194 O   0  0  0  0  0  0  0  0  0  0  0  0
   -1.1198   -0.9926    0.0674 N   0  0  0  0  0  0  0  0  0  0  0  0
   -1.8978   -0.4486   -0.2716 H   0  0  0  0  0  0  0  0  0  0  0  0
    0.1693   -0.2866    0.0854 C   0  0  1  0  0  0  0  0  0  0  0  0
    0.7178   -0.5217   -0.8284 H   0  0  0  0  0  0  0  0  0  0  0  0
   -0.0843    1.2361    0.1200 C   0  0  0  0  0  0  0  0  0  0  0  0
   -0.7796    1.4571    0.9317 H   0  0  0  0  0  0  0  0  0  0  0  0
    0.8569    1.7447    0.3401 H   0  0  0  0  0  0  0  0  0  0  0  0
   -0.6814    1.8127   -1.1732 C   0  0  0  0  0  0  0  0  0  0  0  0
   -0.4191    1.2445   -2.2595 O   0  5  0  0  0  0  0  0  0  0  0  0
   -1.3867    2.8388   -1.0642 O   0  0  0  0  0  0  0  0  0  0  0  0
    1.0103   -0.7664    1.2911 C   0  0  0  0  0  0  0  0  0  0  0  0
    1.9902   -0.1145    1.6707 O   0  0  0  0  0  0  0  0  0  0  0  0
    0.6317   -1.8898    1.9088 N   0  0  0  0  0  0  0  0  0  0  0  0
   -0.1350   -2.4022    1.4689 H   0  0  0  0  0  0  0  0  0  0  0  0
    1.3143   -2.4948    3.0476 C   0  0  0  0  0  0  0  0  0  0  0  0
    1.5669   -1.7242    3.7771 H   0  0  0  0  0  0  0  0  0  0  0  0
    0.6657   -3.2386    3.5096 H   0  0  0  0  0  0  0  0  0  0  0  0
    2.2305   -2.9751    2.7036 H   0  0  0  0  0  0  0  0  0  0  0  0
  5  6  2  0  0  0  0
  5  7  1  0  0  0  0
  2  3  1  0  0  0  0
  2  4  1  0  0  0  0
  2  5  1  0  0  0  0
  1  2  1  0  0  0  0
 17 18  2  0  0  0  0
 17 19  1  0  0  0  0
 14 15  1  0  0  0  0
 14 16  2  0  0  0  0
 11 12  1  0  0  0  0
 11 13  1  0  0  0  0
 11 14  1  0  0  0  0
  9 10  1  0  0  0  0
  9 11  1  0  0  0  0
  9 17  1  0  0  0  0
  7  8  1  0  0  0  0
  7  9  1  0  0  0  0
 21 22  1  0  0  0  0
 21 23  1  0  0  0  0
 21 24  1  0  0  0  0
 19 20  1  0  0  0  0
 19 21  1  0  0  0  0
M  CHG  1  15  -1
M  END
$$$$
default_name
  -OEChem-01062215323D

 24 23  0     1  0  0  0  0  0999 V2000
   -2.8347   -3.7166    0.8034 H   0  0  0  0  0  0  0  0  0  0  0  0
   -2.7728   -2.7096    0.3954 C   0  0  0  0  0  0  0  0  0  0  0  0
   -3.4267   -2.0426    0.9524 H   0  0  0  0  0  0  0  0  0  0  0  0
   -3.0538   -2.7186   -0.6556 H   0  0  0  0  0  0  0  0  0  0  0  0
   -1.3498   -2.2206    0.5184 C   0  0  0  0  0  0  0  0  0  0  0  0
   -0.4997   -2.9426    1.0194 O   0  0  0  0  0  0  0  0  0  0  0  0
   -1.1198   -0.9926    0.0674 N   0  0  0  0  0  0  0  0  0  0  0  0
   -1.8978   -0.4486   -0.2716 H   0  0  0  0  0  0  0  0  0  0  0  0
    0.1693   -0.2866    0.0854 C   0  0  1  0  0  0  0  0  0  0  0  0
    0.7178   -0.5217   -0.8284 H   0  0  0  0  0  0  0  0  0  0  0  0
   -0.0843    1.2361    0.1200 C   0  0  0  0  0  0  0  0  0  0  0  0
   -0.7796    1.4571    0.9317 H   0  0  0  0  0  0  0  0  0  0  0  0
    0.8569    1.7447    0.3401 H   0  0  0  0  0  0  0  0  0  0  0  0
   -0.6814    1.8127   -1.1732 C   0  0  0  0  0  0  0  0  0  0  0  0
   -0.4191    1.2445   -2.2595 O   0  5  0  0  0  0  0  0  0  0  0  0
   -1.3867    2.8388   -1.0642 O   0  0  0  0  0  0  0  0  0  0  0  0
    1.0103   -0.7664    1.2911 C   0  0  0  0  0  0  0  0  0  0  0  0
    1.8064    0.0010    1.8448 O   0  0  0  0  0  0  0  0  0  0  0  0
    0.8333   -2.0214    1.7158 N   0  0  0  0  0  0  0  0  0  0  0  0
    0.2203   -2.6028    1.1412 H   0  0  0  0  0  0  0  0  0  0  0  0
    1.5500   -2.6437    2.8239 C   0  0  0  0  0  0  0  0  0  0  0  0
    1.5886   -1.9560    3.6697 H   0  0  0  0  0  0  0  0  0  0  0  0
    1.0409   -3.5606    3.1197 H   0  0  0  0  0  0  0  0  0  0  0  0
    2.5666   -2.8783    2.5076 H   0  0  0  0  0  0  0  0  0  0  0  0
  5  6  2  0  0  0  0
  5  7  1  0  0  0  0
  2  3  1  0  0  0  0
  2  4  1  0  0  0  0
  2  5  1  0  0  0  0
  1  2  1  0  0  0  0
 17 18  2  0  0  0  0
 17 19  1  0  0  0  0
 14 15  1  0  0  0  0
 14 16  2  0  0  0  0
 11 12  1  0  0  0  0
 11 13  1  0  0  0  0
 11 14  1  0  0  0  0
  9 10  1  0  0  0  0
  9 11  1  0  0  0  0
  9 17  1  0  0  0  0
  7  8  1  0  0  0  0
  7  9  1  0  0  0  0
 21 22  1  0  0  0  0
 21 23  1  0  0  0  0
 21 24  1  0  0  0  0
 19 20  1  0  0  0  0
 19 21  1  0  0  0  0
M  CHG  1  15  -1
M  END
$$$$
default_name
  -OEChem-01062215323D

 24 23  0     1  0  0  0  0  0999 V2000
   -2.8347   -3.7166    0.8034 H   0  0  0  0  0  0  0  0  0  0  0  0
   -2.7728   -2.7096    0.3954 C   0  0  0  0  0  0  0  0  0  0  0  0
   -3.4267   -2.0426    0.9524 H   0  0  0  0  0  0  0  0  0  0  0  0
   -3.0538   -2.7186   -0.6556 H   0  0  0  0  0  0  0  0  0  0  0  0
   -1.3498   -2.2206    0.5184 C   0  0  0  0  0  0  0  0  0  0  0  0
   -0.4997   -2.9426    1.0194 O   0  0  0  0  0  0  0  0  0  0  0  0
   -1.1198   -0.9926    0.0674 N   0  0  0  0  0  0  0  0  0  0  0  0
   -1.8978   -0.4486   -0.2716 H   0  0  0  0  0  0  0  0  0  0  0  0
    0.1693   -0.2866    0.0854 C   0  0  1  0  0  0  0  0  0  0  0  0
    0.7178   -0.5217   -0.8284 H   0  0  0  0  0  0  0  0  0  0  0  0
   -0.0843    1.2361    0.1200 C   0  0  0  0  0  0  0  0  0  0  0  0
   -0.7796    1.4571    0.9317 H   0  0  0  0  0  0  0  0  0  0  0  0
    0.8569    1.7447    0.3401 H   0  0  0  0  0  0  0  0  0  0  0  0
   -0.6814    1.8127   -1.1732 C   0  0  0  0  0  0  0  0  0  0  0  0
   -0.4191    1.2445   -2.2595 O   0  5  0  0  0  0  0  0  0  0  0  0
   -1.3867    2.8388   -1.0642 O   0  0  0  0  0  0  0  0  0  0  0  0
    1.0103   -0.7664    1.2911 C   0  0  0  0  0  0  0  0  0  0  0  0
    1.5915    0.0510    2.0146 O   0  0  0  0  0  0  0  0  0  0  0  0
    1.0700   -2.0808    1.5271 N   0  0  0  0  0  0  0  0  0  0  0  0
    0.6302   -2.6788    0.8250 H   0  0  0  0  0  0  0  0  0  0  0  0
    1.8258   -2.7085    2.6058 C   0  0  0  0  0  0  0  0  0  0  0  0
    1.6649   -2.1604    3.5351 H   0  0  0  0  0  0  0  0  0  0  0  0
    1.4996   -3.7410    2.7279 H   0  0  0  0  0  0  0  0  0  0  0  0
    2.8875   -2.6895    2.3590 H   0  0  0  0  0  0  0  0  0  0  0  0
  5  6  2  0  0  0  0
  5  7  1  0  0  0  0
  2  3  1  0  0  0  0
  2  4  1  0  0  0  0
  2  5  1  0  0  0  0
  1  2  1  0  0  0  0
 17 18  2  0  0  0  0
 17 19  1  0  0  0  0
 14 15  1  0  0  0  0
 14 16  2  0  0  0  0
 11 12  1  0  0  0  0
 11 13  1  0  0  0  0
 11 14  1  0  0  0  0
  9 10  1  0  0  0  0
  9 11  1  0  0  0  0
  9 17  1  0  0  0  0
  7  8  1  0  0  0  0
  7  9  1  0  0  0  0
 21 22  1  0  0  0  0
 21 23  1  0  0  0  0
 21 24  1  0  0  0  0
 19 20  1  0  0  0  0
 19 21  1  0  0  0  0
M  CHG  1  15  -1
M  END
$$$$
default_name
  -OEChem-01062215323D

 24 23  0     1  0  0  0  0  0999 V2000
   -2.8347   -3.7166    0.8034 H   0  0  0  0  0  0  0  0  0  0  0  0
   -2.7728   -2.7096    0.3954 C   0  0  0  0  0  0  0  0  0  0  0  0
   -3.4267   -2.0426    0.9524 H   0  0  0  0  0  0  0  0  0  0  0  0
   -3.0538   -2.7186   -0.6556 H   0  0  0  0  0  0  0  0  0  0  0  0
   -1.3498   -2.2206    0.5184 C   0  0  0  0  0  0  0  0  0  0  0  0
   -0.4997   -2.9426    1.0194 O   0  0  0  0  0  0  0  0  0  0  0  0
   -1.1198   -0.9926    0.0674 N   0  0  0  0  0  0  0  0  0  0  0  0
   -1.8978   -0.4486   -0.2716 H   0  0  0  0  0  0  0  0  0  0  0  0
    0.1693   -0.2866    0.0854 C   0  0  1  0  0  0  0  0  0  0  0  0
    0.7178   -0.5217   -0.8284 H   0  0  0  0  0  0  0  0  0  0  0  0
   -0.0843    1.2361    0.1200 C   0  0  0  0  0  0  0  0  0  0  0  0
   -0.7796    1.4571    0.9317 H   0  0  0  0  0  0  0  0  0  0  0  0
    0.8569    1.7447    0.3401 H   0  0  0  0  0  0  0  0  0  0  0  0
   -0.6814    1.8127   -1.1732 C   0  0  0  0  0  0  0  0  0  0  0  0
   -0.4191    1.2445   -2.2595 O   0  5  0  0  0  0  0  0  0  0  0  0
   -1.3867    2.8388   -1.0642 O   0  0  0  0  0  0  0  0  0  0  0  0
    1.0103   -0.7664    1.2911 C   0  0  0  0  0  0  0  0  0  0  0  0
    1.3603    0.0319    2.1683 O   0  0  0  0  0  0  0  0  0  0  0  0
    1.3259   -2.0638    1.3554 N   0  0  0  0  0  0  0  0  0  0  0  0
    1.0670   -2.6250    0.5418 H   0  0  0  0  0  0  0  0  0  0  0  0
    2.1227   -2.6847    2.4081 C   0  0  0  0  0  0  0  0  0  0  0  0
    1.7908   -2.3235    3.3824 H   0  0  0  0  0  0  0  0  0  0  0  0
    2.0106   -3.7676    2.3609 H   0  0  0  0  0  0  0  0  0  0  0  0
    3.1712   -2.4214    2.2678 H   0  0  0  0  0  0  0  0  0  0  0  0
  5  6  2  0  0  0  0
  5  7  1  0  0  0  0
  2  3  1  0  0  0  0
  2  4  1  0  0  0  0
  2  5  1  0  0  0  0
  1  2  1  0  0  0  0
 17 18  2  0  0  0  0
 17 19  1  0  0  0  0
 14 15  1  0  0  0  0
 14 16  2  0  0  0  0
 11 12  1  0  0  0  0
 11 13  1  0  0  0  0
 11 14  1  0  0  0  0
  9 10  1  0  0  0  0
  9 11  1  0  0  0  0
  9 17  1  0  0  0  0
  7  8  1  0  0  0  0
  7  9  1  0  0  0  0
 21 22  1  0  0  0  0
 21 23  1  0  0  0  0
 21 24  1  0  0  0  0
 19 20  1  0  0  0  0
 19 21  1  0  0  0  0
M  CHG  1  15  -1
M  END
$$$$
default_name
  -OEChem-01062215323D

 24 23  0     1  0  0  0  0  0999 V2000
   -2.8347   -3.7166    0.8034 H   0  0  0  0  0  0  0  0  0  0  0  0
   -2.7728   -2.7096    0.3954 C   0  0  0  0  0  0  0  0  0  0  0  0
   -3.4267   -2.0426    0.9524 H   0  0  0  0  0  0  0  0  0  0  0  0
   -3.0538   -2.7186   -0.6556 H   0  0  0  0  0  0  0  0  0  0  0  0
   -1.3498   -2.2206    0.5184 C   0  0  0  0  0  0  0  0  0  0  0  0
   -0.4997   -2.9426    1.0194 O   0  0  0  0  0  0  0  0  0  0  0  0
   -1.1198   -0.9926    0.0674 N   0  0  0  0  0  0  0  0  0  0  0  0
   -1.8978   -0.4486   -0.2716 H   0  0  0  0  0  0  0  0  0  0  0  0
    0.1693   -0.2866    0.0854 C   0  0  1  0  0  0  0  0  0  0  0  0
    0.7178   -0.5217   -0.8284 H   0  0  0  0  0  0  0  0  0  0  0  0
   -0.0843    1.2361    0.1200 C   0  0  0  0  0  0  0  0  0  0  0  0
   -0.7796    1.4571    0.9317 H   0  0  0  0  0  0  0  0  0  0  0  0
    0.8569    1.7447    0.3401 H   0  0  0  0  0  0  0  0  0  0  0  0
   -0.6814    1.8127   -1.1732 C   0  0  0  0  0  0  0  0  0  0  0  0
   -0.4191    1.2445   -2.2595 O   0  5  0  0  0  0  0  0  0  0  0  0
   -1.3867    2.8388   -1.0642 O   0  0  0  0  0  0  0  0  0  0  0  0
    1.0103   -0.7664    1.2911 C   0  0  0  0  0  0  0  0  0  0  0  0
    1.1284   -0.0547    2.2956 O   0  0  0  0  0  0  0  0  0  0  0  0
    1.5833   -1.9715    1.2125 N   0  0  0  0  0  0  0  0  0  0  0  0
    1.5007   -2.4450    0.3108 H   0  0  0  0  0  0  0  0  0  0  0  0
    2.4206   -2.5740    2.2444 C   0  0  0  0  0  0  0  0  0  0  0  0
    1.9575   -2.4342    3.2221 H   0  0  0  0  0  0  0  0  0  0  0  0
    2.5391   -3.6385    2.0437 H   0  0  0  0  0  0  0  0  0  0  0  0
    3.3985   -2.0923    2.2402 H   0  0  0  0  0  0  0  0  0  0  0  0
  5  6  2  0  0  0  0
  5  7  1  0  0  0  0
  2  3  1  0  0  0  0
  2  4  1  0  0  0  0
  2  5  1  0  0  0  0
  1  2  1  0  0  0  0
 17 18  2  0  0  0  0
 17 19  1  0  0  0  0
 14 15  1  0  0  0  0
 14 16  2  0  0  0  0
 11 12  1  0  0  0  0
 11 13  1  0  0  0  0
 11 14  1  0  0  0  0
  9 10  1  0  0  0  0
  9 11  1  0  0  0  0
  9 17  1  0  0  0  0
  7  8  1  0  0  0  0
  7  9  1  0  0  0  0
 21 22  1  0  0  0  0
 21 23  1  0  0  0  0
 21 24  1  0  0  0  0
 19 20  1  0  0  0  0
 19 21  1  0  0  0  0
M  CHG  1  15  -1
M  END
$$$$
default_name
  -OEChem-01062215323D

 24 23  0     1  0  0  0  0  0999 V2000
   -2.8347   -3.7166    0.8034 H   0  0  0  0  0  0  0  0  0  0  0  0
   -2.7728   -2.7096    0.3954 C   0  0  0  0  0  0  0  0  0  0  0  0
   -3.4267   -2.0426    0.9524 H   0  0  0  0  0  0  0  0  0  0  0  0
   -3.0538   -2.7186   -0.6556 H   0  0  0  0  0  0  0  0  0  0  0  0
   -1.3498   -2.2206    0.5184 C   0  0  0  0  0  0  0  0  0  0  0  0
   -0.4997   -2.9426    1.0194 O   0  0  0  0  0  0  0  0  0  0  0  0
   -1.1198   -0.9926    0.0674 N   0  0  0  0  0  0  0  0  0  0  0  0
   -1.8978   -0.4486   -0.2716 H   0  0  0  0  0  0  0  0  0  0  0  0
    0.1693   -0.2866    0.0854 C   0  0  1  0  0  0  0  0  0  0  0  0
    0.7178   -0.5217   -0.8284 H   0  0  0  0  0  0  0  0  0  0  0  0
   -0.0843    1.2361    0.1200 C   0  0  0  0  0  0  0  0  0  0  0  0
   -0.7796    1.4571    0.9317 H   0  0  0  0  0  0  0  0  0  0  0  0
    0.8569    1.7447    0.3401 H   0  0  0  0  0  0  0  0  0  0  0  0
   -0.6814    1.8127   -1.1732 C   0  0  0  0  0  0  0  0  0  0  0  0
   -0.4191    1.2445   -2.2595 O   0  5  0  0  0  0  0  0  0  0  0  0
   -1.3867    2.8388   -1.0642 O   0  0  0  0  0  0  0  0  0  0  0  0
    1.0103   -0.7664    1.2911 C   0  0  0  0  0  0  0  0  0  0  0  0
    0.9117   -0.2032    2.3877 O   0  0  0  0  0  0  0  0  0  0  0  0
    1.8248   -1.8104    1.1082 N   0  0  0  0  0  0  0  0  0  0  0  0
    1.9019   -2.1511    0.1480 H   0  0  0  0  0  0  0  0  0  0  0  0
    2.6991   -2.3839    2.1258 C   0  0  0  0  0  0  0  0  0  0  0  0
    2.1537   -2.4848    3.0650 H   0  0  0  0  0  0  0  0  0  0  0  0
    3.0489   -3.3624    1.7979 H   0  0  0  0  0  0  0  0  0  0  0  0
    3.5539   -1.7247    2.2781 H   0  0  0  0  0  0  0  0  0  0  0  0
  5  6  2  0  0  0  0
  5  7  1  0  0  0  0
  2  3  1  0  0  0  0
  2  4  1  0  0  0  0
  2  5  1  0  0  0  0
  1  2  1  0  0  0  0
 17 18  2  0  0  0  0
 17 19  1  0  0  0  0
 14 15  1  0  0  0  0
 14 16  2  0  0  0  0
 11 12  1  0  0  0  0
 11 13  1  0  0  0  0
 11 14  1  0  0  0  0
  9 10  1  0  0  0  0
  9 11  1  0  0  0  0
  9 17  1  0  0  0  0
  7  8  1  0  0  0  0
  7  9  1  0  0  0  0
 21 22  1  0  0  0  0
 21 23  1  0  0  0  0
 21 24  1  0  0  0  0
 19 20  1  0  0  0  0
 19 21  1  0  0  0  0
M  CHG  1  15  -1
M  END
$$$$
default_name
  -OEChem-01062215323D

 24 23  0     1  0  0  0  0  0999 V2000
   -2.8347   -3.7166    0.8034 H   0  0  0  0  0  0  0  0  0  0  0  0
   -2.7728   -2.7096    0.3954 C   0  0  0  0  0  0  0  0  0  0  0  0
   -3.4267   -2.0426    0.9524 H   0  0  0  0  0  0  0  0  0  0  0  0
   -3.0538   -2.7186   -0.6556 H   0  0  0  0  0  0  0  0  0  0  0  0
   -1.3498   -2.2206    0.5184 C   0  0  0  0  0  0  0  0  0  0  0  0
   -0.4997   -2.9426    1.0194 O   0  0  0  0  0  0  0  0  0  0  0  0
   -1.1198   -0.9926    0.0674 N   0  0  0  0  0  0  0  0  0  0  0  0
   -1.8978   -0.4486   -0.2716 H   0  0  0  0  0  0  0  0  0  0  0  0
    0.1693   -0.2866    0.0854 C   0  0  1  0  0  0  0  0  0  0  0  0
    0.7178   -0.5217   -0.8284 H   0  0  0  0  0  0  0  0  0  0  0  0
   -0.0843    1.2361    0.1200 C   0  0  0  0  0  0  0  0  0  0  0  0
   -0.7796    1.4571    0.9317 H   0  0  0  0  0  0  0  0  0  0  0  0
    0.8569    1.7447    0.3401 H   0  0  0  0  0  0  0  0  0  0  0  0
   -0.6814    1.8127   -1.1732 C   0  0  0  0  0  0  0  0  0  0  0  0
   -0.4191    1.2445   -2.2595 O   0  5  0  0  0  0  0  0  0  0  0  0
   -1.3867    2.8388   -1.0642 O   0  0  0  0  0  0  0  0  0  0  0  0
    1.0103   -0.7664    1.2911 C   0  0  0  0  0  0  0  0  0  0  0  0
    0.7249   -0.4032    2.4383 O   0  0  0  0  0  0  0  0  0  0  0  0
    2.0340   -1.5913    1.0495 N   0  0  0  0  0  0  0  0  0  0  0  0
    2.2432   -1.7633    0.0642 H   0  0  0  0  0  0  0  0  0  0  0  0
    2.9393   -2.1274    2.0603 C   0  0  0  0  0  0  0  0  0  0  0  0
    2.3661   -2.4721    2.9219 H   0  0  0  0  0  0  0  0  0  0  0  0
    3.5054   -2.9583    1.6403 H   0  0  0  0  0  0  0  0  0  0  0  0
    3.6267   -1.3436    2.3790 H   0  0  0  0  0  0  0  0  0  0  0  0
  5  6  2  0  0  0  0
  5  7  1  0  0  0  0
  2  3  1  0  0  0  0
  2  4  1  0  0  0  0
  2  5  1  0  0  0  0
  1  2  1  0  0  0  0
 17 18  2  0  0  0  0
 17 19  1  0  0  0  0
 14 15  1  0  0  0  0
 14 16  2  0  0  0  0
 11 12  1  0  0  0  0
 11 13  1  0  0  0  0
 11 14  1  0  0  0  0
  9 10  1  0  0  0  0
  9 11  1  0  0  0  0
  9 17  1  0  0  0  0
  7  8  1  0  0  0  0
  7  9  1  0  0  0  0
 21 22  1  0  0  0  0
 21 23  1  0  0  0  0
 21 24  1  0  0  0  0
 19 20  1  0  0  0  0
 19 21  1  0  0  0  0
M  CHG  1  15  -1
M  END
$$$$
default_name
  -OEChem-01062215323D

 24 23  0     1  0  0  0  0  0999 V2000
   -2.8347   -3.7166    0.8034 H   0  0  0  0  0  0  0  0  0  0  0  0
   -2.7728   -2.7096    0.3954 C   0  0  0  0  0  0  0  0  0  0  0  0
   -3.4267   -2.0426    0.9524 H   0  0  0  0  0  0  0  0  0  0  0  0
   -3.0538   -2.7186   -0.6556 H   0  0  0  0  0  0  0  0  0  0  0  0
   -1.3498   -2.2206    0.5184 C   0  0  0  0  0  0  0  0  0  0  0  0
   -0.4997   -2.9426    1.0194 O   0  0  0  0  0  0  0  0  0  0  0  0
   -1.1198   -0.9926    0.0674 N   0  0  0  0  0  0  0  0  0  0  0  0
   -1.8978   -0.4486   -0.2716 H   0  0  0  0  0  0  0  0  0  0  0  0
    0.1693   -0.2866    0.0854 C   0  0  1  0  0  0  0  0  0  0  0  0
    0.7178   -0.5217   -0.8284 H   0  0  0  0  0  0  0  0  0  0  0  0
   -0.0843    1.2361    0.1200 C   0  0  0  0  0  0  0  0  0  0  0  0
   -0.7796    1.4571    0.9317 H   0  0  0  0  0  0  0  0  0  0  0  0
    0.8569    1.7447    0.3401 H   0  0  0  0  0  0  0  0  0  0  0  0
   -0.6814    1.8127   -1.1732 C   0  0  0  0  0  0  0  0  0  0  0  0
   -0.4191    1.2445   -2.2595 O   0  5  0  0  0  0  0  0  0  0  0  0
   -1.3867    2.8388   -1.0642 O   0  0  0  0  0  0  0  0  0  0  0  0
    1.0103   -0.7664    1.2911 C   0  0  0  0  0  0  0  0  0  0  0  0
    0.5809   -0.6413    2.4441 O   0  0  0  0  0  0  0  0  0  0  0  0
    2.1965   -1.3292    1.0404 N   0  0  0  0  0  0  0  0  0  0  0  0
    2.5013   -1.3081    0.0653 H   0  0  0  0  0  0  0  0  0  0  0  0
    3.1248   -1.8219    2.0525 C   0  0  0  0  0  0  0  0  0  0  0  0
    2.5802   -2.3968    2.8026 H   0  0  0  0  0  0  0  0  0  0  0  0
    3.8775   -2.4537    1.5816 H   0  0  0  0  0  0  0  0  0  0  0  0
    3.6121   -0.9749    2.5359 H   0  0  0  0  0  0  0  0  0  0  0  0
  5  6  2  0  0  0  0
  5  7  1  0  0  0  0
  2  3  1  0  0  0  0
  2  4  1  0  0  0  0
  2  5  1  0  0  0  0
  1  2  1  0  0  0  0
 17 18  2  0  0  0  0
 17 19  1  0  0  0  0
 14 15  1  0  0  0  0
 14 16  2  0  0  0  0
 11 12  1  0  0  0  0
 11 13  1  0  0  0  0
 11 14  1  0  0  0  0
  9 10  1  0  0  0  0
  9 11  1  0  0  0  0
  9 17  1  0  0  0  0
  7  8  1  0  0  0  0
  7  9  1  0  0  0  0
 21 22  1  0  0  0  0
 21 23  1  0  0  0  0
 21 24  1  0  0  0  0
 19 20  1  0  0  0  0
 19 21  1  0  0  0  0
M  CHG  1  15  -1
M  END
$$$$
default_name
  -OEChem-01062215323D

 24 23  0     1  0  0  0  0  0999 V2000
   -2.8347   -3.7166    0.8034 H   0  0  0  0  0  0  0  0  0  0  0  0
   -2.7728   -2.7096    0.3954 C   0  0  0  0  0  0  0  0  0  0  0  0
   -3.4267   -2.0426    0.9524 H   0  0  0  0  0  0  0  0  0  0  0  0
   -3.0538   -2.7186   -0.6556 H   0  0  0  0  0  0  0  0  0  0  0  0
   -1.3498   -2.2206    0.5184 C   0  0  0  0  0  0  0  0  0  0  0  0
   -0.4997   -2.9426    1.0194 O   0  0  0  0  0  0  0  0  0  0  0  0
   -1.1198   -0.9926    0.0674 N   0  0  0  0  0  0  0  0  0  0  0  0
   -1.8978   -0.4486   -0.2716 H   0  0  0  0  0  0  0  0  0  0  0  0
    0.1693   -0.2866    0.0854 C   0  0  1  0  0  0  0  0  0  0  0  0
    0.7178   -0.5217   -0.8284 H   0  0  0  0  0  0  0  0  0  0  0  0
   -0.0843    1.2361    0.1200 C   0  0  0  0  0  0  0  0  0  0  0  0
   -0.7796    1.4571    0.9317 H   0  0  0  0  0  0  0  0  0  0  0  0
    0.8569    1.7447    0.3401 H   0  0  0  0  0  0  0  0  0  0  0  0
   -0.6814    1.8127   -1.1732 C   0  0  0  0  0  0  0  0  0  0  0  0
   -0.4191    1.2445   -2.2595 O   0  5  0  0  0  0  0  0  0  0  0  0
   -1.3867    2.8388   -1.0642 O   0  0  0  0  0  0  0  0  0  0  0  0
    1.0103   -0.7664    1.2911 C   0  0  0  0  0  0  0  0  0  0  0  0
    0.4892   -0.9012    2.4046 O   0  0  0  0  0  0  0  0  0  0  0  0
    2.3014   -1.0419    1.0816 N   0  0  0  0  0  0  0  0  0  0  0  0
    2.6586   -0.8165    0.1512 H   0  0  0  0  0  0  0  0  0  0  0  0
    3.2430   -1.4883    2.1028 C   0  0  0  0  0  0  0  0  0  0  0  0
    2.7813   -2.2640    2.7151 H   0  0  0  0  0  0  0  0  0  0  0  0
    4.1397   -1.8829    1.6258 H   0  0  0  0  0  0  0  0  0  0  0  0
    3.5109   -0.6439    2.7382 H   0  0  0  0  0  0  0  0  0  0  0  0
  5  6  2  0  0  0  0
  5  7  1  0  0  0  0
  2  3  1  0  0  0  0
  2  4  1  0  0  0  0
  2  5  1  0  0  0  0
  1  2  1  0  0  0  0
 17 18  2  0  0  0  0
 17 19  1  0  0  0  0
 14 15  1  0  0  0  0
 14 16  2  0  0  0  0
 11 12  1  0  0  0  0
 11 13  1  0  0  0  0
 11 14  1  0  0  0  0
  9 10  1  0  0  0  0
  9 11  1  0  0  0  0
  9 17  1  0  0  0  0
  7  8  1  0  0  0  0
  7  9  1  0  0  0  0
 21 22  1  0  0  0  0
 21 23  1  0  0  0  0
 21 24  1  0  0  0  0
 19 20  1  0  0  0  0
 19 21  1  0  0  0  0
M  CHG  1  15  -1
M  END
$$$$
default_name
  -OEChem-01062215323D

 24 23  0     1  0  0  0  0  0999 V2000
   -2.8347   -3.7166    0.8034 H   0  0  0  0  0  0  0  0  0  0  0  0
   -2.7728   -2.7096    0.3954 C   0  0  0  0  0  0  0  0  0  0  0  0
   -3.4267   -2.0426    0.9524 H   0  0  0  0  0  0  0  0  0  0  0  0
   -3.0538   -2.7186   -0.6556 H   0  0  0  0  0  0  0  0  0  0  0  0
   -1.3498   -2.2206    0.5184 C   0  0  0  0  0  0  0  0  0  0  0  0
   -0.4997   -2.9426    1.0194 O   0  0  0  0  0  0  0  0  0  0  0  0
   -1.1198   -0.9926    0.0674 N   0  0  0  0  0  0  0  0  0  0  0  0
   -1.8978   -0.4486   -0.2716 H   0  0  0  0  0  0  0  0  0  0  0  0
    0.1693   -0.2866    0.0854 C   0  0  1  0  0  0  0  0  0  0  0  0
    0.7178   -0.5217   -0.8284 H   0  0  0  0  0  0  0  0  0  0  0  0
   -0.0843    1.2361    0.1200 C   0  0  0  0  0  0  0  0  0  0  0  0
   -0.7796    1.4571    0.9317 H   0  0  0  0  0  0  0  0  0  0  0  0
    0.8569    1.7447    0.3401 H   0  0  0  0  0  0  0  0  0  0  0  0
   -0.6814    1.8127   -1.1732 C   0  0  0  0  0  0  0  0  0  0  0  0
   -0.4191    1.2445   -2.2595 O   0  5  0  0  0  0  0  0  0  0  0  0
   -1.3867    2.8388   -1.0642 O   0  0  0  0  0  0  0  0  0  0  0  0
    1.0103   -0.7664    1.2911 C   0  0  0  0  0  0  0  0  0  0  0  0
    0.4564   -1.1651    2.3225 O   0  0  0  0  0  0  0  0  0  0  0  0
    2.3414   -0.7491    1.1702 N   0  0  0  0  0  0  0  0  0  0  0  0
    2.7045   -0.3219    0.3160 H   0  0  0  0  0  0  0  0  0  0  0  0
    3.2858   -1.1493    2.2079 C   0  0  0  0  0  0  0  0  0  0  0  0
    2.9558   -2.0829    2.6654 H   0  0  0  0  0  0  0  0  0  0  0  0
    4.2743   -1.2849    1.7699 H   0  0  0  0  0  0  0  0  0  0  0  0
    3.3302   -0.3731    2.9720 H   0  0  0  0  0  0  0  0  0  0  0  0
  5  6  2  0  0  0  0
  5  7  1  0  0  0  0
  2  3  1  0  0  0  0
  2  4  1  0  0  0  0
  2  5  1  0  0  0  0
  1  2  1  0  0  0  0
 17 18  2  0  0  0  0
 17 19  1  0  0  0  0
 14 15  1  0  0  0  0
 14 16  2  0  0  0  0
 11 12  1  0  0  0  0
 11 13  1  0  0  0  0
 11 14  1  0  0  0  0
  9 10  1  0  0  0  0
  9 11  1  0  0  0  0
  9 17  1  0  0  0  0
  7  8  1  0  0  0  0
  7  9  1  0  0  0  0
 21 22  1  0  0  0  0
 21 23  1  0  0  0  0
 21 24  1  0  0  0  0
 19 20  1  0  0  0  0
 19 21  1  0  0  0  0
M  CHG  1  15  -1
M  END
$$$$
default_name
  -OEChem-01062215323D

 24 23  0     1  0  0  0  0  0999 V2000
   -2.8347   -3.7166    0.8034 H   0  0  0  0  0  0  0  0  0  0  0  0
   -2.7728   -2.7096    0.3954 C   0  0  0  0  0  0  0  0  0  0  0  0
   -3.4267   -2.0426    0.9524 H   0  0  0  0  0  0  0  0  0  0  0  0
   -3.0538   -2.7186   -0.6556 H   0  0  0  0  0  0  0  0  0  0  0  0
   -1.3498   -2.2206    0.5184 C   0  0  0  0  0  0  0  0  0  0  0  0
   -0.4997   -2.9426    1.0194 O   0  0  0  0  0  0  0  0  0  0  0  0
   -1.1198   -0.9926    0.0674 N   0  0  0  0  0  0  0  0  0  0  0  0
   -1.8978   -0.4486   -0.2716 H   0  0  0  0  0  0  0  0  0  0  0  0
    0.1693   -0.2866    0.0854 C   0  0  1  0  0  0  0  0  0  0  0  0
    0.7178   -0.5217   -0.8284 H   0  0  0  0  0  0  0  0  0  0  0  0
   -0.0843    1.2361    0.1200 C   0  0  0  0  0  0  0  0  0  0  0  0
   -0.7796    1.4571    0.9317 H   0  0  0  0  0  0  0  0  0  0  0  0
    0.8569    1.7447    0.3401 H   0  0  0  0  0  0  0  0  0  0  0  0
   -0.6814    1.8127   -1.1732 C   0  0  0  0  0  0  0  0  0  0  0  0
   -0.4191    1.2445   -2.2595 O   0  5  0  0  0  0  0  0  0  0  0  0
   -1.3867    2.8388   -1.0642 O   0  0  0  0  0  0  0  0  0  0  0  0
    1.0103   -0.7664    1.2911 C   0  0  0  0  0  0  0  0  0  0  0  0
    0.4845   -1.4151    2.2034 O   0  0  0  0  0  0  0  0  0  0  0  0
    2.3138   -0.4707    1.3003 N   0  0  0  0  0  0  0  0  0  0  0  0
    2.6358    0.1418    0.5485 H   0  0  0  0  0  0  0  0  0  0  0  0
    3.2503   -0.8280    2.3605 C   0  0  0  0  0  0  0  0  0  0  0  0
    3.0919   -1.8657    2.6570 H   0  0  0  0  0  0  0  0  0  0  0  0
    4.2721   -0.7004    2.0041 H   0  0  0  0  0  0  0  0  0  0  0  0
    3.0822   -0.1808    3.2215 H   0  0  0  0  0  0  0  0  0  0  0  0
  5  6  2  0  0  0  0
  5  7  1  0  0  0  0
  2  3  1  0  0  0  0
  2  4  1  0  0  0  0
  2  5  1  0  0  0  0
  1  2  1  0  0  0  0
 17 18  2  0  0  0  0
 17 19  1  0  0  0  0
 14 15  1  0  0  0  0
 14 16  2  0  0  0  0
 11 12  1  0  0  0  0
 11 13  1  0  0  0  0
 11 14  1  0  0  0  0
  9 10  1  0  0  0  0
  9 11  1  0  0  0  0
  9 17  1  0  0  0  0
  7  8  1  0  0  0  0
  7  9  1  0  0  0  0
 21 22  1  0  0  0  0
 21 23  1  0  0  0  0
 21 24  1  0  0  0  0
 19 20  1  0  0  0  0
 19 21  1  0  0  0  0
M  CHG  1  15  -1
M  END
$$$$
default_name
  -OEChem-01062215323D

 24 23  0     1  0  0  0  0  0999 V2000
   -2.8347   -3.7166    0.8034 H   0  0  0  0  0  0  0  0  0  0  0  0
   -2.7728   -2.7096    0.3954 C   0  0  0  0  0  0  0  0  0  0  0  0
   -3.4267   -2.0426    0.9524 H   0  0  0  0  0  0  0  0  0  0  0  0
   -3.0538   -2.7186   -0.6556 H   0  0  0  0  0  0  0  0  0  0  0  0
   -1.3498   -2.2206    0.5184 C   0  0  0  0  0  0  0  0  0  0  0  0
   -0.4997   -2.9426    1.0194 O   0  0  0  0  0  0  0  0  0  0  0  0
   -1.1198   -0.9926    0.0674 N   0  0  0  0  0  0  0  0  0  0  0  0
   -1.8978   -0.4486   -0.2716 H   0  0  0  0  0  0  0  0  0  0  0  0
    0.1693   -0.2866    0.0854 C   0  0  1  0  0  0  0  0  0  0  0  0
    0.5969   -0.2987   -0.9187 H   0  0  0  0  0  0  0  0  0  0  0  0
   -0.0610    1.1839    0.4962 C   0  0  0  0  0  0  0  0  0  0  0  0
   -0.6471    1.2029    1.4167 H   0  0  0  0  0  0  0  0  0  0  0  0
    0.9059    1.6457    0.7077 H   0  0  0  0  0  0  0  0  0  0  0  0
   -0.8082    2.0282   -0.5480 C   0  0  0  0  0  0  0  0  0  0  0  0
   -0.6898    1.7258   -1.7588 O   0  5  0  0  0  0  0  0  0  0  0  0
   -1.4828    2.9903   -0.1222 O   0  0  0  0  0  0  0  0  0  0  0  0
    1.1486   -1.0126    1.0368 C   0  0  0  0  0  0  0  0  0  0  0  0
    0.7990   -2.0385    1.6323 O   0  0  0  0  0  0  0  0  0  0  0  0
    2.3768   -0.5036    1.1755 N   0  0  0  0  0  0  0  0  0  0  0  0
    2.5417    0.3921    0.7123 H   0  0  0  0  0  0  0  0  0  0  0  0
    3.4199   -1.0465    2.0392 C   0  0  0  0  0  0  0  0  0  0  0  0
    3.4662   -2.1301    1.9238 H   0  0  0  0  0  0  0  0  0  0  0  0
    4.3809   -0.6078    1.7719 H   0  0  0  0  0  0  0  0  0  0  0  0
    3.1875   -0.8074    3.0772 H   0  0  0  0  0  0  0  0  0  0  0  0
  5  6  2  0  0  0  0
  5  7  1  0  0  0  0
  2  3  1  0  0  0  0
  2  4  1  0  0  0  0
  2  5  1  0  0  0  0
  1  2  1  0  0  0  0
 17 18  2  0  0  0  0
 17 19  1  0  0  0  0
 14 15  1  0  0  0  0
 14 16  2  0  0  0  0
 11 12  1  0  0  0  0
 11 13  1  0  0  0  0
 11 14  1  0  0  0  0
  9 10  1  0  0  0  0
  9 11  1  0  0  0  0
  9 17  1  0  0  0  0
  7  8  1  0  0  0  0
  7  9  1  0  0  0  0
 21 22  1  0  0  0  0
 21 23  1  0  0  0  0
 21 24  1  0  0  0  0
 19 20  1  0  0  0  0
 19 21  1  0  0  0  0
M  CHG  1  15  -1
M  END
$$$$
default_name
  -OEChem-01062215323D

 24 23  0     1  0  0  0  0  0999 V2000
   -2.8347   -3.7166    0.8034 H   0  0  0  0  0  0  0  0  0  0  0  0
   -2.7728   -2.7096    0.3954 C   0  0  0  0  0  0  0  0  0  0  0  0
   -3.4267   -2.0426    0.9524 H   0  0  0  0  0  0  0  0  0  0  0  0
   -3.0538   -2.7186   -0.6556 H   0  0  0  0  0  0  0  0  0  0  0  0
   -1.3498   -2.2206    0.5184 C   0  0  0  0  0  0  0  0  0  0  0  0
   -0.4997   -2.9426    1.0194 O   0  0  0  0  0  0  0  0  0  0  0  0
   -1.1198   -0.9926    0.0674 N   0  0  0  0  0  0  0  0  0  0  0  0
   -1.8978   -0.4486   -0.2716 H   0  0  0  0  0  0  0  0  0  0  0  0
    0.1693   -0.2866    0.0854 C   0  0  1  0  0  0  0  0  0  0  0  0
    0.5969   -0.2987   -0.9187 H   0  0  0  0  0  0  0  0  0  0  0  0
   -0.0610    1.1839    0.4962 C   0  0  0  0  0  0  0  0  0  0  0  0
   -0.6471    1.2029    1.4167 H   0  0  0  0  0  0  0  0  0  0  0  0
    0.9059    1.6457    0.7077 H   0  0  0  0  0  0  0  0  0  0  0  0
   -0.8082    2.0282   -0.5480 C   0  0  0  0  0  0  0  0  0  0  0  0
   -0.6898    1.7258   -1.7588 O   0  5  0  0  0  0  0  0  0  0  0  0
   -1.4828    2.9903   -0.1222 O   0  0  0  0  0  0  0  0  0  0  0  0
    1.1486   -1.0126    1.0368 C   0  0  0  0  0  0  0  0  0  0  0  0
    0.9155   -2.1669    1.4145 O   0  0  0  0  0  0  0  0  0  0  0  0
    2.2505   -0.3581    1.4166 N   0  0  0  0  0  0  0  0  0  0  0  0
    2.3105    0.6188    1.1233 H   0  0  0  0  0  0  0  0  0  0  0  0
    3.2708   -0.8811    2.3189 C   0  0  0  0  0  0  0  0  0  0  0  0
    3.5122   -1.9090    2.0452 H   0  0  0  0  0  0  0  0  0  0  0  0
    4.1669   -0.2644    2.2543 H   0  0  0  0  0  0  0  0  0  0  0  0
    2.8903   -0.8634    3.3404 H   0  0  0  0  0  0  0  0  0  0  0  0
  5  6  2  0  0  0  0
  5  7  1  0  0  0  0
  2  3  1  0  0  0  0
  2  4  1  0  0  0  0
  2  5  1  0  0  0  0
  1  2  1  0  0  0  0
 17 18  2  0  0  0  0
 17 19  1  0  0  0  0
 14 15  1  0  0  0  0
 14 16  2  0  0  0  0
 11 12  1  0  0  0  0
 11 13  1  0  0  0  0
 11 14  1  0  0  0  0
  9 10  1  0  0  0  0
  9 11  1  0  0  0  0
  9 17  1  0  0  0  0
  7  8  1  0  0  0  0
  7  9  1  0  0  0  0
 21 22  1  0  0  0  0
 21 23  1  0  0  0  0
 21 24  1  0  0  0  0
 19 20  1  0  0  0  0
 19 21  1  0  0  0  0
M  CHG  1  15  -1
M  END
$$$$
default_name
  -OEChem-01062215323D

 24 23  0     1  0  0  0  0  0999 V2000
   -2.8347   -3.7166    0.8034 H   0  0  0  0  0  0  0  0  0  0  0  0
   -2.7728   -2.7096    0.3954 C   0  0  0  0  0  0  0  0  0  0  0  0
   -3.4267   -2.0426    0.9524 H   0  0  0  0  0  0  0  0  0  0  0  0
   -3.0538   -2.7186   -0.6556 H   0  0  0  0  0  0  0  0  0  0  0  0
   -1.3498   -2.2206    0.5184 C   0  0  0  0  0  0  0  0  0  0  0  0
   -0.4997   -2.9426    1.0194 O   0  0  0  0  0  0  0  0  0  0  0  0
   -1.1198   -0.9926    0.0674 N   0  0  0  0  0  0  0  0  0  0  0  0
   -1.8978   -0.4486   -0.2716 H   0  0  0  0  0  0  0  0  0  0  0  0
    0.1693   -0.2866    0.0854 C   0  0  1  0  0  0  0  0  0  0  0  0
    0.5969   -0.2987   -0.9187 H   0  0  0  0  0  0  0  0  0  0  0  0
   -0.0610    1.1839    0.4962 C   0  0  0  0  0  0  0  0  0  0  0  0
   -0.6471    1.2029    1.4167 H   0  0  0  0  0  0  0  0  0  0  0  0
    0.9059    1.6457    0.7077 H   0  0  0  0  0  0  0  0  0  0  0  0
   -0.8082    2.0282   -0.5480 C   0  0  0  0  0  0  0  0  0  0  0  0
   -0.6898    1.7258   -1.7588 O   0  5  0  0  0  0  0  0  0  0  0  0
   -1.4828    2.9903   -0.1222 O   0  0  0  0  0  0  0  0  0  0  0  0
    1.1486   -1.0126    1.0368 C   0  0  0  0  0  0  0  0  0  0  0  0
    1.0748   -2.2366    1.1972 O   0  0  0  0  0  0  0  0  0  0  0  0
    2.0761   -0.2772    1.6579 N   0  0  0  0  0  0  0  0  0  0  0  0
    2.0011    0.7337    1.5295 H   0  0  0  0  0  0  0  0  0  0  0  0
    3.0665   -0.7910    2.5980 C   0  0  0  0  0  0  0  0  0  0  0  0
    3.5067   -1.7080    2.2042 H   0  0  0  0  0  0  0  0  0  0  0  0
    3.8468   -0.0458    2.7506 H   0  0  0  0  0  0  0  0  0  0  0  0
    2.5802   -1.0080    3.5493 H   0  0  0  0  0  0  0  0  0  0  0  0
  5  6  2  0  0  0  0
  5  7  1  0  0  0  0
  2  3  1  0  0  0  0
  2  4  1  0  0  0  0
  2  5  1  0  0  0  0
  1  2  1  0  0  0  0
 17 18  2  0  0  0  0
 17 19  1  0  0  0  0
 14 15  1  0  0  0  0
 14 16  2  0  0  0  0
 11 12  1  0  0  0  0
 11 13  1  0  0  0  0
 11 14  1  0  0  0  0
  9 10  1  0  0  0  0
  9 11  1  0  0  0  0
  9 17  1  0  0  0  0
  7  8  1  0  0  0  0
  7  9  1  0  0  0  0
 21 22  1  0  0  0  0
 21 23  1  0  0  0  0
 21 24  1  0  0  0  0
 19 20  1  0  0  0  0
 19 21  1  0  0  0  0
M  CHG  1  15  -1
M  END
$$$$
default_name
  -OEChem-01062215323D

 24 23  0     1  0  0  0  0  0999 V2000
   -2.8347   -3.7166    0.8034 H   0  0  0  0  0  0  0  0  0  0  0  0
   -2.7728   -2.7096    0.3954 C   0  0  0  0  0  0  0  0  0  0  0  0
   -3.4267   -2.0426    0.9524 H   0  0  0  0  0  0  0  0  0  0  0  0
   -3.0538   -2.7186   -0.6556 H   0  0  0  0  0  0  0  0  0  0  0  0
   -1.3498   -2.2206    0.5184 C   0  0  0  0  0  0  0  0  0  0  0  0
   -0.4997   -2.9426    1.0194 O   0  0  0  0  0  0  0  0  0  0  0  0
   -1.1198   -0.9926    0.0674 N   0  0  0  0  0  0  0  0  0  0  0  0
   -1.8978   -0.4486   -0.2716 H   0  0  0  0  0  0  0  0  0  0  0  0
    0.1693   -0.2866    0.0854 C   0  0  1  0  0  0  0  0  0  0  0  0
    0.5969   -0.2987   -0.9187 H   0  0  0  0  0  0  0  0  0  0  0  0
   -0.0610    1.1839    0.4962 C   0  0  0  0  0  0  0  0  0  0  0  0
   -0.6471    1.2029    1.4167 H   0  0  0  0  0  0  0  0  0  0  0  0
    0.9059    1.6457    0.7077 H   0  0  0  0  0  0  0  0  0  0  0  0
   -0.8082    2.0282   -0.5480 C   0  0  0  0  0  0  0  0  0  0  0  0
   -0.6898    1.7258   -1.7588 O   0  5  0  0  0  0  0  0  0  0  0  0
   -1.4828    2.9903   -0.1222 O   0  0  0  0  0  0  0  0  0  0  0  0
    1.1486   -1.0126    1.0368 C   0  0  0  0  0  0  0  0  0  0  0  0
    1.2663   -2.2430    0.9953 O   0  0  0  0  0  0  0  0  0  0  0  0
    1.8654   -0.2664    1.8830 N   0  0  0  0  0  0  0  0  0  0  0  0
    1.6347    0.7288    1.9030 H   0  0  0  0  0  0  0  0  0  0  0  0
    2.8209   -0.7822    2.8576 C   0  0  0  0  0  0  0  0  0  0  0  0
    3.4500   -1.5408    2.3902 H   0  0  0  0  0  0  0  0  0  0  0  0
    3.4425    0.0330    3.2269 H   0  0  0  0  0  0  0  0  0  0  0  0
    2.2783   -1.2312    3.6897 H   0  0  0  0  0  0  0  0  0  0  0  0
  5  6  2  0  0  0  0
  5  7  1  0  0  0  0
  2  3  1  0  0  0  0
  2  4  1  0  0  0  0
  2  5  1  0  0  0  0
  1  2  1  0  0  0  0
 17 18  2  0  0  0  0
 17 19  1  0  0  0  0
 14 15  1  0  0  0  0
 14 16  2  0  0  0  0
 11 12  1  0  0  0  0
 11 13  1  0  0  0  0
 11 14  1  0  0  0  0
  9 10  1  0  0  0  0
  9 11  1  0  0  0  0
  9 17  1  0  0  0  0
  7  8  1  0  0  0  0
  7  9  1  0  0  0  0
 21 22  1  0  0  0  0
 21 23  1  0  0  0  0
 21 24  1  0  0  0  0
 19 20  1  0  0  0  0
 19 21  1  0  0  0  0
M  CHG  1  15  -1
M  END
$$$$
default_name
  -OEChem-01062215323D

 24 23  0     1  0  0  0  0  0999 V2000
   -2.8347   -3.7166    0.8034 H   0  0  0  0  0  0  0  0  0  0  0  0
   -2.7728   -2.7096    0.3954 C   0  0  0  0  0  0  0  0  0  0  0  0
   -3.4267   -2.0426    0.9524 H   0  0  0  0  0  0  0  0  0  0  0  0
   -3.0538   -2.7186   -0.6556 H   0  0  0  0  0  0  0  0  0  0  0  0
   -1.3498   -2.2206    0.5184 C   0  0  0  0  0  0  0  0  0  0  0  0
   -0.4997   -2.9426    1.0194 O   0  0  0  0  0  0  0  0  0  0  0  0
   -1.1198   -0.9926    0.0674 N   0  0  0  0  0  0  0  0  0  0  0  0
   -1.8978   -0.4486   -0.2716 H   0  0  0  0  0  0  0  0  0  0  0  0
    0.1693   -0.2866    0.0854 C   0  0  1  0  0  0  0  0  0  0  0  0
    0.5969   -0.2987   -0.9187 H   0  0  0  0  0  0  0  0  0  0  0  0
   -0.0610    1.1839    0.4962 C   0  0  0  0  0  0  0  0  0  0  0  0
   -0.6471    1.2029    1.4167 H   0  0  0  0  0  0  0  0  0  0  0  0
    0.9059    1.6457    0.7077 H   0  0  0  0  0  0  0  0  0  0  0  0
   -0.8082    2.0282   -0.5480 C   0  0  0  0  0  0  0  0  0  0  0  0
   -0.6898    1.7258   -1.7588 O   0  5  0  0  0  0  0  0  0  0  0  0
   -1.4828    2.9903   -0.1222 O   0  0  0  0  0  0  0  0  0  0  0  0
    1.1486   -1.0126    1.0368 C   0  0  0  0  0  0  0  0  0  0  0  0
    1.4768   -2.1855    0.8224 O   0  0  0  0  0  0  0  0  0  0  0  0
    1.6328   -0.3264    2.0767 N   0  0  0  0  0  0  0  0  0  0  0  0
    1.2361    0.6045    2.2185 H   0  0  0  0  0  0  0  0  0  0  0  0
    2.5507   -0.8554    3.0799 C   0  0  0  0  0  0  0  0  0  0  0  0
    3.3460   -1.4188    2.5903 H   0  0  0  0  0  0  0  0  0  0  0  0
    2.9816   -0.0333    3.6508 H   0  0  0  0  0  0  0  0  0  0  0  0
    2.0052   -1.5180    3.7521 H   0  0  0  0  0  0  0  0  0  0  0  0
  5  6  2  0  0  0  0
  5  7  1  0  0  0  0
  2  3  1  0  0  0  0
  2  4  1  0  0  0  0
  2  5  1  0  0  0  0
  1  2  1  0  0  0  0
 17 18  2  0  0  0  0
 17 19  1  0  0  0  0
 14 15  1  0  0  0  0
 14 16  2  0  0  0  0
 11 12  1  0  0  0  0
 11 13  1  0  0  0  0
 11 14  1  0  0  0  0
  9 10  1  0  0  0  0
  9 11  1  0  0  0  0
  9 17  1  0  0  0  0
  7  8  1  0  0  0  0
  7  9  1  0  0  0  0
 21 22  1  0  0  0  0
 21 23  1  0  0  0  0
 21 24  1  0  0  0  0
 19 20  1  0  0  0  0
 19 21  1  0  0  0  0
M  CHG  1  15  -1
M  END
$$$$
default_name
  -OEChem-01062215323D

 24 23  0     1  0  0  0  0  0999 V2000
   -2.8347   -3.7166    0.8034 H   0  0  0  0  0  0  0  0  0  0  0  0
   -2.7728   -2.7096    0.3954 C   0  0  0  0  0  0  0  0  0  0  0  0
   -3.4267   -2.0426    0.9524 H   0  0  0  0  0  0  0  0  0  0  0  0
   -3.0538   -2.7186   -0.6556 H   0  0  0  0  0  0  0  0  0  0  0  0
   -1.3498   -2.2206    0.5184 C   0  0  0  0  0  0  0  0  0  0  0  0
   -0.4997   -2.9426    1.0194 O   0  0  0  0  0  0  0  0  0  0  0  0
   -1.1198   -0.9926    0.0674 N   0  0  0  0  0  0  0  0  0  0  0  0
   -1.8978   -0.4486   -0.2716 H   0  0  0  0  0  0  0  0  0  0  0  0
    0.1693   -0.2866    0.0854 C   0  0  1  0  0  0  0  0  0  0  0  0
    0.5969   -0.2987   -0.9187 H   0  0  0  0  0  0  0  0  0  0  0  0
   -0.0610    1.1839    0.4962 C   0  0  0  0  0  0  0  0  0  0  0  0
   -0.6471    1.2029    1.4167 H   0  0  0  0  0  0  0  0  0  0  0  0
    0.9059    1.6457    0.7077 H   0  0  0  0  0  0  0  0  0  0  0  0
   -0.8082    2.0282   -0.5480 C   0  0  0  0  0  0  0  0  0  0  0  0
   -0.6898    1.7258   -1.7588 O   0  5  0  0  0  0  0  0  0  0  0  0
   -1.4828    2.9903   -0.1222 O   0  0  0  0  0  0  0  0  0  0  0  0
    1.1486   -1.0126    1.0368 C   0  0  0  0  0  0  0  0  0  0  0  0
    1.6919   -2.0682    0.6905 O   0  0  0  0  0  0  0  0  0  0  0  0
    1.3942   -0.4531    2.2256 N   0  0  0  0  0  0  0  0  0  0  0  0
    0.8325    0.3692    2.4544 H   0  0  0  0  0  0  0  0  0  0  0  0
    2.2743   -1.0055    3.2498 C   0  0  0  0  0  0  0  0  0  0  0  0
    3.2019   -1.3503    2.7910 H   0  0  0  0  0  0  0  0  0  0  0  0
    2.4955   -0.2403    3.9934 H   0  0  0  0  0  0  0  0  0  0  0  0
    1.7794   -1.8487    3.7322 H   0  0  0  0  0  0  0  0  0  0  0  0
  5  6  2  0  0  0  0
  5  7  1  0  0  0  0
  2  3  1  0  0  0  0
  2  4  1  0  0  0  0
  2  5  1  0  0  0  0
  1  2  1  0  0  0  0
 17 18  2  0  0  0  0
 17 19  1  0  0  0  0
 14 15  1  0  0  0  0
 14 16  2  0  0  0  0
 11 12  1  0  0  0  0
 11 13  1  0  0  0  0
 11 14  1  0  0  0  0
  9 10  1  0  0  0  0
  9 11  1  0  0  0  0
  9 17  1  0  0  0  0
  7  8  1  0  0  0  0
  7  9  1  0  0  0  0
 21 22  1  0  0  0  0
 21 23  1  0  0  0  0
 21 24  1  0  0  0  0
 19 20  1  0  0  0  0
 19 21  1  0  0  0  0
M  CHG  1  15  -1
M  END
$$$$
default_name
  -OEChem-01062215323D

 24 23  0     1  0  0  0  0  0999 V2000
   -2.8347   -3.7166    0.8034 H   0  0  0  0  0  0  0  0  0  0  0  0
   -2.7728   -2.7096    0.3954 C   0  0  0  0  0  0  0  0  0  0  0  0
   -3.4267   -2.0426    0.9524 H   0  0  0  0  0  0  0  0  0  0  0  0
   -3.0538   -2.7186   -0.6556 H   0  0  0  0  0  0  0  0  0  0  0  0
   -1.3498   -2.2206    0.5184 C   0  0  0  0  0  0  0  0  0  0  0  0
   -0.4997   -2.9426    1.0194 O   0  0  0  0  0  0  0  0  0  0  0  0
   -1.1198   -0.9926    0.0674 N   0  0  0  0  0  0  0  0  0  0  0  0
   -1.8978   -0.4486   -0.2716 H   0  0  0  0  0  0  0  0  0  0  0  0
    0.1693   -0.2866    0.0854 C   0  0  1  0  0  0  0  0  0  0  0  0
    0.5969   -0.2987   -0.9187 H   0  0  0  0  0  0  0  0  0  0  0  0
   -0.0610    1.1839    0.4962 C   0  0  0  0  0  0  0  0  0  0  0  0
   -0.6471    1.2029    1.4167 H   0  0  0  0  0  0  0  0  0  0  0  0
    0.9059    1.6457    0.7077 H   0  0  0  0  0  0  0  0  0  0  0  0
   -0.8082    2.0282   -0.5480 C   0  0  0  0  0  0  0  0  0  0  0  0
   -0.6898    1.7258   -1.7588 O   0  5  0  0  0  0  0  0  0  0  0  0
   -1.4828    2.9903   -0.1222 O   0  0  0  0  0  0  0  0  0  0  0  0
    1.1486   -1.0126    1.0368 C   0  0  0  0  0  0  0  0  0  0  0  0
    1.8971   -1.8990    0.6084 O   0  0  0  0  0  0  0  0  0  0  0  0
    1.1658   -0.6379    2.3198 N   0  0  0  0  0  0  0  0  0  0  0  0
    0.4515    0.0391    2.5947 H   0  0  0  0  0  0  0  0  0  0  0  0
    2.0106   -1.2224    3.3558 C   0  0  0  0  0  0  0  0  0  0  0  0
    3.0273   -1.3401    2.9785 H   0  0  0  0  0  0  0  0  0  0  0  0
    2.0172   -0.5737    4.2313 H   0  0  0  0  0  0  0  0  0  0  0  0
    1.6164   -2.2008    3.6313 H   0  0  0  0  0  0  0  0  0  0  0  0
  5  6  2  0  0  0  0
  5  7  1  0  0  0  0
  2  3  1  0  0  0  0
  2  4  1  0  0  0  0
  2  5  1  0  0  0  0
  1  2  1  0  0  0  0
 17 18  2  0  0  0  0
 17 19  1  0  0  0  0
 14 15  1  0  0  0  0
 14 16  2  0  0  0  0
 11 12  1  0  0  0  0
 11 13  1  0  0  0  0
 11 14  1  0  0  0  0
  9 10  1  0  0  0  0
  9 11  1  0  0  0  0
  9 17  1  0  0  0  0
  7  8  1  0  0  0  0
  7  9  1  0  0  0  0
 21 22  1  0  0  0  0
 21 23  1  0  0  0  0
 21 24  1  0  0  0  0
 19 20  1  0  0  0  0
 19 21  1  0  0  0  0
M  CHG  1  15  -1
M  END
$$$$
default_name
  -OEChem-01062215323D

 24 23  0     1  0  0  0  0  0999 V2000
   -2.8347   -3.7166    0.8034 H   0  0  0  0  0  0  0  0  0  0  0  0
   -2.7728   -2.7096    0.3954 C   0  0  0  0  0  0  0  0  0  0  0  0
   -3.4267   -2.0426    0.9524 H   0  0  0  0  0  0  0  0  0  0  0  0
   -3.0538   -2.7186   -0.6556 H   0  0  0  0  0  0  0  0  0  0  0  0
   -1.3498   -2.2206    0.5184 C   0  0  0  0  0  0  0  0  0  0  0  0
   -0.4997   -2.9426    1.0194 O   0  0  0  0  0  0  0  0  0  0  0  0
   -1.1198   -0.9926    0.0674 N   0  0  0  0  0  0  0  0  0  0  0  0
   -1.8978   -0.4486   -0.2716 H   0  0  0  0  0  0  0  0  0  0  0  0
    0.1693   -0.2866    0.0854 C   0  0  1  0  0  0  0  0  0  0  0  0
    0.5969   -0.2987   -0.9187 H   0  0  0  0  0  0  0  0  0  0  0  0
   -0.0610    1.1839    0.4962 C   0  0  0  0  0  0  0  0  0  0  0  0
   -0.6471    1.2029    1.4167 H   0  0  0  0  0  0  0  0  0  0  0  0
    0.9059    1.6457    0.7077 H   0  0  0  0  0  0  0  0  0  0  0  0
   -0.8082    2.0282   -0.5480 C   0  0  0  0  0  0  0  0  0  0  0  0
   -0.6898    1.7258   -1.7588 O   0  5  0  0  0  0  0  0  0  0  0  0
   -1.4828    2.9903   -0.1222 O   0  0  0  0  0  0  0  0  0  0  0  0
    1.1486   -1.0126    1.0368 C   0  0  0  0  0  0  0  0  0  0  0  0
    2.0783   -1.6894    0.5817 O   0  0  0  0  0  0  0  0  0  0  0  0
    0.9631   -0.8683    2.3526 N   0  0  0  0  0  0  0  0  0  0  0  0
    0.1191   -0.3635    2.6298 H   0  0  0  0  0  0  0  0  0  0  0  0
    1.7776   -1.4913    3.3905 C   0  0  0  0  0  0  0  0  0  0  0  0
    2.8343   -1.3886    3.1401 H   0  0  0  0  0  0  0  0  0  0  0  0
    1.5794   -1.0110    4.3483 H   0  0  0  0  0  0  0  0  0  0  0  0
    1.5273   -2.5503    3.4563 H   0  0  0  0  0  0  0  0  0  0  0  0
  5  6  2  0  0  0  0
  5  7  1  0  0  0  0
  2  3  1  0  0  0  0
  2  4  1  0  0  0  0
  2  5  1  0  0  0  0
  1  2  1  0  0  0  0
 17 18  2  0  0  0  0
 17 19  1  0  0  0  0
 14 15  1  0  0  0  0
 14 16  2  0  0  0  0
 11 12  1  0  0  0  0
 11 13  1  0  0  0  0
 11 14  1  0  0  0  0
  9 10  1  0  0  0  0
  9 11  1  0  0  0  0
  9 17  1  0  0  0  0
  7  8  1  0  0  0  0
  7  9  1  0  0  0  0
 21 22  1  0  0  0  0
 21 23  1  0  0  0  0
 21 24  1  0  0  0  0
 19 20  1  0  0  0  0
 19 21  1  0  0  0  0
M  CHG  1  15  -1
M  END
$$$$
default_name
  -OEChem-01062215323D

 24 23  0     1  0  0  0  0  0999 V2000
   -2.8347   -3.7166    0.8034 H   0  0  0  0  0  0  0  0  0  0  0  0
   -2.7728   -2.7096    0.3954 C   0  0  0  0  0  0  0  0  0  0  0  0
   -3.4267   -2.0426    0.9524 H   0  0  0  0  0  0  0  0  0  0  0  0
   -3.0538   -2.7186   -0.6556 H   0  0  0  0  0  0  0  0  0  0  0  0
   -1.3498   -2.2206    0.5184 C   0  0  0  0  0  0  0  0  0  0  0  0
   -0.4997   -2.9426    1.0194 O   0  0  0  0  0  0  0  0  0  0  0  0
   -1.1198   -0.9926    0.0674 N   0  0  0  0  0  0  0  0  0  0  0  0
   -1.8978   -0.4486   -0.2716 H   0  0  0  0  0  0  0  0  0  0  0  0
    0.1693   -0.2866    0.0854 C   0  0  1  0  0  0  0  0  0  0  0  0
    0.5969   -0.2987   -0.9187 H   0  0  0  0  0  0  0  0  0  0  0  0
   -0.0610    1.1839    0.4962 C   0  0  0  0  0  0  0  0  0  0  0  0
   -0.6471    1.2029    1.4167 H   0  0  0  0  0  0  0  0  0  0  0  0
    0.9059    1.6457    0.7077 H   0  0  0  0  0  0  0  0  0  0  0  0
   -0.8082    2.0282   -0.5480 C   0  0  0  0  0  0  0  0  0  0  0  0
   -0.6898    1.7258   -1.7588 O   0  5  0  0  0  0  0  0  0  0  0  0
   -1.4828    2.9903   -0.1222 O   0  0  0  0  0  0  0  0  0  0  0  0
    1.1486   -1.0126    1.0368 C   0  0  0  0  0  0  0  0  0  0  0  0
    2.2232   -1.4537    0.6124 O   0  0  0  0  0  0  0  0  0  0  0  0
    0.8001   -1.1284    2.3220 N   0  0  0  0  0  0  0  0  0  0  0  0
   -0.1423   -0.8111    2.5573 H   0  0  0  0  0  0  0  0  0  0  0  0
    1.5911   -1.7938    3.3517 C   0  0  0  0  0  0  0  0  0  0  0  0
    2.6360   -1.4928    3.2648 H   0  0  0  0  0  0  0  0  0  0  0  0
    1.2120   -1.5222    4.3365 H   0  0  0  0  0  0  0  0  0  0  0  0
    1.5182   -2.8734    3.2192 H   0  0  0  0  0  0  0  0  0  0  0  0
  5  6  2  0  0  0  0
  5  7  1  0  0  0  0
  2  3  1  0  0  0  0
  2  4  1  0  0  0  0
  2  5  1  0  0  0  0
  1  2  1  0  0  0  0
 17 18  2  0  0  0  0
 17 19  1  0  0  0  0
 14 15  1  0  0  0  0
 14 16  2  0  0  0  0
 11 12  1  0  0  0  0
 11 13  1  0  0  0  0
 11 14  1  0  0  0  0
  9 10  1  0  0  0  0
  9 11  1  0  0  0  0
  9 17  1  0  0  0  0
  7  8  1  0  0  0  0
  7  9  1  0  0  0  0
 21 22  1  0  0  0  0
 21 23  1  0  0  0  0
 21 24  1  0  0  0  0
 19 20  1  0  0  0  0
 19 21  1  0  0  0  0
M  CHG  1  15  -1
M  END
$$$$
default_name
  -OEChem-01062215323D

 24 23  0     1  0  0  0  0  0999 V2000
   -2.8347   -3.7166    0.8034 H   0  0  0  0  0  0  0  0  0  0  0  0
   -2.7728   -2.7096    0.3954 C   0  0  0  0  0  0  0  0  0  0  0  0
   -3.4267   -2.0426    0.9524 H   0  0  0  0  0  0  0  0  0  0  0  0
   -3.0538   -2.7186   -0.6556 H   0  0  0  0  0  0  0  0  0  0  0  0
   -1.3498   -2.2206    0.5184 C   0  0  0  0  0  0  0  0  0  0  0  0
   -0.4997   -2.9426    1.0194 O   0  0  0  0  0  0  0  0  0  0  0  0
   -1.1198   -0.9926    0.0674 N   0  0  0  0  0  0  0  0  0  0  0  0
   -1.8978   -0.4486   -0.2716 H   0  0  0  0  0  0  0  0  0  0  0  0
    0.1693   -0.2866    0.0854 C   0  0  1  0  0  0  0  0  0  0  0  0
    0.5969   -0.2987   -0.9187 H   0  0  0  0  0  0  0  0  0  0  0  0
   -0.0610    1.1839    0.4962 C   0  0  0  0  0  0  0  0  0  0  0  0
   -0.6471    1.2029    1.4167 H   0  0  0  0  0  0  0  0  0  0  0  0
    0.9059    1.6457    0.7077 H   0  0  0  0  0  0  0  0  0  0  0  0
   -0.8082    2.0282   -0.5480 C   0  0  0  0  0  0  0  0  0  0  0  0
   -0.6898    1.7258   -1.7588 O   0  5  0  0  0  0  0  0  0  0  0  0
   -1.4828    2.9903   -0.1222 O   0  0  0  0  0  0  0  0  0  0  0  0
    1.1486   -1.0126    1.0368 C   0  0  0  0  0  0  0  0  0  0  0  0
    2.3219   -1.2081    0.6982 O   0  0  0  0  0  0  0  0  0  0  0  0
    0.6877   -1.4006    2.2299 N   0  0  0  0  0  0  0  0  0  0  0  0
   -0.3146   -1.2731    2.3821 H   0  0  0  0  0  0  0  0  0  0  0  0
    1.4639   -2.1093    3.2419 C   0  0  0  0  0  0  0  0  0  0  0  0
    2.4458   -1.6454    3.3441 H   0  0  0  0  0  0  0  0  0  0  0  0
    0.9399   -2.0726    4.1966 H   0  0  0  0  0  0  0  0  0  0  0  0
    1.5896   -3.1481    2.9361 H   0  0  0  0  0  0  0  0  0  0  0  0
  5  6  2  0  0  0  0
  5  7  1  0  0  0  0
  2  3  1  0  0  0  0
  2  4  1  0  0  0  0
  2  5  1  0  0  0  0
  1  2  1  0  0  0  0
 17 18  2  0  0  0  0
 17 19  1  0  0  0  0
 14 15  1  0  0  0  0
 14 16  2  0  0  0  0
 11 12  1  0  0  0  0
 11 13  1  0  0  0  0
 11 14  1  0  0  0  0
  9 10  1  0  0  0  0
  9 11  1  0  0  0  0
  9 17  1  0  0  0  0
  7  8  1  0  0  0  0
  7  9  1  0  0  0  0
 21 22  1  0  0  0  0
 21 23  1  0  0  0  0
 21 24  1  0  0  0  0
 19 20  1  0  0  0  0
 19 21  1  0  0  0  0
M  CHG  1  15  -1
M  END
$$$$
default_name
  -OEChem-01062215323D

 24 23  0     1  0  0  0  0  0999 V2000
   -2.8347   -3.7166    0.8034 H   0  0  0  0  0  0  0  0  0  0  0  0
   -2.7728   -2.7096    0.3954 C   0  0  0  0  0  0  0  0  0  0  0  0
   -3.4267   -2.0426    0.9524 H   0  0  0  0  0  0  0  0  0  0  0  0
   -3.0538   -2.7186   -0.6556 H   0  0  0  0  0  0  0  0  0  0  0  0
   -1.3498   -2.2206    0.5184 C   0  0  0  0  0  0  0  0  0  0  0  0
   -0.4997   -2.9426    1.0194 O   0  0  0  0  0  0  0  0  0  0  0  0
   -1.1198   -0.9926    0.0674 N   0  0  0  0  0  0  0  0  0  0  0  0
   -1.8978   -0.4486   -0.2716 H   0  0  0  0  0  0  0  0  0  0  0  0
    0.1693   -0.2866    0.0854 C   0  0  1  0  0  0  0  0  0  0  0  0
    0.5969   -0.2987   -0.9187 H   0  0  0  0  0  0  0  0  0  0  0  0
   -0.0610    1.1839    0.4962 C   0  0  0  0  0  0  0  0  0  0  0  0
   -0.6471    1.2029    1.4167 H   0  0  0  0  0  0  0  0  0  0  0  0
    0.9059    1.6457    0.7077 H   0  0  0  0  0  0  0  0  0  0  0  0
   -0.8082    2.0282   -0.5480 C   0  0  0  0  0  0  0  0  0  0  0  0
   -0.6898    1.7258   -1.7588 O   0  5  0  0  0  0  0  0  0  0  0  0
   -1.4828    2.9903   -0.1222 O   0  0  0  0  0  0  0  0  0  0  0  0
    1.1486   -1.0126    1.0368 C   0  0  0  0  0  0  0  0  0  0  0  0
    2.3677   -0.9691    0.8334 O   0  0  0  0  0  0  0  0  0  0  0  0
    0.6337   -1.6664    2.0828 N   0  0  0  0  0  0  0  0  0  0  0  0
   -0.3862   -1.7181    2.1163 H   0  0  0  0  0  0  0  0  0  0  0  0
    1.4045   -2.4163    3.0687 C   0  0  0  0  0  0  0  0  0  0  0  0
    2.2768   -1.8361    3.3726 H   0  0  0  0  0  0  0  0  0  0  0  0
    0.7817   -2.6246    3.9382 H   0  0  0  0  0  0  0  0  0  0  0  0
    1.7367   -3.3557    2.6262 H   0  0  0  0  0  0  0  0  0  0  0  0
  5  6  2  0  0  0  0
  5  7  1  0  0  0  0
  2  3  1  0  0  0  0
  2  4  1  0  0  0  0
  2  5  1  0  0  0  0
  1  2  1  0  0  0  0
 17 18  2  0  0  0  0
 17 19  1  0  0  0  0
 14 15  1  0  0  0  0
 14 16  2  0  0  0  0
 11 12  1  0  0  0  0
 11 13  1  0  0  0  0
 11 14  1  0  0  0  0
  9 10  1  0  0  0  0
  9 11  1  0  0  0  0
  9 17  1  0  0  0  0
  7  8  1  0  0  0  0
  7  9  1  0  0  0  0
 21 22  1  0  0  0  0
 21 23  1  0  0  0  0
 21 24  1  0  0  0  0
 19 20  1  0  0  0  0
 19 21  1  0  0  0  0
M  CHG  1  15  -1
M  END
$$$$
default_name
  -OEChem-01062215323D

 24 23  0     1  0  0  0  0  0999 V2000
   -2.8347   -3.7166    0.8034 H   0  0  0  0  0  0  0  0  0  0  0  0
   -2.7728   -2.7096    0.3954 C   0  0  0  0  0  0  0  0  0  0  0  0
   -3.4267   -2.0426    0.9524 H   0  0  0  0  0  0  0  0  0  0  0  0
   -3.0538   -2.7186   -0.6556 H   0  0  0  0  0  0  0  0  0  0  0  0
   -1.3498   -2.2206    0.5184 C   0  0  0  0  0  0  0  0  0  0  0  0
   -0.4997   -2.9426    1.0194 O   0  0  0  0  0  0  0  0  0  0  0  0
   -1.1198   -0.9926    0.0674 N   0  0  0  0  0  0  0  0  0  0  0  0
   -1.8978   -0.4486   -0.2716 H   0  0  0  0  0  0  0  0  0  0  0  0
    0.1693   -0.2866    0.0854 C   0  0  1  0  0  0  0  0  0  0  0  0
    0.5969   -0.2987   -0.9187 H   0  0  0  0  0  0  0  0  0  0  0  0
   -0.0610    1.1839    0.4962 C   0  0  0  0  0  0  0  0  0  0  0  0
   -0.6471    1.2029    1.4167 H   0  0  0  0  0  0  0  0  0  0  0  0
    0.9059    1.6457    0.7077 H   0  0  0  0  0  0  0  0  0  0  0  0
   -0.8082    2.0282   -0.5480 C   0  0  0  0  0  0  0  0  0  0  0  0
   -0.6898    1.7258   -1.7588 O   0  5  0  0  0  0  0  0  0  0  0  0
   -1.4828    2.9903   -0.1222 O   0  0  0  0  0  0  0  0  0  0  0  0
    1.1486   -1.0126    1.0368 C   0  0  0  0  0  0  0  0  0  0  0  0
    2.3575   -0.7531    1.0087 O   0  0  0  0  0  0  0  0  0  0  0  0
    0.6417   -1.9075    1.8905 N   0  0  0  0  0  0  0  0  0  0  0  0
   -0.3522   -2.1158    1.7778 H   0  0  0  0  0  0  0  0  0  0  0  0
    1.4171   -2.6940    2.8439 C   0  0  0  0  0  0  0  0  0  0  0  0
    2.1405   -2.0519    3.3483 H   0  0  0  0  0  0  0  0  0  0  0  0
    0.7482   -3.1407    3.5790 H   0  0  0  0  0  0  0  0  0  0  0  0
    1.9495   -3.4819    2.3108 H   0  0  0  0  0  0  0  0  0  0  0  0
  5  6  2  0  0  0  0
  5  7  1  0  0  0  0
  2  3  1  0  0  0  0
  2  4  1  0  0  0  0
  2  5  1  0  0  0  0
  1  2  1  0  0  0  0
 17 18  2  0  0  0  0
 17 19  1  0  0  0  0
 14 15  1  0  0  0  0
 14 16  2  0  0  0  0
 11 12  1  0  0  0  0
 11 13  1  0  0  0  0
 11 14  1  0  0  0  0
  9 10  1  0  0  0  0
  9 11  1  0  0  0  0
  9 17  1  0  0  0  0
  7  8  1  0  0  0  0
  7  9  1  0  0  0  0
 21 22  1  0  0  0  0
 21 23  1  0  0  0  0
 21 24  1  0  0  0  0
 19 20  1  0  0  0  0
 19 21  1  0  0  0  0
M  CHG  1  15  -1
M  END
$$$$
default_name
  -OEChem-01062215323D

 24 23  0     1  0  0  0  0  0999 V2000
   -2.8347   -3.7166    0.8034 H   0  0  0  0  0  0  0  0  0  0  0  0
   -2.7728   -2.7096    0.3954 C   0  0  0  0  0  0  0  0  0  0  0  0
   -3.4267   -2.0426    0.9524 H   0  0  0  0  0  0  0  0  0  0  0  0
   -3.0538   -2.7186   -0.6556 H   0  0  0  0  0  0  0  0  0  0  0  0
   -1.3498   -2.2206    0.5184 C   0  0  0  0  0  0  0  0  0  0  0  0
   -0.4997   -2.9426    1.0194 O   0  0  0  0  0  0  0  0  0  0  0  0
   -1.1198   -0.9926    0.0674 N   0  0  0  0  0  0  0  0  0  0  0  0
   -1.8978   -0.4486   -0.2716 H   0  0  0  0  0  0  0  0  0  0  0  0
    0.1693   -0.2866    0.0854 C   0  0  1  0  0  0  0  0  0  0  0  0
    0.5969   -0.2987   -0.9187 H   0  0  0  0  0  0  0  0  0  0  0  0
   -0.0610    1.1839    0.4962 C   0  0  0  0  0  0  0  0  0  0  0  0
   -0.6471    1.2029    1.4167 H   0  0  0  0  0  0  0  0  0  0  0  0
    0.9059    1.6457    0.7077 H   0  0  0  0  0  0  0  0  0  0  0  0
   -0.8082    2.0282   -0.5480 C   0  0  0  0  0  0  0  0  0  0  0  0
   -0.6898    1.7258   -1.7588 O   0  5  0  0  0  0  0  0  0  0  0  0
   -1.4828    2.9903   -0.1222 O   0  0  0  0  0  0  0  0  0  0  0  0
    1.1486   -1.0126    1.0368 C   0  0  0  0  0  0  0  0  0  0  0  0
    2.2919   -0.5749    1.2122 O   0  0  0  0  0  0  0  0  0  0  0  0
    0.7113   -2.1077    1.6662 N   0  0  0  0  0  0  0  0  0  0  0  0
   -0.2150   -2.4390    1.3899 H   0  0  0  0  0  0  0  0  0  0  0  0
    1.5008   -2.9233    2.5827 C   0  0  0  0  0  0  0  0  0  0  0  0
    2.0461   -2.2781    3.2728 H   0  0  0  0  0  0  0  0  0  0  0  0
    0.8416   -3.5856    3.1432 H   0  0  0  0  0  0  0  0  0  0  0  0
    2.2135   -3.5183    2.0113 H   0  0  0  0  0  0  0  0  0  0  0  0
  5  6  2  0  0  0  0
  5  7  1  0  0  0  0
  2  3  1  0  0  0  0
  2  4  1  0  0  0  0
  2  5  1  0  0  0  0
  1  2  1  0  0  0  0
 17 18  2  0  0  0  0
 17 19  1  0  0  0  0
 14 15  1  0  0  0  0
 14 16  2  0  0  0  0
 11 12  1  0  0  0  0
 11 13  1  0  0  0  0
 11 14  1  0  0  0  0
  9 10  1  0  0  0  0
  9 11  1  0  0  0  0
  9 17  1  0  0  0  0
  7  8  1  0  0  0  0
  7  9  1  0  0  0  0
 21 22  1  0  0  0  0
 21 23  1  0  0  0  0
 21 24  1  0  0  0  0
 19 20  1  0  0  0  0
 19 21  1  0  0  0  0
M  CHG  1  15  -1
M  END
$$$$
default_name
  -OEChem-01062215323D

 24 23  0     1  0  0  0  0  0999 V2000
   -2.8347   -3.7166    0.8034 H   0  0  0  0  0  0  0  0  0  0  0  0
   -2.7728   -2.7096    0.3954 C   0  0  0  0  0  0  0  0  0  0  0  0
   -3.4267   -2.0426    0.9524 H   0  0  0  0  0  0  0  0  0  0  0  0
   -3.0538   -2.7186   -0.6556 H   0  0  0  0  0  0  0  0  0  0  0  0
   -1.3498   -2.2206    0.5184 C   0  0  0  0  0  0  0  0  0  0  0  0
   -0.4997   -2.9426    1.0194 O   0  0  0  0  0  0  0  0  0  0  0  0
   -1.1198   -0.9926    0.0674 N   0  0  0  0  0  0  0  0  0  0  0  0
   -1.8978   -0.4486   -0.2716 H   0  0  0  0  0  0  0  0  0  0  0  0
    0.1693   -0.2866    0.0854 C   0  0  1  0  0  0  0  0  0  0  0  0
    0.5969   -0.2987   -0.9187 H   0  0  0  0  0  0  0  0  0  0  0  0
   -0.0610    1.1839    0.4962 C   0  0  0  0  0  0  0  0  0  0  0  0
   -0.6471    1.2029    1.4167 H   0  0  0  0  0  0  0  0  0  0  0  0
    0.9059    1.6457    0.7077 H   0  0  0  0  0  0  0  0  0  0  0  0
   -0.8082    2.0282   -0.5480 C   0  0  0  0  0  0  0  0  0  0  0  0
   -0.6898    1.7258   -1.7588 O   0  5  0  0  0  0  0  0  0  0  0  0
   -1.4828    2.9903   -0.1222 O   0  0  0  0  0  0  0  0  0  0  0  0
    1.1486   -1.0126    1.0368 C   0  0  0  0  0  0  0  0  0  0  0  0
    2.1755   -0.4466    1.4300 O   0  0  0  0  0  0  0  0  0  0  0  0
    0.8375   -2.2532    1.4252 N   0  0  0  0  0  0  0  0  0  0  0  0
    0.0162   -2.6658    0.9788 H   0  0  0  0  0  0  0  0  0  0  0  0
    1.6499   -3.0886    2.3031 C   0  0  0  0  0  0  0  0  0  0  0  0
    2.0001   -2.4992    3.1515 H   0  0  0  0  0  0  0  0  0  0  0  0
    1.0557   -3.9290    2.6608 H   0  0  0  0  0  0  0  0  0  0  0  0
    2.5107   -3.4623    1.7481 H   0  0  0  0  0  0  0  0  0  0  0  0
  5  6  2  0  0  0  0
  5  7  1  0  0  0  0
  2  3  1  0  0  0  0
  2  4  1  0  0  0  0
  2  5  1  0  0  0  0
  1  2  1  0  0  0  0
 17 18  2  0  0  0  0
 17 19  1  0  0  0  0
 14 15  1  0  0  0  0
 14 16  2  0  0  0  0
 11 12  1  0  0  0  0
 11 13  1  0  0  0  0
 11 14  1  0  0  0  0
  9 10  1  0  0  0  0
  9 11  1  0  0  0  0
  9 17  1  0  0  0  0
  7  8  1  0  0  0  0
  7  9  1  0  0  0  0
 21 22  1  0  0  0  0
 21 23  1  0  0  0  0
 21 24  1  0  0  0  0
 19 20  1  0  0  0  0
 19 21  1  0  0  0  0
M  CHG  1  15  -1
M  END
$$$$
default_name
  -OEChem-01062215323D

 24 23  0     1  0  0  0  0  0999 V2000
   -2.8347   -3.7166    0.8034 H   0  0  0  0  0  0  0  0  0  0  0  0
   -2.7728   -2.7096    0.3954 C   0  0  0  0  0  0  0  0  0  0  0  0
   -3.4267   -2.0426    0.9524 H   0  0  0  0  0  0  0  0  0  0  0  0
   -3.0538   -2.7186   -0.6556 H   0  0  0  0  0  0  0  0  0  0  0  0
   -1.3498   -2.2206    0.5184 C   0  0  0  0  0  0  0  0  0  0  0  0
   -0.4997   -2.9426    1.0194 O   0  0  0  0  0  0  0  0  0  0  0  0
   -1.1198   -0.9926    0.0674 N   0  0  0  0  0  0  0  0  0  0  0  0
   -1.8978   -0.4486   -0.2716 H   0  0  0  0  0  0  0  0  0  0  0  0
    0.1693   -0.2866    0.0854 C   0  0  1  0  0  0  0  0  0  0  0  0
    0.5969   -0.2987   -0.9187 H   0  0  0  0  0  0  0  0  0  0  0  0
   -0.0610    1.1839    0.4962 C   0  0  0  0  0  0  0  0  0  0  0  0
   -0.6471    1.2029    1.4167 H   0  0  0  0  0  0  0  0  0  0  0  0
    0.9059    1.6457    0.7077 H   0  0  0  0  0  0  0  0  0  0  0  0
   -0.8082    2.0282   -0.5480 C   0  0  0  0  0  0  0  0  0  0  0  0
   -0.6898    1.7258   -1.7588 O   0  5  0  0  0  0  0  0  0  0  0  0
   -1.4828    2.9903   -0.1222 O   0  0  0  0  0  0  0  0  0  0  0  0
    1.1486   -1.0126    1.0368 C   0  0  0  0  0  0  0  0  0  0  0  0
    2.0161   -0.3768    1.6473 O   0  0  0  0  0  0  0  0  0  0  0  0
    1.0120   -2.3341    1.1839 N   0  0  0  0  0  0  0  0  0  0  0  0
    0.3256   -2.7807    0.5727 H   0  0  0  0  0  0  0  0  0  0  0  0
    1.8543   -3.1788    2.0239 C   0  0  0  0  0  0  0  0  0  0  0  0
    2.0057   -2.7002    2.9924 H   0  0  0  0  0  0  0  0  0  0  0  0
    1.3758   -4.1476    2.1645 H   0  0  0  0  0  0  0  0  0  0  0  0
    2.8208   -3.3177    1.5391 H   0  0  0  0  0  0  0  0  0  0  0  0
  5  6  2  0  0  0  0
  5  7  1  0  0  0  0
  2  3  1  0  0  0  0
  2  4  1  0  0  0  0
  2  5  1  0  0  0  0
  1  2  1  0  0  0  0
 17 18  2  0  0  0  0
 17 19  1  0  0  0  0
 14 15  1  0  0  0  0
 14 16  2  0  0  0  0
 11 12  1  0  0  0  0
 11 13  1  0  0  0  0
 11 14  1  0  0  0  0
  9 10  1  0  0  0  0
  9 11  1  0  0  0  0
  9 17  1  0  0  0  0
  7  8  1  0  0  0  0
  7  9  1  0  0  0  0
 21 22  1  0  0  0  0
 21 23  1  0  0  0  0
 21 24  1  0  0  0  0
 19 20  1  0  0  0  0
 19 21  1  0  0  0  0
M  CHG  1  15  -1
M  END
$$$$
default_name
  -OEChem-01062215323D

 24 23  0     1  0  0  0  0  0999 V2000
   -2.8347   -3.7166    0.8034 H   0  0  0  0  0  0  0  0  0  0  0  0
   -2.7728   -2.7096    0.3954 C   0  0  0  0  0  0  0  0  0  0  0  0
   -3.4267   -2.0426    0.9524 H   0  0  0  0  0  0  0  0  0  0  0  0
   -3.0538   -2.7186   -0.6556 H   0  0  0  0  0  0  0  0  0  0  0  0
   -1.3498   -2.2206    0.5184 C   0  0  0  0  0  0  0  0  0  0  0  0
   -0.4997   -2.9426    1.0194 O   0  0  0  0  0  0  0  0  0  0  0  0
   -1.1198   -0.9926    0.0674 N   0  0  0  0  0  0  0  0  0  0  0  0
   -1.8978   -0.4486   -0.2716 H   0  0  0  0  0  0  0  0  0  0  0  0
    0.1693   -0.2866    0.0854 C   0  0  1  0  0  0  0  0  0  0  0  0
    0.5969   -0.2987   -0.9187 H   0  0  0  0  0  0  0  0  0  0  0  0
   -0.0610    1.1839    0.4962 C   0  0  0  0  0  0  0  0  0  0  0  0
   -0.6471    1.2029    1.4167 H   0  0  0  0  0  0  0  0  0  0  0  0
    0.9059    1.6457    0.7077 H   0  0  0  0  0  0  0  0  0  0  0  0
   -0.8082    2.0282   -0.5480 C   0  0  0  0  0  0  0  0  0  0  0  0
   -0.6898    1.7258   -1.7588 O   0  5  0  0  0  0  0  0  0  0  0  0
   -1.4828    2.9903   -0.1222 O   0  0  0  0  0  0  0  0  0  0  0  0
    1.1486   -1.0126    1.0368 C   0  0  0  0  0  0  0  0  0  0  0  0
    1.8247   -0.3705    1.8493 O   0  0  0  0  0  0  0  0  0  0  0  0
    1.2226   -2.3449    0.9587 N   0  0  0  0  0  0  0  0  0  0  0  0
    0.6921   -2.7758    0.1992 H   0  0  0  0  0  0  0  0  0  0  0  0
    2.0999   -3.1876    1.7644 C   0  0  0  0  0  0  0  0  0  0  0  0
    2.0623   -2.8674    2.8064 H   0  0  0  0  0  0  0  0  0  0  0  0
    1.7800   -4.2264    1.6882 H   0  0  0  0  0  0  0  0  0  0  0  0
    3.1227   -3.0945    1.3987 H   0  0  0  0  0  0  0  0  0  0  0  0
  5  6  2  0  0  0  0
  5  7  1  0  0  0  0
  2  3  1  0  0  0  0
  2  4  1  0  0  0  0
  2  5  1  0  0  0  0
  1  2  1  0  0  0  0
 17 18  2  0  0  0  0
 17 19  1  0  0  0  0
 14 15  1  0  0  0  0
 14 16  2  0  0  0  0
 11 12  1  0  0  0  0
 11 13  1  0  0  0  0
 11 14  1  0  0  0  0
  9 10  1  0  0  0  0
  9 11  1  0  0  0  0
  9 17  1  0  0  0  0
  7  8  1  0  0  0  0
  7  9  1  0  0  0  0
 21 22  1  0  0  0  0
 21 23  1  0  0  0  0
 21 24  1  0  0  0  0
 19 20  1  0  0  0  0
 19 21  1  0  0  0  0
M  CHG  1  15  -1
M  END
$$$$
default_name
  -OEChem-01062215323D

 24 23  0     1  0  0  0  0  0999 V2000
   -2.8347   -3.7166    0.8034 H   0  0  0  0  0  0  0  0  0  0  0  0
   -2.7728   -2.7096    0.3954 C   0  0  0  0  0  0  0  0  0  0  0  0
   -3.4267   -2.0426    0.9524 H   0  0  0  0  0  0  0  0  0  0  0  0
   -3.0538   -2.7186   -0.6556 H   0  0  0  0  0  0  0  0  0  0  0  0
   -1.3498   -2.2206    0.5184 C   0  0  0  0  0  0  0  0  0  0  0  0
   -0.4997   -2.9426    1.0194 O   0  0  0  0  0  0  0  0  0  0  0  0
   -1.1198   -0.9926    0.0674 N   0  0  0  0  0  0  0  0  0  0  0  0
   -1.8978   -0.4486   -0.2716 H   0  0  0  0  0  0  0  0  0  0  0  0
    0.1693   -0.2866    0.0854 C   0  0  1  0  0  0  0  0  0  0  0  0
    0.5969   -0.2987   -0.9187 H   0  0  0  0  0  0  0  0  0  0  0  0
   -0.0610    1.1839    0.4962 C   0  0  0  0  0  0  0  0  0  0  0  0
   -0.6471    1.2029    1.4167 H   0  0  0  0  0  0  0  0  0  0  0  0
    0.9059    1.6457    0.7077 H   0  0  0  0  0  0  0  0  0  0  0  0
   -0.8082    2.0282   -0.5480 C   0  0  0  0  0  0  0  0  0  0  0  0
   -0.6898    1.7258   -1.7588 O   0  5  0  0  0  0  0  0  0  0  0  0
   -1.4828    2.9903   -0.1222 O   0  0  0  0  0  0  0  0  0  0  0  0
    1.1486   -1.0126    1.0368 C   0  0  0  0  0  0  0  0  0  0  0  0
    1.6142   -0.4279    2.0221 O   0  0  0  0  0  0  0  0  0  0  0  0
    1.4552   -2.2849    0.7650 N   0  0  0  0  0  0  0  0  0  0  0  0
    1.0907   -2.6515   -0.1163 H   0  0  0  0  0  0  0  0  0  0  0  0
    2.3701   -3.1144    1.5421 C   0  0  0  0  0  0  0  0  0  0  0  0
    2.1663   -2.9894    2.6063 H   0  0  0  0  0  0  0  0  0  0  0  0
    2.2410   -4.1601    1.2643 H   0  0  0  0  0  0  0  0  0  0  0  0
    3.3958   -2.8077    1.3363 H   0  0  0  0  0  0  0  0  0  0  0  0
  5  6  2  0  0  0  0
  5  7  1  0  0  0  0
  2  3  1  0  0  0  0
  2  4  1  0  0  0  0
  2  5  1  0  0  0  0
  1  2  1  0  0  0  0
 17 18  2  0  0  0  0
 17 19  1  0  0  0  0
 14 15  1  0  0  0  0
 14 16  2  0  0  0  0
 11 12  1  0  0  0  0
 11 13  1  0  0  0  0
 11 14  1  0  0  0  0
  9 10  1  0  0  0  0
  9 11  1  0  0  0  0
  9 17  1  0  0  0  0
  7  8  1  0  0  0  0
  7  9  1  0  0  0  0
 21 22  1  0  0  0  0
 21 23  1  0  0  0  0
 21 24  1  0  0  0  0
 19 20  1  0  0  0  0
 19 21  1  0  0  0  0
M  CHG  1  15  -1
M  END
$$$$
default_name
  -OEChem-01062215323D

 24 23  0     1  0  0  0  0  0999 V2000
   -2.8347   -3.7166    0.8034 H   0  0  0  0  0  0  0  0  0  0  0  0
   -2.7728   -2.7096    0.3954 C   0  0  0  0  0  0  0  0  0  0  0  0
   -3.4267   -2.0426    0.9524 H   0  0  0  0  0  0  0  0  0  0  0  0
   -3.0538   -2.7186   -0.6556 H   0  0  0  0  0  0  0  0  0  0  0  0
   -1.3498   -2.2206    0.5184 C   0  0  0  0  0  0  0  0  0  0  0  0
   -0.4997   -2.9426    1.0194 O   0  0  0  0  0  0  0  0  0  0  0  0
   -1.1198   -0.9926    0.0674 N   0  0  0  0  0  0  0  0  0  0  0  0
   -1.8978   -0.4486   -0.2716 H   0  0  0  0  0  0  0  0  0  0  0  0
    0.1693   -0.2866    0.0854 C   0  0  1  0  0  0  0  0  0  0  0  0
    0.5969   -0.2987   -0.9187 H   0  0  0  0  0  0  0  0  0  0  0  0
   -0.0610    1.1839    0.4962 C   0  0  0  0  0  0  0  0  0  0  0  0
   -0.6471    1.2029    1.4167 H   0  0  0  0  0  0  0  0  0  0  0  0
    0.9059    1.6457    0.7077 H   0  0  0  0  0  0  0  0  0  0  0  0
   -0.8082    2.0282   -0.5480 C   0  0  0  0  0  0  0  0  0  0  0  0
   -0.6898    1.7258   -1.7588 O   0  5  0  0  0  0  0  0  0  0  0  0
   -1.4828    2.9903   -0.1222 O   0  0  0  0  0  0  0  0  0  0  0  0
    1.1486   -1.0126    1.0368 C   0  0  0  0  0  0  0  0  0  0  0  0
    1.3990   -0.5452    2.1541 O   0  0  0  0  0  0  0  0  0  0  0  0
    1.6939   -2.1582    0.6161 N   0  0  0  0  0  0  0  0  0  0  0  0
    1.4942   -2.4162   -0.3522 H   0  0  0  0  0  0  0  0  0  0  0  0
    2.6465   -2.9642    1.3721 C   0  0  0  0  0  0  0  0  0  0  0  0
    2.3105   -3.0579    2.4056 H   0  0  0  0  0  0  0  0  0  0  0  0
    2.7271   -3.9532    0.9217 H   0  0  0  0  0  0  0  0  0  0  0  0
    3.6216   -2.4770    1.3563 H   0  0  0  0  0  0  0  0  0  0  0  0
  5  6  2  0  0  0  0
  5  7  1  0  0  0  0
  2  3  1  0  0  0  0
  2  4  1  0  0  0  0
  2  5  1  0  0  0  0
  1  2  1  0  0  0  0
 17 18  2  0  0  0  0
 17 19  1  0  0  0  0
 14 15  1  0  0  0  0
 14 16  2  0  0  0  0
 11 12  1  0  0  0  0
 11 13  1  0  0  0  0
 11 14  1  0  0  0  0
  9 10  1  0  0  0  0
  9 11  1  0  0  0  0
  9 17  1  0  0  0  0
  7  8  1  0  0  0  0
  7  9  1  0  0  0  0
 21 22  1  0  0  0  0
 21 23  1  0  0  0  0
 21 24  1  0  0  0  0
 19 20  1  0  0  0  0
 19 21  1  0  0  0  0
M  CHG  1  15  -1
M  END
$$$$
default_name
  -OEChem-01062215323D

 24 23  0     1  0  0  0  0  0999 V2000
   -2.8347   -3.7166    0.8034 H   0  0  0  0  0  0  0  0  0  0  0  0
   -2.7728   -2.7096    0.3954 C   0  0  0  0  0  0  0  0  0  0  0  0
   -3.4267   -2.0426    0.9524 H   0  0  0  0  0  0  0  0  0  0  0  0
   -3.0538   -2.7186   -0.6556 H   0  0  0  0  0  0  0  0  0  0  0  0
   -1.3498   -2.2206    0.5184 C   0  0  0  0  0  0  0  0  0  0  0  0
   -0.4997   -2.9426    1.0194 O   0  0  0  0  0  0  0  0  0  0  0  0
   -1.1198   -0.9926    0.0674 N   0  0  0  0  0  0  0  0  0  0  0  0
   -1.8978   -0.4486   -0.2716 H   0  0  0  0  0  0  0  0  0  0  0  0
    0.1693   -0.2866    0.0854 C   0  0  1  0  0  0  0  0  0  0  0  0
    0.5969   -0.2987   -0.9187 H   0  0  0  0  0  0  0  0  0  0  0  0
   -0.0610    1.1839    0.4962 C   0  0  0  0  0  0  0  0  0  0  0  0
   -0.6471    1.2029    1.4167 H   0  0  0  0  0  0  0  0  0  0  0  0
    0.9059    1.6457    0.7077 H   0  0  0  0  0  0  0  0  0  0  0  0
   -0.8082    2.0282   -0.5480 C   0  0  0  0  0  0  0  0  0  0  0  0
   -0.6898    1.7258   -1.7588 O   0  5  0  0  0  0  0  0  0  0  0  0
   -1.4828    2.9903   -0.1222 O   0  0  0  0  0  0  0  0  0  0  0  0
    1.1486   -1.0126    1.0368 C   0  0  0  0  0  0  0  0  0  0  0  0
    1.1939   -0.7145    2.2362 O   0  0  0  0  0  0  0  0  0  0  0  0
    1.9223   -1.9734    0.5219 N   0  0  0  0  0  0  0  0  0  0  0  0
    1.8752   -2.0860   -0.4925 H   0  0  0  0  0  0  0  0  0  0  0  0
    2.9101   -2.7473    1.2662 C   0  0  0  0  0  0  0  0  0  0  0  0
    2.4850   -3.0682    2.2181 H   0  0  0  0  0  0  0  0  0  0  0  0
    3.2054   -3.6197    0.6838 H   0  0  0  0  0  0  0  0  0  0  0  0
    3.7846   -2.1249    1.4572 H   0  0  0  0  0  0  0  0  0  0  0  0
  5  6  2  0  0  0  0
  5  7  1  0  0  0  0
  2  3  1  0  0  0  0
  2  4  1  0  0  0  0
  2  5  1  0  0  0  0
  1  2  1  0  0  0  0
 17 18  2  0  0  0  0
 17 19  1  0  0  0  0
 14 15  1  0  0  0  0
 14 16  2  0  0  0  0
 11 12  1  0  0  0  0
 11 13  1  0  0  0  0
 11 14  1  0  0  0  0
  9 10  1  0  0  0  0
  9 11  1  0  0  0  0
  9 17  1  0  0  0  0
  7  8  1  0  0  0  0
  7  9  1  0  0  0  0
 21 22  1  0  0  0  0
 21 23  1  0  0  0  0
 21 24  1  0  0  0  0
 19 20  1  0  0  0  0
 19 21  1  0  0  0  0
M  CHG  1  15  -1
M  END
$$$$
default_name
  -OEChem-01062215323D

 24 23  0     1  0  0  0  0  0999 V2000
   -2.8347   -3.7166    0.8034 H   0  0  0  0  0  0  0  0  0  0  0  0
   -2.7728   -2.7096    0.3954 C   0  0  0  0  0  0  0  0  0  0  0  0
   -3.4267   -2.0426    0.9524 H   0  0  0  0  0  0  0  0  0  0  0  0
   -3.0538   -2.7186   -0.6556 H   0  0  0  0  0  0  0  0  0  0  0  0
   -1.3498   -2.2206    0.5184 C   0  0  0  0  0  0  0  0  0  0  0  0
   -0.4997   -2.9426    1.0194 O   0  0  0  0  0  0  0  0  0  0  0  0
   -1.1198   -0.9926    0.0674 N   0  0  0  0  0  0  0  0  0  0  0  0
   -1.8978   -0.4486   -0.2716 H   0  0  0  0  0  0  0  0  0  0  0  0
    0.1693   -0.2866    0.0854 C   0  0  1  0  0  0  0  0  0  0  0  0
    0.5969   -0.2987   -0.9187 H   0  0  0  0  0  0  0  0  0  0  0  0
   -0.0610    1.1839    0.4962 C   0  0  0  0  0  0  0  0  0  0  0  0
   -0.6471    1.2029    1.4167 H   0  0  0  0  0  0  0  0  0  0  0  0
    0.9059    1.6457    0.7077 H   0  0  0  0  0  0  0  0  0  0  0  0
   -0.8082    2.0282   -0.5480 C   0  0  0  0  0  0  0  0  0  0  0  0
   -0.6898    1.7258   -1.7588 O   0  5  0  0  0  0  0  0  0  0  0  0
   -1.4828    2.9903   -0.1222 O   0  0  0  0  0  0  0  0  0  0  0  0
    1.1486   -1.0126    1.0368 C   0  0  0  0  0  0  0  0  0  0  0  0
    1.0126   -0.9240    2.2628 O   0  0  0  0  0  0  0  0  0  0  0  0
    2.1250   -1.7430    0.4891 N   0  0  0  0  0  0  0  0  0  0  0  0
    2.2077   -1.6835   -0.5276 H   0  0  0  0  0  0  0  0  0  0  0  0
    3.1432   -2.4785    1.2315 C   0  0  0  0  0  0  0  0  0  0  0  0
    2.6780   -3.0196    2.0565 H   0  0  0  0  0  0  0  0  0  0  0  0
    3.6431   -3.1825    0.5668 H   0  0  0  0  0  0  0  0  0  0  0  0
    3.8737   -1.7754    1.6321 H   0  0  0  0  0  0  0  0  0  0  0  0
  5  6  2  0  0  0  0
  5  7  1  0  0  0  0
  2  3  1  0  0  0  0
  2  4  1  0  0  0  0
  2  5  1  0  0  0  0
  1  2  1  0  0  0  0
 17 18  2  0  0  0  0
 17 19  1  0  0  0  0
 14 15  1  0  0  0  0
 14 16  2  0  0  0  0
 11 12  1  0  0  0  0
 11 13  1  0  0  0  0
 11 14  1  0  0  0  0
  9 10  1  0  0  0  0
  9 11  1  0  0  0  0
  9 17  1  0  0  0  0
  7  8  1  0  0  0  0
  7  9  1  0  0  0  0
 21 22  1  0  0  0  0
 21 23  1  0  0  0  0
 21 24  1  0  0  0  0
 19 20  1  0  0  0  0
 19 21  1  0  0  0  0
M  CHG  1  15  -1
M  END
$$$$
default_name
  -OEChem-01062215323D

 24 23  0     1  0  0  0  0  0999 V2000
   -2.8347   -3.7166    0.8034 H   0  0  0  0  0  0  0  0  0  0  0  0
   -2.7728   -2.7096    0.3954 C   0  0  0  0  0  0  0  0  0  0  0  0
   -3.4267   -2.0426    0.9524 H   0  0  0  0  0  0  0  0  0  0  0  0
   -3.0538   -2.7186   -0.6556 H   0  0  0  0  0  0  0  0  0  0  0  0
   -1.3498   -2.2206    0.5184 C   0  0  0  0  0  0  0  0  0  0  0  0
   -0.4997   -2.9426    1.0194 O   0  0  0  0  0  0  0  0  0  0  0  0
   -1.1198   -0.9926    0.0674 N   0  0  0  0  0  0  0  0  0  0  0  0
   -1.8978   -0.4486   -0.2716 H   0  0  0  0  0  0  0  0  0  0  0  0
    0.1693   -0.2866    0.0854 C   0  0  1  0  0  0  0  0  0  0  0  0
    0.5969   -0.2987   -0.9187 H   0  0  0  0  0  0  0  0  0  0  0  0
   -0.0610    1.1839    0.4962 C   0  0  0  0  0  0  0  0  0  0  0  0
   -0.6471    1.2029    1.4167 H   0  0  0  0  0  0  0  0  0  0  0  0
    0.9059    1.6457    0.7077 H   0  0  0  0  0  0  0  0  0  0  0  0
   -0.8082    2.0282   -0.5480 C   0  0  0  0  0  0  0  0  0  0  0  0
   -0.6898    1.7258   -1.7588 O   0  5  0  0  0  0  0  0  0  0  0  0
   -1.4828    2.9903   -0.1222 O   0  0  0  0  0  0  0  0  0  0  0  0
    1.1486   -1.0126    1.0368 C   0  0  0  0  0  0  0  0  0  0  0  0
    0.8677   -1.1597    2.2321 O   0  0  0  0  0  0  0  0  0  0  0  0
    2.2880   -1.4829    0.5197 N   0  0  0  0  0  0  0  0  0  0  0  0
    2.4690   -1.2359   -0.4551 H   0  0  0  0  0  0  0  0  0  0  0  0
    3.3297   -2.1760    1.2703 C   0  0  0  0  0  0  0  0  0  0  0  0
    2.8764   -2.9154    1.9318 H   0  0  0  0  0  0  0  0  0  0  0  0
    4.0106   -2.6712    0.5786 H   0  0  0  0  0  0  0  0  0  0  0  0
    3.8828   -1.4523    1.8693 H   0  0  0  0  0  0  0  0  0  0  0  0
  5  6  2  0  0  0  0
  5  7  1  0  0  0  0
  2  3  1  0  0  0  0
  2  4  1  0  0  0  0
  2  5  1  0  0  0  0
  1  2  1  0  0  0  0
 17 18  2  0  0  0  0
 17 19  1  0  0  0  0
 14 15  1  0  0  0  0
 14 16  2  0  0  0  0
 11 12  1  0  0  0  0
 11 13  1  0  0  0  0
 11 14  1  0  0  0  0
  9 10  1  0  0  0  0
  9 11  1  0  0  0  0
  9 17  1  0  0  0  0
  7  8  1  0  0  0  0
  7  9  1  0  0  0  0
 21 22  1  0  0  0  0
 21 23  1  0  0  0  0
 21 24  1  0  0  0  0
 19 20  1  0  0  0  0
 19 21  1  0  0  0  0
M  CHG  1  15  -1
M  END
$$$$
default_name
  -OEChem-01062215323D

 24 23  0     1  0  0  0  0  0999 V2000
   -2.8347   -3.7166    0.8034 H   0  0  0  0  0  0  0  0  0  0  0  0
   -2.7728   -2.7096    0.3954 C   0  0  0  0  0  0  0  0  0  0  0  0
   -3.4267   -2.0426    0.9524 H   0  0  0  0  0  0  0  0  0  0  0  0
   -3.0538   -2.7186   -0.6556 H   0  0  0  0  0  0  0  0  0  0  0  0
   -1.3498   -2.2206    0.5184 C   0  0  0  0  0  0  0  0  0  0  0  0
   -0.4997   -2.9426    1.0194 O   0  0  0  0  0  0  0  0  0  0  0  0
   -1.1198   -0.9926    0.0674 N   0  0  0  0  0  0  0  0  0  0  0  0
   -1.8978   -0.4486   -0.2716 H   0  0  0  0  0  0  0  0  0  0  0  0
    0.1693   -0.2866    0.0854 C   0  0  1  0  0  0  0  0  0  0  0  0
    0.5969   -0.2987   -0.9187 H   0  0  0  0  0  0  0  0  0  0  0  0
   -0.0610    1.1839    0.4962 C   0  0  0  0  0  0  0  0  0  0  0  0
   -0.6471    1.2029    1.4167 H   0  0  0  0  0  0  0  0  0  0  0  0
    0.9059    1.6457    0.7077 H   0  0  0  0  0  0  0  0  0  0  0  0
   -0.8082    2.0282   -0.5480 C   0  0  0  0  0  0  0  0  0  0  0  0
   -0.6898    1.7258   -1.7588 O   0  5  0  0  0  0  0  0  0  0  0  0
   -1.4828    2.9903   -0.1222 O   0  0  0  0  0  0  0  0  0  0  0  0
    1.1486   -1.0126    1.0368 C   0  0  0  0  0  0  0  0  0  0  0  0
    0.7690   -1.4054    2.1463 O   0  0  0  0  0  0  0  0  0  0  0  0
    2.4004   -1.2107    0.6118 N   0  0  0  0  0  0  0  0  0  0  0  0
    2.6413   -0.7739   -0.2800 H   0  0  0  0  0  0  0  0  0  0  0  0
    3.4569   -1.8605    1.3801 C   0  0  0  0  0  0  0  0  0  0  0  0
    3.0665   -2.7628    1.8525 H   0  0  0  0  0  0  0  0  0  0  0  0
    4.2827   -2.1208    0.7185 H   0  0  0  0  0  0  0  0  0  0  0  0
    3.8114   -1.1776    2.1524 H   0  0  0  0  0  0  0  0  0  0  0  0
  5  6  2  0  0  0  0
  5  7  1  0  0  0  0
  2  3  1  0  0  0  0
  2  4  1  0  0  0  0
  2  5  1  0  0  0  0
  1  2  1  0  0  0  0
 17 18  2  0  0  0  0
 17 19  1  0  0  0  0
 14 15  1  0  0  0  0
 14 16  2  0  0  0  0
 11 12  1  0  0  0  0
 11 13  1  0  0  0  0
 11 14  1  0  0  0  0
  9 10  1  0  0  0  0
  9 11  1  0  0  0  0
  9 17  1  0  0  0  0
  7  8  1  0  0  0  0
  7  9  1  0  0  0  0
 21 22  1  0  0  0  0
 21 23  1  0  0  0  0
 21 24  1  0  0  0  0
 19 20  1  0  0  0  0
 19 21  1  0  0  0  0
M  CHG  1  15  -1
M  END
$$$$
default_name
  -OEChem-01062215323D

 24 23  0     1  0  0  0  0  0999 V2000
   -2.8347   -3.7166    0.8034 H   0  0  0  0  0  0  0  0  0  0  0  0
   -2.7728   -2.7096    0.3954 C   0  0  0  0  0  0  0  0  0  0  0  0
   -3.4267   -2.0426    0.9524 H   0  0  0  0  0  0  0  0  0  0  0  0
   -3.0538   -2.7186   -0.6556 H   0  0  0  0  0  0  0  0  0  0  0  0
   -1.3498   -2.2206    0.5184 C   0  0  0  0  0  0  0  0  0  0  0  0
   -0.4997   -2.9426    1.0194 O   0  0  0  0  0  0  0  0  0  0  0  0
   -1.1198   -0.9926    0.0674 N   0  0  0  0  0  0  0  0  0  0  0  0
   -1.8978   -0.4486   -0.2716 H   0  0  0  0  0  0  0  0  0  0  0  0
    0.1693   -0.2866    0.0854 C   0  0  1  0  0  0  0  0  0  0  0  0
    0.5969   -0.2987   -0.9187 H   0  0  0  0  0  0  0  0  0  0  0  0
   -0.0610    1.1839    0.4962 C   0  0  0  0  0  0  0  0  0  0  0  0
   -0.6471    1.2029    1.4167 H   0  0  0  0  0  0  0  0  0  0  0  0
    0.9059    1.6457    0.7077 H   0  0  0  0  0  0  0  0  0  0  0  0
   -0.8082    2.0282   -0.5480 C   0  0  0  0  0  0  0  0  0  0  0  0
   -0.6898    1.7258   -1.7588 O   0  5  0  0  0  0  0  0  0  0  0  0
   -1.4828    2.9903   -0.1222 O   0  0  0  0  0  0  0  0  0  0  0  0
    1.1486   -1.0126    1.0368 C   0  0  0  0  0  0  0  0  0  0  0  0
    0.7232   -1.6443    2.0111 O   0  0  0  0  0  0  0  0  0  0  0  0
    2.4544   -0.9449    0.7590 N   0  0  0  0  0  0  0  0  0  0  0  0
    2.7130   -0.3289   -0.0141 H   0  0  0  0  0  0  0  0  0  0  0  0
    3.5163   -1.5534    1.5532 C   0  0  0  0  0  0  0  0  0  0  0  0
    3.2355   -2.5721    1.8240 H   0  0  0  0  0  0  0  0  0  0  0  0
    4.4409   -1.5688    0.9769 H   0  0  0  0  0  0  0  0  0  0  0  0
    3.6643   -0.9700    2.4622 H   0  0  0  0  0  0  0  0  0  0  0  0
  5  6  2  0  0  0  0
  5  7  1  0  0  0  0
  2  3  1  0  0  0  0
  2  4  1  0  0  0  0
  2  5  1  0  0  0  0
  1  2  1  0  0  0  0
 17 18  2  0  0  0  0
 17 19  1  0  0  0  0
 14 15  1  0  0  0  0
 14 16  2  0  0  0  0
 11 12  1  0  0  0  0
 11 13  1  0  0  0  0
 11 14  1  0  0  0  0
  9 10  1  0  0  0  0
  9 11  1  0  0  0  0
  9 17  1  0  0  0  0
  7  8  1  0  0  0  0
  7  9  1  0  0  0  0
 21 22  1  0  0  0  0
 21 23  1  0  0  0  0
 21 24  1  0  0  0  0
 19 20  1  0  0  0  0
 19 21  1  0  0  0  0
M  CHG  1  15  -1
M  END
$$$$
default_name
  -OEChem-01062215323D

 24 23  0     1  0  0  0  0  0999 V2000
   -2.8347   -3.7166    0.8034 H   0  0  0  0  0  0  0  0  0  0  0  0
   -2.7728   -2.7096    0.3954 C   0  0  0  0  0  0  0  0  0  0  0  0
   -3.4267   -2.0426    0.9524 H   0  0  0  0  0  0  0  0  0  0  0  0
   -3.0538   -2.7186   -0.6556 H   0  0  0  0  0  0  0  0  0  0  0  0
   -1.3498   -2.2206    0.5184 C   0  0  0  0  0  0  0  0  0  0  0  0
   -0.4997   -2.9426    1.0194 O   0  0  0  0  0  0  0  0  0  0  0  0
   -1.1198   -0.9926    0.0674 N   0  0  0  0  0  0  0  0  0  0  0  0
   -1.8978   -0.4486   -0.2716 H   0  0  0  0  0  0  0  0  0  0  0  0
    0.1693   -0.2866    0.0854 C   0  0  1  0  0  0  0  0  0  0  0  0
    0.5969   -0.2987   -0.9187 H   0  0  0  0  0  0  0  0  0  0  0  0
   -0.0610    1.1839    0.4962 C   0  0  0  0  0  0  0  0  0  0  0  0
   -0.6471    1.2029    1.4167 H   0  0  0  0  0  0  0  0  0  0  0  0
    0.9059    1.6457    0.7077 H   0  0  0  0  0  0  0  0  0  0  0  0
   -0.8082    2.0282   -0.5480 C   0  0  0  0  0  0  0  0  0  0  0  0
   -0.6898    1.7258   -1.7588 O   0  5  0  0  0  0  0  0  0  0  0  0
   -1.4828    2.9903   -0.1222 O   0  0  0  0  0  0  0  0  0  0  0  0
    1.1486   -1.0126    1.0368 C   0  0  0  0  0  0  0  0  0  0  0  0
    0.7335   -1.8603    1.8358 O   0  0  0  0  0  0  0  0  0  0  0  0
    2.4463   -0.7038    0.9513 N   0  0  0  0  0  0  0  0  0  0  0  0
    2.6790    0.0688    0.3243 H   0  0  0  0  0  0  0  0  0  0  0  0
    3.5036   -1.2758    1.7781 C   0  0  0  0  0  0  0  0  0  0  0  0
    3.3719   -2.3563    1.8484 H   0  0  0  0  0  0  0  0  0  0  0  0
    4.4744   -1.0528    1.3362 H   0  0  0  0  0  0  0  0  0  0  0  0
    3.4515   -0.8438    2.7777 H   0  0  0  0  0  0  0  0  0  0  0  0
  5  6  2  0  0  0  0
  5  7  1  0  0  0  0
  2  3  1  0  0  0  0
  2  4  1  0  0  0  0
  2  5  1  0  0  0  0
  1  2  1  0  0  0  0
 17 18  2  0  0  0  0
 17 19  1  0  0  0  0
 14 15  1  0  0  0  0
 14 16  2  0  0  0  0
 11 12  1  0  0  0  0
 11 13  1  0  0  0  0
 11 14  1  0  0  0  0
  9 10  1  0  0  0  0
  9 11  1  0  0  0  0
  9 17  1  0  0  0  0
  7  8  1  0  0  0  0
  7  9  1  0  0  0  0
 21 22  1  0  0  0  0
 21 23  1  0  0  0  0
 21 24  1  0  0  0  0
 19 20  1  0  0  0  0
 19 21  1  0  0  0  0
M  CHG  1  15  -1
M  END
$$$$
default_name
  -OEChem-01062215323D

 24 23  0     1  0  0  0  0  0999 V2000
   -2.8347   -3.7166    0.8034 H   0  0  0  0  0  0  0  0  0  0  0  0
   -2.7728   -2.7096    0.3954 C   0  0  0  0  0  0  0  0  0  0  0  0
   -3.4267   -2.0426    0.9524 H   0  0  0  0  0  0  0  0  0  0  0  0
   -3.0538   -2.7186   -0.6556 H   0  0  0  0  0  0  0  0  0  0  0  0
   -1.3498   -2.2206    0.5184 C   0  0  0  0  0  0  0  0  0  0  0  0
   -0.4997   -2.9426    1.0194 O   0  0  0  0  0  0  0  0  0  0  0  0
   -1.1198   -0.9926    0.0674 N   0  0  0  0  0  0  0  0  0  0  0  0
   -1.8978   -0.4486   -0.2716 H   0  0  0  0  0  0  0  0  0  0  0  0
    0.1693   -0.2866    0.0854 C   0  0  1  0  0  0  0  0  0  0  0  0
    0.4682   -0.0632   -0.9402 H   0  0  0  0  0  0  0  0  0  0  0  0
    0.0085    1.0482    0.8448 C   0  0  0  0  0  0  0  0  0  0  0  0
   -0.4581    0.8476    1.8109 H   0  0  0  0  0  0  0  0  0  0  0  0
    0.9993    1.4669    1.0341 H   0  0  0  0  0  0  0  0  0  0  0  0
   -0.8536    2.0940    0.1207 C   0  0  0  0  0  0  0  0  0  0  0  0
   -0.8905    2.0763   -1.1323 O   0  5  0  0  0  0  0  0  0  0  0  0
   -1.4591    2.9226    0.8342 O   0  0  0  0  0  0  0  0  0  0  0  0
    1.2514   -1.1921    0.7180 C   0  0  0  0  0  0  0  0  0  0  0  0
    0.9674   -2.3324    1.1035 O   0  0  0  0  0  0  0  0  0  0  0  0
    2.4929   -0.7065    0.8155 N   0  0  0  0  0  0  0  0  0  0  0  0
    2.6088    0.2737    0.5510 H   0  0  0  0  0  0  0  0  0  0  0  0
    3.6295   -1.4127    1.3971 C   0  0  0  0  0  0  0  0  0  0  0  0
    3.6489   -2.4409    1.0336 H   0  0  0  0  0  0  0  0  0  0  0  0
    4.5545   -0.9081    1.1194 H   0  0  0  0  0  0  0  0  0  0  0  0
    3.5309   -1.4194    2.4828 H   0  0  0  0  0  0  0  0  0  0  0  0
  5  6  2  0  0  0  0
  5  7  1  0  0  0  0
  2  3  1  0  0  0  0
  2  4  1  0  0  0  0
  2  5  1  0  0  0  0
  1  2  1  0  0  0  0
 17 18  2  0  0  0  0
 17 19  1  0  0  0  0
 14 15  1  0  0  0  0
 14 16  2  0  0  0  0
 11 12  1  0  0  0  0
 11 13  1  0  0  0  0
 11 14  1  0  0  0  0
  9 10  1  0  0  0  0
  9 11  1  0  0  0  0
  9 17  1  0  0  0  0
  7  8  1  0  0  0  0
  7  9  1  0  0  0  0
 21 22  1  0  0  0  0
 21 23  1  0  0  0  0
 21 24  1  0  0  0  0
 19 20  1  0  0  0  0
 19 21  1  0  0  0  0
M  CHG  1  15  -1
M  END
$$$$
default_name
  -OEChem-01062215323D

 24 23  0     1  0  0  0  0  0999 V2000
   -2.8347   -3.7166    0.8034 H   0  0  0  0  0  0  0  0  0  0  0  0
   -2.7728   -2.7096    0.3954 C   0  0  0  0  0  0  0  0  0  0  0  0
   -3.4267   -2.0426    0.9524 H   0  0  0  0  0  0  0  0  0  0  0  0
   -3.0538   -2.7186   -0.6556 H   0  0  0  0  0  0  0  0  0  0  0  0
   -1.3498   -2.2206    0.5184 C   0  0  0  0  0  0  0  0  0  0  0  0
   -0.4997   -2.9426    1.0194 O   0  0  0  0  0  0  0  0  0  0  0  0
   -1.1198   -0.9926    0.0674 N   0  0  0  0  0  0  0  0  0  0  0  0
   -1.8978   -0.4486   -0.2716 H   0  0  0  0  0  0  0  0  0  0  0  0
    0.1693   -0.2866    0.0854 C   0  0  1  0  0  0  0  0  0  0  0  0
    0.4682   -0.0632   -0.9402 H   0  0  0  0  0  0  0  0  0  0  0  0
    0.0085    1.0482    0.8448 C   0  0  0  0  0  0  0  0  0  0  0  0
   -0.4581    0.8476    1.8109 H   0  0  0  0  0  0  0  0  0  0  0  0
    0.9993    1.4669    1.0341 H   0  0  0  0  0  0  0  0  0  0  0  0
   -0.8536    2.0940    0.1207 C   0  0  0  0  0  0  0  0  0  0  0  0
   -0.8905    2.0763   -1.1323 O   0  5  0  0  0  0  0  0  0  0  0  0
   -1.4591    2.9226    0.8342 O   0  0  0  0  0  0  0  0  0  0  0  0
    1.2514   -1.1921    0.7180 C   0  0  0  0  0  0  0  0  0  0  0  0
    1.0543   -2.4059    0.8496 O   0  0  0  0  0  0  0  0  0  0  0  0
    2.3993   -0.6217    1.0970 N   0  0  0  0  0  0  0  0  0  0  0  0
    2.4332    0.3972    1.0283 H   0  0  0  0  0  0  0  0  0  0  0  0
    3.5183   -1.3177    1.7233 C   0  0  0  0  0  0  0  0  0  0  0  0
    3.7121   -2.2523    1.1954 H   0  0  0  0  0  0  0  0  0  0  0  0
    4.4061   -0.6868    1.6900 H   0  0  0  0  0  0  0  0  0  0  0  0
    3.2683   -1.5388    2.7611 H   0  0  0  0  0  0  0  0  0  0  0  0
  5  6  2  0  0  0  0
  5  7  1  0  0  0  0
  2  3  1  0  0  0  0
  2  4  1  0  0  0  0
  2  5  1  0  0  0  0
  1  2  1  0  0  0  0
 17 18  2  0  0  0  0
 17 19  1  0  0  0  0
 14 15  1  0  0  0  0
 14 16  2  0  0  0  0
 11 12  1  0  0  0  0
 11 13  1  0  0  0  0
 11 14  1  0  0  0  0
  9 10  1  0  0  0  0
  9 11  1  0  0  0  0
  9 17  1  0  0  0  0
  7  8  1  0  0  0  0
  7  9  1  0  0  0  0
 21 22  1  0  0  0  0
 21 23  1  0  0  0  0
 21 24  1  0  0  0  0
 19 20  1  0  0  0  0
 19 21  1  0  0  0  0
M  CHG  1  15  -1
M  END
$$$$
default_name
  -OEChem-01062215323D

 24 23  0     1  0  0  0  0  0999 V2000
   -2.8347   -3.7166    0.8034 H   0  0  0  0  0  0  0  0  0  0  0  0
   -2.7728   -2.7096    0.3954 C   0  0  0  0  0  0  0  0  0  0  0  0
   -3.4267   -2.0426    0.9524 H   0  0  0  0  0  0  0  0  0  0  0  0
   -3.0538   -2.7186   -0.6556 H   0  0  0  0  0  0  0  0  0  0  0  0
   -1.3498   -2.2206    0.5184 C   0  0  0  0  0  0  0  0  0  0  0  0
   -0.4997   -2.9426    1.0194 O   0  0  0  0  0  0  0  0  0  0  0  0
   -1.1198   -0.9926    0.0674 N   0  0  0  0  0  0  0  0  0  0  0  0
   -1.8978   -0.4486   -0.2716 H   0  0  0  0  0  0  0  0  0  0  0  0
    0.1693   -0.2866    0.0854 C   0  0  1  0  0  0  0  0  0  0  0  0
    0.4682   -0.0632   -0.9402 H   0  0  0  0  0  0  0  0  0  0  0  0
    0.0085    1.0482    0.8448 C   0  0  0  0  0  0  0  0  0  0  0  0
   -0.4581    0.8476    1.8109 H   0  0  0  0  0  0  0  0  0  0  0  0
    0.9993    1.4669    1.0341 H   0  0  0  0  0  0  0  0  0  0  0  0
   -0.8536    2.0940    0.1207 C   0  0  0  0  0  0  0  0  0  0  0  0
   -0.8905    2.0763   -1.1323 O   0  5  0  0  0  0  0  0  0  0  0  0
   -1.4591    2.9226    0.8342 O   0  0  0  0  0  0  0  0  0  0  0  0
    1.2514   -1.1921    0.7180 C   0  0  0  0  0  0  0  0  0  0  0  0
    1.1845   -2.4218    0.6041 O   0  0  0  0  0  0  0  0  0  0  0  0
    2.2573   -0.6006    1.3701 N   0  0  0  0  0  0  0  0  0  0  0  0
    2.1782    0.4116    1.4850 H   0  0  0  0  0  0  0  0  0  0  0  0
    3.3514   -1.2968    2.0387 C   0  0  0  0  0  0  0  0  0  0  0  0
    3.7287   -2.0928    1.3954 H   0  0  0  0  0  0  0  0  0  0  0  0
    4.1529   -0.5921    2.2587 H   0  0  0  0  0  0  0  0  0  0  0  0
    2.9851   -1.7324    2.9686 H   0  0  0  0  0  0  0  0  0  0  0  0
  5  6  2  0  0  0  0
  5  7  1  0  0  0  0
  2  3  1  0  0  0  0
  2  4  1  0  0  0  0
  2  5  1  0  0  0  0
  1  2  1  0  0  0  0
 17 18  2  0  0  0  0
 17 19  1  0  0  0  0
 14 15  1  0  0  0  0
 14 16  2  0  0  0  0
 11 12  1  0  0  0  0
 11 13  1  0  0  0  0
 11 14  1  0  0  0  0
  9 10  1  0  0  0  0
  9 11  1  0  0  0  0
  9 17  1  0  0  0  0
  7  8  1  0  0  0  0
  7  9  1  0  0  0  0
 21 22  1  0  0  0  0
 21 23  1  0  0  0  0
 21 24  1  0  0  0  0
 19 20  1  0  0  0  0
 19 21  1  0  0  0  0
M  CHG  1  15  -1
M  END
$$$$
default_name
  -OEChem-01062215323D

 24 23  0     1  0  0  0  0  0999 V2000
   -2.8347   -3.7166    0.8034 H   0  0  0  0  0  0  0  0  0  0  0  0
   -2.7728   -2.7096    0.3954 C   0  0  0  0  0  0  0  0  0  0  0  0
   -3.4267   -2.0426    0.9524 H   0  0  0  0  0  0  0  0  0  0  0  0
   -3.0538   -2.7186   -0.6556 H   0  0  0  0  0  0  0  0  0  0  0  0
   -1.3498   -2.2206    0.5184 C   0  0  0  0  0  0  0  0  0  0  0  0
   -0.4997   -2.9426    1.0194 O   0  0  0  0  0  0  0  0  0  0  0  0
   -1.1198   -0.9926    0.0674 N   0  0  0  0  0  0  0  0  0  0  0  0
   -1.8978   -0.4486   -0.2716 H   0  0  0  0  0  0  0  0  0  0  0  0
    0.1693   -0.2866    0.0854 C   0  0  1  0  0  0  0  0  0  0  0  0
    0.4682   -0.0632   -0.9402 H   0  0  0  0  0  0  0  0  0  0  0  0
    0.0085    1.0482    0.8448 C   0  0  0  0  0  0  0  0  0  0  0  0
   -0.4581    0.8476    1.8109 H   0  0  0  0  0  0  0  0  0  0  0  0
    0.9993    1.4669    1.0341 H   0  0  0  0  0  0  0  0  0  0  0  0
   -0.8536    2.0940    0.1207 C   0  0  0  0  0  0  0  0  0  0  0  0
   -0.8905    2.0763   -1.1323 O   0  5  0  0  0  0  0  0  0  0  0  0
   -1.4591    2.9226    0.8342 O   0  0  0  0  0  0  0  0  0  0  0  0
    1.2514   -1.1921    0.7180 C   0  0  0  0  0  0  0  0  0  0  0  0
    1.3492   -2.3788    0.3838 O   0  0  0  0  0  0  0  0  0  0  0  0
    2.0764   -0.6449    1.6161 N   0  0  0  0  0  0  0  0  0  0  0  0
    1.8611    0.3157    1.8901 H   0  0  0  0  0  0  0  0  0  0  0  0
    3.1401   -1.3514    2.3219 C   0  0  0  0  0  0  0  0  0  0  0  0
    3.6975   -1.9731    1.6201 H   0  0  0  0  0  0  0  0  0  0  0  0
    3.8121   -0.6305    2.7868 H   0  0  0  0  0  0  0  0  0  0  0  0
    2.7005   -1.9869    3.0909 H   0  0  0  0  0  0  0  0  0  0  0  0
  5  6  2  0  0  0  0
  5  7  1  0  0  0  0
  2  3  1  0  0  0  0
  2  4  1  0  0  0  0
  2  5  1  0  0  0  0
  1  2  1  0  0  0  0
 17 18  2  0  0  0  0
 17 19  1  0  0  0  0
 14 15  1  0  0  0  0
 14 16  2  0  0  0  0
 11 12  1  0  0  0  0
 11 13  1  0  0  0  0
 11 14  1  0  0  0  0
  9 10  1  0  0  0  0
  9 11  1  0  0  0  0
  9 17  1  0  0  0  0
  7  8  1  0  0  0  0
  7  9  1  0  0  0  0
 21 22  1  0  0  0  0
 21 23  1  0  0  0  0
 21 24  1  0  0  0  0
 19 20  1  0  0  0  0
 19 21  1  0  0  0  0
M  CHG  1  15  -1
M  END
$$$$
default_name
  -OEChem-01062215323D

 24 23  0     1  0  0  0  0  0999 V2000
   -2.8347   -3.7166    0.8034 H   0  0  0  0  0  0  0  0  0  0  0  0
   -2.7728   -2.7096    0.3954 C   0  0  0  0  0  0  0  0  0  0  0  0
   -3.4267   -2.0426    0.9524 H   0  0  0  0  0  0  0  0  0  0  0  0
   -3.0538   -2.7186   -0.6556 H   0  0  0  0  0  0  0  0  0  0  0  0
   -1.3498   -2.2206    0.5184 C   0  0  0  0  0  0  0  0  0  0  0  0
   -0.4997   -2.9426    1.0194 O   0  0  0  0  0  0  0  0  0  0  0  0
   -1.1198   -0.9926    0.0674 N   0  0  0  0  0  0  0  0  0  0  0  0
   -1.8978   -0.4486   -0.2716 H   0  0  0  0  0  0  0  0  0  0  0  0
    0.1693   -0.2866    0.0854 C   0  0  1  0  0  0  0  0  0  0  0  0
    0.4682   -0.0632   -0.9402 H   0  0  0  0  0  0  0  0  0  0  0  0
    0.0085    1.0482    0.8448 C   0  0  0  0  0  0  0  0  0  0  0  0
   -0.4581    0.8476    1.8109 H   0  0  0  0  0  0  0  0  0  0  0  0
    0.9993    1.4669    1.0341 H   0  0  0  0  0  0  0  0  0  0  0  0
   -0.8536    2.0940    0.1207 C   0  0  0  0  0  0  0  0  0  0  0  0
   -0.8905    2.0763   -1.1323 O   0  5  0  0  0  0  0  0  0  0  0  0
   -1.4591    2.9226    0.8342 O   0  0  0  0  0  0  0  0  0  0  0  0
    1.2514   -1.1921    0.7180 C   0  0  0  0  0  0  0  0  0  0  0  0
    1.5371   -2.2800    0.2038 O   0  0  0  0  0  0  0  0  0  0  0  0
    1.8692   -0.7513    1.8184 N   0  0  0  0  0  0  0  0  0  0  0  0
    1.5036    0.1161    2.2160 H   0  0  0  0  0  0  0  0  0  0  0  0
    2.8990   -1.4778    2.5535 C   0  0  0  0  0  0  0  0  0  0  0  0
    3.6207   -1.9015    1.8540 H   0  0  0  0  0  0  0  0  0  0  0  0
    3.4069   -0.7993    3.2383 H   0  0  0  0  0  0  0  0  0  0  0  0
    2.4341   -2.2851    3.1199 H   0  0  0  0  0  0  0  0  0  0  0  0
  5  6  2  0  0  0  0
  5  7  1  0  0  0  0
  2  3  1  0  0  0  0
  2  4  1  0  0  0  0
  2  5  1  0  0  0  0
  1  2  1  0  0  0  0
 17 18  2  0  0  0  0
 17 19  1  0  0  0  0
 14 15  1  0  0  0  0
 14 16  2  0  0  0  0
 11 12  1  0  0  0  0
 11 13  1  0  0  0  0
 11 14  1  0  0  0  0
  9 10  1  0  0  0  0
  9 11  1  0  0  0  0
  9 17  1  0  0  0  0
  7  8  1  0  0  0  0
  7  9  1  0  0  0  0
 21 22  1  0  0  0  0
 21 23  1  0  0  0  0
 21 24  1  0  0  0  0
 19 20  1  0  0  0  0
 19 21  1  0  0  0  0
M  CHG  1  15  -1
M  END
$$$$
default_name
  -OEChem-01062215323D

 24 23  0     1  0  0  0  0  0999 V2000
   -2.8347   -3.7166    0.8034 H   0  0  0  0  0  0  0  0  0  0  0  0
   -2.7728   -2.7096    0.3954 C   0  0  0  0  0  0  0  0  0  0  0  0
   -3.4267   -2.0426    0.9524 H   0  0  0  0  0  0  0  0  0  0  0  0
   -3.0538   -2.7186   -0.6556 H   0  0  0  0  0  0  0  0  0  0  0  0
   -1.3498   -2.2206    0.5184 C   0  0  0  0  0  0  0  0  0  0  0  0
   -0.4997   -2.9426    1.0194 O   0  0  0  0  0  0  0  0  0  0  0  0
   -1.1198   -0.9926    0.0674 N   0  0  0  0  0  0  0  0  0  0  0  0
   -1.8978   -0.4486   -0.2716 H   0  0  0  0  0  0  0  0  0  0  0  0
    0.1693   -0.2866    0.0854 C   0  0  1  0  0  0  0  0  0  0  0  0
    0.4682   -0.0632   -0.9402 H   0  0  0  0  0  0  0  0  0  0  0  0
    0.0085    1.0482    0.8448 C   0  0  0  0  0  0  0  0  0  0  0  0
   -0.4581    0.8476    1.8109 H   0  0  0  0  0  0  0  0  0  0  0  0
    0.9993    1.4669    1.0341 H   0  0  0  0  0  0  0  0  0  0  0  0
   -0.8536    2.0940    0.1207 C   0  0  0  0  0  0  0  0  0  0  0  0
   -0.8905    2.0763   -1.1323 O   0  5  0  0  0  0  0  0  0  0  0  0
   -1.4591    2.9226    0.8342 O   0  0  0  0  0  0  0  0  0  0  0  0
    1.2514   -1.1921    0.7180 C   0  0  0  0  0  0  0  0  0  0  0  0
    1.7355   -2.1320    0.0764 O   0  0  0  0  0  0  0  0  0  0  0  0
    1.6496   -0.9126    1.9631 N   0  0  0  0  0  0  0  0  0  0  0  0
    1.1300   -0.1736    2.4405 H   0  0  0  0  0  0  0  0  0  0  0  0
    2.6443   -1.6674    2.7178 C   0  0  0  0  0  0  0  0  0  0  0  0
    3.5034   -1.8829    2.0812 H   0  0  0  0  0  0  0  0  0  0  0  0
    2.9649   -1.0870    3.5824 H   0  0  0  0  0  0  0  0  0  0  0  0
    2.2040   -2.6065    3.0535 H   0  0  0  0  0  0  0  0  0  0  0  0
  5  6  2  0  0  0  0
  5  7  1  0  0  0  0
  2  3  1  0  0  0  0
  2  4  1  0  0  0  0
  2  5  1  0  0  0  0
  1  2  1  0  0  0  0
 17 18  2  0  0  0  0
 17 19  1  0  0  0  0
 14 15  1  0  0  0  0
 14 16  2  0  0  0  0
 11 12  1  0  0  0  0
 11 13  1  0  0  0  0
 11 14  1  0  0  0  0
  9 10  1  0  0  0  0
  9 11  1  0  0  0  0
  9 17  1  0  0  0  0
  7  8  1  0  0  0  0
  7  9  1  0  0  0  0
 21 22  1  0  0  0  0
 21 23  1  0  0  0  0
 21 24  1  0  0  0  0
 19 20  1  0  0  0  0
 19 21  1  0  0  0  0
M  CHG  1  15  -1
M  END
$$$$
default_name
  -OEChem-01062215323D

 24 23  0     1  0  0  0  0  0999 V2000
   -2.8347   -3.7166    0.8034 H   0  0  0  0  0  0  0  0  0  0  0  0
   -2.7728   -2.7096    0.3954 C   0  0  0  0  0  0  0  0  0  0  0  0
   -3.4267   -2.0426    0.9524 H   0  0  0  0  0  0  0  0  0  0  0  0
   -3.0538   -2.7186   -0.6556 H   0  0  0  0  0  0  0  0  0  0  0  0
   -1.3498   -2.2206    0.5184 C   0  0  0  0  0  0  0  0  0  0  0  0
   -0.4997   -2.9426    1.0194 O   0  0  0  0  0  0  0  0  0  0  0  0
   -1.1198   -0.9926    0.0674 N   0  0  0  0  0  0  0  0  0  0  0  0
   -1.8978   -0.4486   -0.2716 H   0  0  0  0  0  0  0  0  0  0  0  0
    0.1693   -0.2866    0.0854 C   0  0  1  0  0  0  0  0  0  0  0  0
    0.4682   -0.0632   -0.9402 H   0  0  0  0  0  0  0  0  0  0  0  0
    0.0085    1.0482    0.8448 C   0  0  0  0  0  0  0  0  0  0  0  0
   -0.4581    0.8476    1.8109 H   0  0  0  0  0  0  0  0  0  0  0  0
    0.9993    1.4669    1.0341 H   0  0  0  0  0  0  0  0  0  0  0  0
   -0.8536    2.0940    0.1207 C   0  0  0  0  0  0  0  0  0  0  0  0
   -0.8905    2.0763   -1.1323 O   0  5  0  0  0  0  0  0  0  0  0  0
   -1.4591    2.9226    0.8342 O   0  0  0  0  0  0  0  0  0  0  0  0
    1.2514   -1.1921    0.7180 C   0  0  0  0  0  0  0  0  0  0  0  0
    1.9307   -1.9450    0.0101 O   0  0  0  0  0  0  0  0  0  0  0  0
    1.4326   -1.1180    2.0403 N   0  0  0  0  0  0  0  0  0  0  0  0
    0.7658   -0.5336    2.5482 H   0  0  0  0  0  0  0  0  0  0  0  0
    2.3935   -1.9073    2.8035 C   0  0  0  0  0  0  0  0  0  0  0  0
    3.3538   -1.9185    2.2863 H   0  0  0  0  0  0  0  0  0  0  0  0
    2.5164   -1.4740    3.7958 H   0  0  0  0  0  0  0  0  0  0  0  0
    2.0258   -2.9294    2.8962 H   0  0  0  0  0  0  0  0  0  0  0  0
  5  6  2  0  0  0  0
  5  7  1  0  0  0  0
  2  3  1  0  0  0  0
  2  4  1  0  0  0  0
  2  5  1  0  0  0  0
  1  2  1  0  0  0  0
 17 18  2  0  0  0  0
 17 19  1  0  0  0  0
 14 15  1  0  0  0  0
 14 16  2  0  0  0  0
 11 12  1  0  0  0  0
 11 13  1  0  0  0  0
 11 14  1  0  0  0  0
  9 10  1  0  0  0  0
  9 11  1  0  0  0  0
  9 17  1  0  0  0  0
  7  8  1  0  0  0  0
  7  9  1  0  0  0  0
 21 22  1  0  0  0  0
 21 23  1  0  0  0  0
 21 24  1  0  0  0  0
 19 20  1  0  0  0  0
 19 21  1  0  0  0  0
M  CHG  1  15  -1
M  END
$$$$
default_name
  -OEChem-01062215323D

 24 23  0     1  0  0  0  0  0999 V2000
   -2.8347   -3.7166    0.8034 H   0  0  0  0  0  0  0  0  0  0  0  0
   -2.7728   -2.7096    0.3954 C   0  0  0  0  0  0  0  0  0  0  0  0
   -3.4267   -2.0426    0.9524 H   0  0  0  0  0  0  0  0  0  0  0  0
   -3.0538   -2.7186   -0.6556 H   0  0  0  0  0  0  0  0  0  0  0  0
   -1.3498   -2.2206    0.5184 C   0  0  0  0  0  0  0  0  0  0  0  0
   -0.4997   -2.9426    1.0194 O   0  0  0  0  0  0  0  0  0  0  0  0
   -1.1198   -0.9926    0.0674 N   0  0  0  0  0  0  0  0  0  0  0  0
   -1.8978   -0.4486   -0.2716 H   0  0  0  0  0  0  0  0  0  0  0  0
    0.1693   -0.2866    0.0854 C   0  0  1  0  0  0  0  0  0  0  0  0
    0.4682   -0.0632   -0.9402 H   0  0  0  0  0  0  0  0  0  0  0  0
    0.0085    1.0482    0.8448 C   0  0  0  0  0  0  0  0  0  0  0  0
   -0.4581    0.8476    1.8109 H   0  0  0  0  0  0  0  0  0  0  0  0
    0.9993    1.4669    1.0341 H   0  0  0  0  0  0  0  0  0  0  0  0
   -0.8536    2.0940    0.1207 C   0  0  0  0  0  0  0  0  0  0  0  0
   -0.8905    2.0763   -1.1323 O   0  5  0  0  0  0  0  0  0  0  0  0
   -1.4591    2.9226    0.8342 O   0  0  0  0  0  0  0  0  0  0  0  0
    1.2514   -1.1921    0.7180 C   0  0  0  0  0  0  0  0  0  0  0  0
    2.1095   -1.7317    0.0095 O   0  0  0  0  0  0  0  0  0  0  0  0
    1.2331   -1.3533    2.0448 N   0  0  0  0  0  0  0  0  0  0  0  0
    0.4358   -0.9394    2.5318 H   0  0  0  0  0  0  0  0  0  0  0  0
    2.1636   -2.1811    2.8049 C   0  0  0  0  0  0  0  0  0  0  0  0
    3.1819   -2.0058    2.4554 H   0  0  0  0  0  0  0  0  0  0  0  0
    2.0917   -1.9340    3.8637 H   0  0  0  0  0  0  0  0  0  0  0  0
    1.9116   -3.2316    2.6589 H   0  0  0  0  0  0  0  0  0  0  0  0
  5  6  2  0  0  0  0
  5  7  1  0  0  0  0
  2  3  1  0  0  0  0
  2  4  1  0  0  0  0
  2  5  1  0  0  0  0
  1  2  1  0  0  0  0
 17 18  2  0  0  0  0
 17 19  1  0  0  0  0
 14 15  1  0  0  0  0
 14 16  2  0  0  0  0
 11 12  1  0  0  0  0
 11 13  1  0  0  0  0
 11 14  1  0  0  0  0
  9 10  1  0  0  0  0
  9 11  1  0  0  0  0
  9 17  1  0  0  0  0
  7  8  1  0  0  0  0
  7  9  1  0  0  0  0
 21 22  1  0  0  0  0
 21 23  1  0  0  0  0
 21 24  1  0  0  0  0
 19 20  1  0  0  0  0
 19 21  1  0  0  0  0
M  CHG  1  15  -1
M  END
$$$$
default_name
  -OEChem-01062215323D

 24 23  0     1  0  0  0  0  0999 V2000
   -2.8347   -3.7166    0.8034 H   0  0  0  0  0  0  0  0  0  0  0  0
   -2.7728   -2.7096    0.3954 C   0  0  0  0  0  0  0  0  0  0  0  0
   -3.4267   -2.0426    0.9524 H   0  0  0  0  0  0  0  0  0  0  0  0
   -3.0538   -2.7186   -0.6556 H   0  0  0  0  0  0  0  0  0  0  0  0
   -1.3498   -2.2206    0.5184 C   0  0  0  0  0  0  0  0  0  0  0  0
   -0.4997   -2.9426    1.0194 O   0  0  0  0  0  0  0  0  0  0  0  0
   -1.1198   -0.9926    0.0674 N   0  0  0  0  0  0  0  0  0  0  0  0
   -1.8978   -0.4486   -0.2716 H   0  0  0  0  0  0  0  0  0  0  0  0
    0.1693   -0.2866    0.0854 C   0  0  1  0  0  0  0  0  0  0  0  0
    0.4682   -0.0632   -0.9402 H   0  0  0  0  0  0  0  0  0  0  0  0
    0.0085    1.0482    0.8448 C   0  0  0  0  0  0  0  0  0  0  0  0
   -0.4581    0.8476    1.8109 H   0  0  0  0  0  0  0  0  0  0  0  0
    0.9993    1.4669    1.0341 H   0  0  0  0  0  0  0  0  0  0  0  0
   -0.8536    2.0940    0.1207 C   0  0  0  0  0  0  0  0  0  0  0  0
   -0.8905    2.0763   -1.1323 O   0  5  0  0  0  0  0  0  0  0  0  0
   -1.4591    2.9226    0.8342 O   0  0  0  0  0  0  0  0  0  0  0  0
    1.2514   -1.1921    0.7180 C   0  0  0  0  0  0  0  0  0  0  0  0
    2.2597   -1.5067    0.0747 O   0  0  0  0  0  0  0  0  0  0  0  0
    1.0646   -1.6025    1.9764 N   0  0  0  0  0  0  0  0  0  0  0  0
    0.1625   -1.3634    2.3925 H   0  0  0  0  0  0  0  0  0  0  0  0
    1.9703   -2.4701    2.7218 C   0  0  0  0  0  0  0  0  0  0  0  0
    2.9995   -2.1390    2.5767 H   0  0  0  0  0  0  0  0  0  0  0  0
    1.7200   -2.4356    3.7817 H   0  0  0  0  0  0  0  0  0  0  0  0
    1.8694   -3.4927    2.3575 H   0  0  0  0  0  0  0  0  0  0  0  0
  5  6  2  0  0  0  0
  5  7  1  0  0  0  0
  2  3  1  0  0  0  0
  2  4  1  0  0  0  0
  2  5  1  0  0  0  0
  1  2  1  0  0  0  0
 17 18  2  0  0  0  0
 17 19  1  0  0  0  0
 14 15  1  0  0  0  0
 14 16  2  0  0  0  0
 11 12  1  0  0  0  0
 11 13  1  0  0  0  0
 11 14  1  0  0  0  0
  9 10  1  0  0  0  0
  9 11  1  0  0  0  0
  9 17  1  0  0  0  0
  7  8  1  0  0  0  0
  7  9  1  0  0  0  0
 21 22  1  0  0  0  0
 21 23  1  0  0  0  0
 21 24  1  0  0  0  0
 19 20  1  0  0  0  0
 19 21  1  0  0  0  0
M  CHG  1  15  -1
M  END
$$$$
default_name
  -OEChem-01062215323D

 24 23  0     1  0  0  0  0  0999 V2000
   -2.8347   -3.7166    0.8034 H   0  0  0  0  0  0  0  0  0  0  0  0
   -2.7728   -2.7096    0.3954 C   0  0  0  0  0  0  0  0  0  0  0  0
   -3.4267   -2.0426    0.9524 H   0  0  0  0  0  0  0  0  0  0  0  0
   -3.0538   -2.7186   -0.6556 H   0  0  0  0  0  0  0  0  0  0  0  0
   -1.3498   -2.2206    0.5184 C   0  0  0  0  0  0  0  0  0  0  0  0
   -0.4997   -2.9426    1.0194 O   0  0  0  0  0  0  0  0  0  0  0  0
   -1.1198   -0.9926    0.0674 N   0  0  0  0  0  0  0  0  0  0  0  0
   -1.8978   -0.4486   -0.2716 H   0  0  0  0  0  0  0  0  0  0  0  0
    0.1693   -0.2866    0.0854 C   0  0  1  0  0  0  0  0  0  0  0  0
    0.4682   -0.0632   -0.9402 H   0  0  0  0  0  0  0  0  0  0  0  0
    0.0085    1.0482    0.8448 C   0  0  0  0  0  0  0  0  0  0  0  0
   -0.4581    0.8476    1.8109 H   0  0  0  0  0  0  0  0  0  0  0  0
    0.9993    1.4669    1.0341 H   0  0  0  0  0  0  0  0  0  0  0  0
   -0.8536    2.0940    0.1207 C   0  0  0  0  0  0  0  0  0  0  0  0
   -0.8905    2.0763   -1.1323 O   0  5  0  0  0  0  0  0  0  0  0  0
   -1.4591    2.9226    0.8342 O   0  0  0  0  0  0  0  0  0  0  0  0
    1.2514   -1.1921    0.7180 C   0  0  0  0  0  0  0  0  0  0  0  0
    2.3711   -1.2852    0.2012 O   0  0  0  0  0  0  0  0  0  0  0  0
    0.9386   -1.8487    1.8395 N   0  0  0  0  0  0  0  0  0  0  0  0
   -0.0355   -1.7766    2.1398 H   0  0  0  0  0  0  0  0  0  0  0  0
    1.8269   -2.7547    2.5598 C   0  0  0  0  0  0  0  0  0  0  0  0
    2.8190   -2.3089    2.6422 H   0  0  0  0  0  0  0  0  0  0  0  0
    1.4264   -2.9446    3.5553 H   0  0  0  0  0  0  0  0  0  0  0  0
    1.9018   -3.6947    2.0128 H   0  0  0  0  0  0  0  0  0  0  0  0
  5  6  2  0  0  0  0
  5  7  1  0  0  0  0
  2  3  1  0  0  0  0
  2  4  1  0  0  0  0
  2  5  1  0  0  0  0
  1  2  1  0  0  0  0
 17 18  2  0  0  0  0
 17 19  1  0  0  0  0
 14 15  1  0  0  0  0
 14 16  2  0  0  0  0
 11 12  1  0  0  0  0
 11 13  1  0  0  0  0
 11 14  1  0  0  0  0
  9 10  1  0  0  0  0
  9 11  1  0  0  0  0
  9 17  1  0  0  0  0
  7  8  1  0  0  0  0
  7  9  1  0  0  0  0
 21 22  1  0  0  0  0
 21 23  1  0  0  0  0
 21 24  1  0  0  0  0
 19 20  1  0  0  0  0
 19 21  1  0  0  0  0
M  CHG  1  15  -1
M  END
$$$$
default_name
  -OEChem-01062215323D

 24 23  0     1  0  0  0  0  0999 V2000
   -2.8347   -3.7166    0.8034 H   0  0  0  0  0  0  0  0  0  0  0  0
   -2.7728   -2.7096    0.3954 C   0  0  0  0  0  0  0  0  0  0  0  0
   -3.4267   -2.0426    0.9524 H   0  0  0  0  0  0  0  0  0  0  0  0
   -3.0538   -2.7186   -0.6556 H   0  0  0  0  0  0  0  0  0  0  0  0
   -1.3498   -2.2206    0.5184 C   0  0  0  0  0  0  0  0  0  0  0  0
   -0.4997   -2.9426    1.0194 O   0  0  0  0  0  0  0  0  0  0  0  0
   -1.1198   -0.9926    0.0674 N   0  0  0  0  0  0  0  0  0  0  0  0
   -1.8978   -0.4486   -0.2716 H   0  0  0  0  0  0  0  0  0  0  0  0
    0.1693   -0.2866    0.0854 C   0  0  1  0  0  0  0  0  0  0  0  0
    0.4682   -0.0632   -0.9402 H   0  0  0  0  0  0  0  0  0  0  0  0
    0.0085    1.0482    0.8448 C   0  0  0  0  0  0  0  0  0  0  0  0
   -0.4581    0.8476    1.8109 H   0  0  0  0  0  0  0  0  0  0  0  0
    0.9993    1.4669    1.0341 H   0  0  0  0  0  0  0  0  0  0  0  0
   -0.8536    2.0940    0.1207 C   0  0  0  0  0  0  0  0  0  0  0  0
   -0.8905    2.0763   -1.1323 O   0  5  0  0  0  0  0  0  0  0  0  0
   -1.4591    2.9226    0.8342 O   0  0  0  0  0  0  0  0  0  0  0  0
    1.2514   -1.1921    0.7180 C   0  0  0  0  0  0  0  0  0  0  0  0
    2.4361   -1.0823    0.3804 O   0  0  0  0  0  0  0  0  0  0  0  0
    0.8637   -2.0750    1.6437 N   0  0  0  0  0  0  0  0  0  0  0  0
   -0.1446   -2.1509    1.7907 H   0  0  0  0  0  0  0  0  0  0  0  0
    1.7430   -3.0154    2.3301 C   0  0  0  0  0  0  0  0  0  0  0  0
    2.6528   -2.5041    2.6473 H   0  0  0  0  0  0  0  0  0  0  0  0
    1.2311   -3.4264    3.1999 H   0  0  0  0  0  0  0  0  0  0  0  0
    2.0069   -3.8239    1.6481 H   0  0  0  0  0  0  0  0  0  0  0  0
  5  6  2  0  0  0  0
  5  7  1  0  0  0  0
  2  3  1  0  0  0  0
  2  4  1  0  0  0  0
  2  5  1  0  0  0  0
  1  2  1  0  0  0  0
 17 18  2  0  0  0  0
 17 19  1  0  0  0  0
 14 15  1  0  0  0  0
 14 16  2  0  0  0  0
 11 12  1  0  0  0  0
 11 13  1  0  0  0  0
 11 14  1  0  0  0  0
  9 10  1  0  0  0  0
  9 11  1  0  0  0  0
  9 17  1  0  0  0  0
  7  8  1  0  0  0  0
  7  9  1  0  0  0  0
 21 22  1  0  0  0  0
 21 23  1  0  0  0  0
 21 24  1  0  0  0  0
 19 20  1  0  0  0  0
 19 21  1  0  0  0  0
M  CHG  1  15  -1
M  END
$$$$
default_name
  -OEChem-01062215323D

 24 23  0     1  0  0  0  0  0999 V2000
   -2.8347   -3.7166    0.8034 H   0  0  0  0  0  0  0  0  0  0  0  0
   -2.7728   -2.7096    0.3954 C   0  0  0  0  0  0  0  0  0  0  0  0
   -3.4267   -2.0426    0.9524 H   0  0  0  0  0  0  0  0  0  0  0  0
   -3.0538   -2.7186   -0.6556 H   0  0  0  0  0  0  0  0  0  0  0  0
   -1.3498   -2.2206    0.5184 C   0  0  0  0  0  0  0  0  0  0  0  0
   -0.4997   -2.9426    1.0194 O   0  0  0  0  0  0  0  0  0  0  0  0
   -1.1198   -0.9926    0.0674 N   0  0  0  0  0  0  0  0  0  0  0  0
   -1.8978   -0.4486   -0.2716 H   0  0  0  0  0  0  0  0  0  0  0  0
    0.1693   -0.2866    0.0854 C   0  0  1  0  0  0  0  0  0  0  0  0
    0.4682   -0.0632   -0.9402 H   0  0  0  0  0  0  0  0  0  0  0  0
    0.0085    1.0482    0.8448 C   0  0  0  0  0  0  0  0  0  0  0  0
   -0.4581    0.8476    1.8109 H   0  0  0  0  0  0  0  0  0  0  0  0
    0.9993    1.4669    1.0341 H   0  0  0  0  0  0  0  0  0  0  0  0
   -0.8536    2.0940    0.1207 C   0  0  0  0  0  0  0  0  0  0  0  0
   -0.8905    2.0763   -1.1323 O   0  5  0  0  0  0  0  0  0  0  0  0
   -1.4591    2.9226    0.8342 O   0  0  0  0  0  0  0  0  0  0  0  0
    1.2514   -1.1921    0.7180 C   0  0  0  0  0  0  0  0  0  0  0  0
    2.4502   -0.9120    0.6000 O   0  0  0  0  0  0  0  0  0  0  0  0
    0.8449   -2.2661    1.4022 N   0  0  0  0  0  0  0  0  0  0  0  0
   -0.1576   -2.4608    1.3693 H   0  0  0  0  0  0  0  0  0  0  0  0
    1.7243   -3.2346    2.0483 C   0  0  0  0  0  0  0  0  0  0  0  0
    2.5121   -2.7111    2.5917 H   0  0  0  0  0  0  0  0  0  0  0  0
    1.1473   -3.8480    2.7398 H   0  0  0  0  0  0  0  0  0  0  0  0
    2.1773   -3.8716    1.2884 H   0  0  0  0  0  0  0  0  0  0  0  0
  5  6  2  0  0  0  0
  5  7  1  0  0  0  0
  2  3  1  0  0  0  0
  2  4  1  0  0  0  0
  2  5  1  0  0  0  0
  1  2  1  0  0  0  0
 17 18  2  0  0  0  0
 17 19  1  0  0  0  0
 14 15  1  0  0  0  0
 14 16  2  0  0  0  0
 11 12  1  0  0  0  0
 11 13  1  0  0  0  0
 11 14  1  0  0  0  0
  9 10  1  0  0  0  0
  9 11  1  0  0  0  0
  9 17  1  0  0  0  0
  7  8  1  0  0  0  0
  7  9  1  0  0  0  0
 21 22  1  0  0  0  0
 21 23  1  0  0  0  0
 21 24  1  0  0  0  0
 19 20  1  0  0  0  0
 19 21  1  0  0  0  0
M  CHG  1  15  -1
M  END
$$$$
default_name
  -OEChem-01062215323D

 24 23  0     1  0  0  0  0  0999 V2000
   -2.8347   -3.7166    0.8034 H   0  0  0  0  0  0  0  0  0  0  0  0
   -2.7728   -2.7096    0.3954 C   0  0  0  0  0  0  0  0  0  0  0  0
   -3.4267   -2.0426    0.9524 H   0  0  0  0  0  0  0  0  0  0  0  0
   -3.0538   -2.7186   -0.6556 H   0  0  0  0  0  0  0  0  0  0  0  0
   -1.3498   -2.2206    0.5184 C   0  0  0  0  0  0  0  0  0  0  0  0
   -0.4997   -2.9426    1.0194 O   0  0  0  0  0  0  0  0  0  0  0  0
   -1.1198   -0.9926    0.0674 N   0  0  0  0  0  0  0  0  0  0  0  0
   -1.8978   -0.4486   -0.2716 H   0  0  0  0  0  0  0  0  0  0  0  0
    0.1693   -0.2866    0.0854 C   0  0  1  0  0  0  0  0  0  0  0  0
    0.4682   -0.0632   -0.9402 H   0  0  0  0  0  0  0  0  0  0  0  0
    0.0085    1.0482    0.8448 C   0  0  0  0  0  0  0  0  0  0  0  0
   -0.4581    0.8476    1.8109 H   0  0  0  0  0  0  0  0  0  0  0  0
    0.9993    1.4669    1.0341 H   0  0  0  0  0  0  0  0  0  0  0  0
   -0.8536    2.0940    0.1207 C   0  0  0  0  0  0  0  0  0  0  0  0
   -0.8905    2.0763   -1.1323 O   0  5  0  0  0  0  0  0  0  0  0  0
   -1.4591    2.9226    0.8342 O   0  0  0  0  0  0  0  0  0  0  0  0
    1.2514   -1.1921    0.7180 C   0  0  0  0  0  0  0  0  0  0  0  0
    2.4125   -0.7857    0.8452 O   0  0  0  0  0  0  0  0  0  0  0  0
    0.8837   -2.4089    1.1314 N   0  0  0  0  0  0  0  0  0  0  0  0
   -0.0734   -2.6852    0.9041 H   0  0  0  0  0  0  0  0  0  0  0  0
    1.7723   -3.3972    1.7336 C   0  0  0  0  0  0  0  0  0  0  0  0
    2.4065   -2.9159    2.4792 H   0  0  0  0  0  0  0  0  0  0  0  0
    1.1807   -4.1808    2.2063 H   0  0  0  0  0  0  0  0  0  0  0  0
    2.4014   -3.8345    0.9581 H   0  0  0  0  0  0  0  0  0  0  0  0
  5  6  2  0  0  0  0
  5  7  1  0  0  0  0
  2  3  1  0  0  0  0
  2  4  1  0  0  0  0
  2  5  1  0  0  0  0
  1  2  1  0  0  0  0
 17 18  2  0  0  0  0
 17 19  1  0  0  0  0
 14 15  1  0  0  0  0
 14 16  2  0  0  0  0
 11 12  1  0  0  0  0
 11 13  1  0  0  0  0
 11 14  1  0  0  0  0
  9 10  1  0  0  0  0
  9 11  1  0  0  0  0
  9 17  1  0  0  0  0
  7  8  1  0  0  0  0
  7  9  1  0  0  0  0
 21 22  1  0  0  0  0
 21 23  1  0  0  0  0
 21 24  1  0  0  0  0
 19 20  1  0  0  0  0
 19 21  1  0  0  0  0
M  CHG  1  15  -1
M  END
$$$$
default_name
  -OEChem-01062215323D

 24 23  0     1  0  0  0  0  0999 V2000
   -2.8347   -3.7166    0.8034 H   0  0  0  0  0  0  0  0  0  0  0  0
   -2.7728   -2.7096    0.3954 C   0  0  0  0  0  0  0  0  0  0  0  0
   -3.4267   -2.0426    0.9524 H   0  0  0  0  0  0  0  0  0  0  0  0
   -3.0538   -2.7186   -0.6556 H   0  0  0  0  0  0  0  0  0  0  0  0
   -1.3498   -2.2206    0.5184 C   0  0  0  0  0  0  0  0  0  0  0  0
   -0.4997   -2.9426    1.0194 O   0  0  0  0  0  0  0  0  0  0  0  0
   -1.1198   -0.9926    0.0674 N   0  0  0  0  0  0  0  0  0  0  0  0
   -1.8978   -0.4486   -0.2716 H   0  0  0  0  0  0  0  0  0  0  0  0
    0.1693   -0.2866    0.0854 C   0  0  1  0  0  0  0  0  0  0  0  0
    0.4682   -0.0632   -0.9402 H   0  0  0  0  0  0  0  0  0  0  0  0
    0.0085    1.0482    0.8448 C   0  0  0  0  0  0  0  0  0  0  0  0
   -0.4581    0.8476    1.8109 H   0  0  0  0  0  0  0  0  0  0  0  0
    0.9993    1.4669    1.0341 H   0  0  0  0  0  0  0  0  0  0  0  0
   -0.8536    2.0940    0.1207 C   0  0  0  0  0  0  0  0  0  0  0  0
   -0.8905    2.0763   -1.1323 O   0  5  0  0  0  0  0  0  0  0  0  0
   -1.4591    2.9226    0.8342 O   0  0  0  0  0  0  0  0  0  0  0  0
    1.2514   -1.1921    0.7180 C   0  0  0  0  0  0  0  0  0  0  0  0
    2.3256   -0.7122    1.0992 O   0  0  0  0  0  0  0  0  0  0  0  0
    0.9773   -2.4937    0.8499 N   0  0  0  0  0  0  0  0  0  0  0  0
    0.1022   -2.8087    0.4268 H   0  0  0  0  0  0  0  0  0  0  0  0
    1.8835   -3.4922    1.4074 C   0  0  0  0  0  0  0  0  0  0  0  0
    2.3433   -3.1045    2.3174 H   0  0  0  0  0  0  0  0  0  0  0  0
    1.3291   -4.4021    1.6357 H   0  0  0  0  0  0  0  0  0  0  0  0
    2.6641   -3.7151    0.6798 H   0  0  0  0  0  0  0  0  0  0  0  0
  5  6  2  0  0  0  0
  5  7  1  0  0  0  0
  2  3  1  0  0  0  0
  2  4  1  0  0  0  0
  2  5  1  0  0  0  0
  1  2  1  0  0  0  0
 17 18  2  0  0  0  0
 17 19  1  0  0  0  0
 14 15  1  0  0  0  0
 14 16  2  0  0  0  0
 11 12  1  0  0  0  0
 11 13  1  0  0  0  0
 11 14  1  0  0  0  0
  9 10  1  0  0  0  0
  9 11  1  0  0  0  0
  9 17  1  0  0  0  0
  7  8  1  0  0  0  0
  7  9  1  0  0  0  0
 21 22  1  0  0  0  0
 21 23  1  0  0  0  0
 21 24  1  0  0  0  0
 19 20  1  0  0  0  0
 19 21  1  0  0  0  0
M  CHG  1  15  -1
M  END
$$$$
default_name
  -OEChem-01062215323D

 24 23  0     1  0  0  0  0  0999 V2000
   -2.8347   -3.7166    0.8034 H   0  0  0  0  0  0  0  0  0  0  0  0
   -2.7728   -2.7096    0.3954 C   0  0  0  0  0  0  0  0  0  0  0  0
   -3.4267   -2.0426    0.9524 H   0  0  0  0  0  0  0  0  0  0  0  0
   -3.0538   -2.7186   -0.6556 H   0  0  0  0  0  0  0  0  0  0  0  0
   -1.3498   -2.2206    0.5184 C   0  0  0  0  0  0  0  0  0  0  0  0
   -0.4997   -2.9426    1.0194 O   0  0  0  0  0  0  0  0  0  0  0  0
   -1.1198   -0.9926    0.0674 N   0  0  0  0  0  0  0  0  0  0  0  0
   -1.8978   -0.4486   -0.2716 H   0  0  0  0  0  0  0  0  0  0  0  0
    0.1693   -0.2866    0.0854 C   0  0  1  0  0  0  0  0  0  0  0  0
    0.4682   -0.0632   -0.9402 H   0  0  0  0  0  0  0  0  0  0  0  0
    0.0085    1.0482    0.8448 C   0  0  0  0  0  0  0  0  0  0  0  0
   -0.4581    0.8476    1.8109 H   0  0  0  0  0  0  0  0  0  0  0  0
    0.9993    1.4669    1.0341 H   0  0  0  0  0  0  0  0  0  0  0  0
   -0.8536    2.0940    0.1207 C   0  0  0  0  0  0  0  0  0  0  0  0
   -0.8905    2.0763   -1.1323 O   0  5  0  0  0  0  0  0  0  0  0  0
   -1.4591    2.9226    0.8342 O   0  0  0  0  0  0  0  0  0  0  0  0
    1.2514   -1.1921    0.7180 C   0  0  0  0  0  0  0  0  0  0  0  0
    2.1953   -0.6963    1.3447 O   0  0  0  0  0  0  0  0  0  0  0  0
    1.1194   -2.5148    0.5768 N   0  0  0  0  0  0  0  0  0  0  0  0
    0.3572   -2.8231   -0.0299 H   0  0  0  0  0  0  0  0  0  0  0  0
    2.0504   -3.5131    1.0920 C   0  0  0  0  0  0  0  0  0  0  0  0
    2.3267   -3.2640    2.1174 H   0  0  0  0  0  0  0  0  0  0  0  0
    1.5823   -4.4968    1.0670 H   0  0  0  0  0  0  0  0  0  0  0  0
    2.9473   -3.5215    0.4723 H   0  0  0  0  0  0  0  0  0  0  0  0
  5  6  2  0  0  0  0
  5  7  1  0  0  0  0
  2  3  1  0  0  0  0
  2  4  1  0  0  0  0
  2  5  1  0  0  0  0
  1  2  1  0  0  0  0
 17 18  2  0  0  0  0
 17 19  1  0  0  0  0
 14 15  1  0  0  0  0
 14 16  2  0  0  0  0
 11 12  1  0  0  0  0
 11 13  1  0  0  0  0
 11 14  1  0  0  0  0
  9 10  1  0  0  0  0
  9 11  1  0  0  0  0
  9 17  1  0  0  0  0
  7  8  1  0  0  0  0
  7  9  1  0  0  0  0
 21 22  1  0  0  0  0
 21 23  1  0  0  0  0
 21 24  1  0  0  0  0
 19 20  1  0  0  0  0
 19 21  1  0  0  0  0
M  CHG  1  15  -1
M  END
$$$$
default_name
  -OEChem-01062215323D

 24 23  0     1  0  0  0  0  0999 V2000
   -2.8347   -3.7166    0.8034 H   0  0  0  0  0  0  0  0  0  0  0  0
   -2.7728   -2.7096    0.3954 C   0  0  0  0  0  0  0  0  0  0  0  0
   -3.4267   -2.0426    0.9524 H   0  0  0  0  0  0  0  0  0  0  0  0
   -3.0538   -2.7186   -0.6556 H   0  0  0  0  0  0  0  0  0  0  0  0
   -1.3498   -2.2206    0.5184 C   0  0  0  0  0  0  0  0  0  0  0  0
   -0.4997   -2.9426    1.0194 O   0  0  0  0  0  0  0  0  0  0  0  0
   -1.1198   -0.9926    0.0674 N   0  0  0  0  0  0  0  0  0  0  0  0
   -1.8978   -0.4486   -0.2716 H   0  0  0  0  0  0  0  0  0  0  0  0
    0.1693   -0.2866    0.0854 C   0  0  1  0  0  0  0  0  0  0  0  0
    0.4682   -0.0632   -0.9402 H   0  0  0  0  0  0  0  0  0  0  0  0
    0.0085    1.0482    0.8448 C   0  0  0  0  0  0  0  0  0  0  0  0
   -0.4581    0.8476    1.8109 H   0  0  0  0  0  0  0  0  0  0  0  0
    0.9993    1.4669    1.0341 H   0  0  0  0  0  0  0  0  0  0  0  0
   -0.8536    2.0940    0.1207 C   0  0  0  0  0  0  0  0  0  0  0  0
   -0.8905    2.0763   -1.1323 O   0  5  0  0  0  0  0  0  0  0  0  0
   -1.4591    2.9226    0.8342 O   0  0  0  0  0  0  0  0  0  0  0  0
    1.2514   -1.1921    0.7180 C   0  0  0  0  0  0  0  0  0  0  0  0
    2.0306   -0.7393    1.5649 O   0  0  0  0  0  0  0  0  0  0  0  0
    1.3002   -2.4705    0.3308 N   0  0  0  0  0  0  0  0  0  0  0  0
    0.6743   -2.7272   -0.4350 H   0  0  0  0  0  0  0  0  0  0  0  0
    2.2616   -3.4584    0.8088 C   0  0  0  0  0  0  0  0  0  0  0  0
    2.3579   -3.3837    1.8928 H   0  0  0  0  0  0  0  0  0  0  0  0
    1.9231   -4.4584    0.5389 H   0  0  0  0  0  0  0  0  0  0  0  0
    3.2318   -3.2669    0.3500 H   0  0  0  0  0  0  0  0  0  0  0  0
  5  6  2  0  0  0  0
  5  7  1  0  0  0  0
  2  3  1  0  0  0  0
  2  4  1  0  0  0  0
  2  5  1  0  0  0  0
  1  2  1  0  0  0  0
 17 18  2  0  0  0  0
 17 19  1  0  0  0  0
 14 15  1  0  0  0  0
 14 16  2  0  0  0  0
 11 12  1  0  0  0  0
 11 13  1  0  0  0  0
 11 14  1  0  0  0  0
  9 10  1  0  0  0  0
  9 11  1  0  0  0  0
  9 17  1  0  0  0  0
  7  8  1  0  0  0  0
  7  9  1  0  0  0  0
 21 22  1  0  0  0  0
 21 23  1  0  0  0  0
 21 24  1  0  0  0  0
 19 20  1  0  0  0  0
 19 21  1  0  0  0  0
M  CHG  1  15  -1
M  END
$$$$
default_name
  -OEChem-01062215323D

 24 23  0     1  0  0  0  0  0999 V2000
   -2.8347   -3.7166    0.8034 H   0  0  0  0  0  0  0  0  0  0  0  0
   -2.7728   -2.7096    0.3954 C   0  0  0  0  0  0  0  0  0  0  0  0
   -3.4267   -2.0426    0.9524 H   0  0  0  0  0  0  0  0  0  0  0  0
   -3.0538   -2.7186   -0.6556 H   0  0  0  0  0  0  0  0  0  0  0  0
   -1.3498   -2.2206    0.5184 C   0  0  0  0  0  0  0  0  0  0  0  0
   -0.4997   -2.9426    1.0194 O   0  0  0  0  0  0  0  0  0  0  0  0
   -1.1198   -0.9926    0.0674 N   0  0  0  0  0  0  0  0  0  0  0  0
   -1.8978   -0.4486   -0.2716 H   0  0  0  0  0  0  0  0  0  0  0  0
    0.1693   -0.2866    0.0854 C   0  0  1  0  0  0  0  0  0  0  0  0
    0.4682   -0.0632   -0.9402 H   0  0  0  0  0  0  0  0  0  0  0  0
    0.0085    1.0482    0.8448 C   0  0  0  0  0  0  0  0  0  0  0  0
   -0.4581    0.8476    1.8109 H   0  0  0  0  0  0  0  0  0  0  0  0
    0.9993    1.4669    1.0341 H   0  0  0  0  0  0  0  0  0  0  0  0
   -0.8536    2.0940    0.1207 C   0  0  0  0  0  0  0  0  0  0  0  0
   -0.8905    2.0763   -1.1323 O   0  5  0  0  0  0  0  0  0  0  0  0
   -1.4591    2.9226    0.8342 O   0  0  0  0  0  0  0  0  0  0  0  0
    1.2514   -1.1921    0.7180 C   0  0  0  0  0  0  0  0  0  0  0  0
    1.8427   -0.8381    1.7449 O   0  0  0  0  0  0  0  0  0  0  0  0
    1.5075   -2.3641    0.1285 N   0  0  0  0  0  0  0  0  0  0  0  0
    1.0318   -2.5276   -0.7609 H   0  0  0  0  0  0  0  0  0  0  0  0
    2.5028   -3.3320    0.5772 C   0  0  0  0  0  0  0  0  0  0  0  0
    2.4347   -3.4553    1.6589 H   0  0  0  0  0  0  0  0  0  0  0  0
    2.3283   -4.2896    0.0874 H   0  0  0  0  0  0  0  0  0  0  0  0
    3.4982   -2.9688    0.3210 H   0  0  0  0  0  0  0  0  0  0  0  0
  5  6  2  0  0  0  0
  5  7  1  0  0  0  0
  2  3  1  0  0  0  0
  2  4  1  0  0  0  0
  2  5  1  0  0  0  0
  1  2  1  0  0  0  0
 17 18  2  0  0  0  0
 17 19  1  0  0  0  0
 14 15  1  0  0  0  0
 14 16  2  0  0  0  0
 11 12  1  0  0  0  0
 11 13  1  0  0  0  0
 11 14  1  0  0  0  0
  9 10  1  0  0  0  0
  9 11  1  0  0  0  0
  9 17  1  0  0  0  0
  7  8  1  0  0  0  0
  7  9  1  0  0  0  0
 21 22  1  0  0  0  0
 21 23  1  0  0  0  0
 21 24  1  0  0  0  0
 19 20  1  0  0  0  0
 19 21  1  0  0  0  0
M  CHG  1  15  -1
M  END
$$$$
default_name
  -OEChem-01062215323D

 24 23  0     1  0  0  0  0  0999 V2000
   -2.8347   -3.7166    0.8034 H   0  0  0  0  0  0  0  0  0  0  0  0
   -2.7728   -2.7096    0.3954 C   0  0  0  0  0  0  0  0  0  0  0  0
   -3.4267   -2.0426    0.9524 H   0  0  0  0  0  0  0  0  0  0  0  0
   -3.0538   -2.7186   -0.6556 H   0  0  0  0  0  0  0  0  0  0  0  0
   -1.3498   -2.2206    0.5184 C   0  0  0  0  0  0  0  0  0  0  0  0
   -0.4997   -2.9426    1.0194 O   0  0  0  0  0  0  0  0  0  0  0  0
   -1.1198   -0.9926    0.0674 N   0  0  0  0  0  0  0  0  0  0  0  0
   -1.8978   -0.4486   -0.2716 H   0  0  0  0  0  0  0  0  0  0  0  0
    0.1693   -0.2866    0.0854 C   0  0  1  0  0  0  0  0  0  0  0  0
    0.4682   -0.0632   -0.9402 H   0  0  0  0  0  0  0  0  0  0  0  0
    0.0085    1.0482    0.8448 C   0  0  0  0  0  0  0  0  0  0  0  0
   -0.4581    0.8476    1.8109 H   0  0  0  0  0  0  0  0  0  0  0  0
    0.9993    1.4669    1.0341 H   0  0  0  0  0  0  0  0  0  0  0  0
   -0.8536    2.0940    0.1207 C   0  0  0  0  0  0  0  0  0  0  0  0
   -0.8905    2.0763   -1.1323 O   0  5  0  0  0  0  0  0  0  0  0  0
   -1.4591    2.9226    0.8342 O   0  0  0  0  0  0  0  0  0  0  0  0
    1.2514   -1.1921    0.7180 C   0  0  0  0  0  0  0  0  0  0  0  0
    1.6444   -0.9860    1.8724 O   0  0  0  0  0  0  0  0  0  0  0  0
    1.7271   -2.2028   -0.0162 N   0  0  0  0  0  0  0  0  0  0  0  0
    1.4054   -2.2379   -0.9854 H   0  0  0  0  0  0  0  0  0  0  0  0
    2.7575   -3.1424    0.4129 C   0  0  0  0  0  0  0  0  0  0  0  0
    2.5519   -3.4739    1.4316 H   0  0  0  0  0  0  0  0  0  0  0  0
    2.7703   -4.0019   -0.2568 H   0  0  0  0  0  0  0  0  0  0  0  0
    3.7284   -2.6473    0.3874 H   0  0  0  0  0  0  0  0  0  0  0  0
  5  6  2  0  0  0  0
  5  7  1  0  0  0  0
  2  3  1  0  0  0  0
  2  4  1  0  0  0  0
  2  5  1  0  0  0  0
  1  2  1  0  0  0  0
 17 18  2  0  0  0  0
 17 19  1  0  0  0  0
 14 15  1  0  0  0  0
 14 16  2  0  0  0  0
 11 12  1  0  0  0  0
 11 13  1  0  0  0  0
 11 14  1  0  0  0  0
  9 10  1  0  0  0  0
  9 11  1  0  0  0  0
  9 17  1  0  0  0  0
  7  8  1  0  0  0  0
  7  9  1  0  0  0  0
 21 22  1  0  0  0  0
 21 23  1  0  0  0  0
 21 24  1  0  0  0  0
 19 20  1  0  0  0  0
 19 21  1  0  0  0  0
M  CHG  1  15  -1
M  END
$$$$
default_name
  -OEChem-01062215323D

 24 23  0     1  0  0  0  0  0999 V2000
   -2.8347   -3.7166    0.8034 H   0  0  0  0  0  0  0  0  0  0  0  0
   -2.7728   -2.7096    0.3954 C   0  0  0  0  0  0  0  0  0  0  0  0
   -3.4267   -2.0426    0.9524 H   0  0  0  0  0  0  0  0  0  0  0  0
   -3.0538   -2.7186   -0.6556 H   0  0  0  0  0  0  0  0  0  0  0  0
   -1.3498   -2.2206    0.5184 C   0  0  0  0  0  0  0  0  0  0  0  0
   -0.4997   -2.9426    1.0194 O   0  0  0  0  0  0  0  0  0  0  0  0
   -1.1198   -0.9926    0.0674 N   0  0  0  0  0  0  0  0  0  0  0  0
   -1.8978   -0.4486   -0.2716 H   0  0  0  0  0  0  0  0  0  0  0  0
    0.1693   -0.2866    0.0854 C   0  0  1  0  0  0  0  0  0  0  0  0
    0.4682   -0.0632   -0.9402 H   0  0  0  0  0  0  0  0  0  0  0  0
    0.0085    1.0482    0.8448 C   0  0  0  0  0  0  0  0  0  0  0  0
   -0.4581    0.8476    1.8109 H   0  0  0  0  0  0  0  0  0  0  0  0
    0.9993    1.4669    1.0341 H   0  0  0  0  0  0  0  0  0  0  0  0
   -0.8536    2.0940    0.1207 C   0  0  0  0  0  0  0  0  0  0  0  0
   -0.8905    2.0763   -1.1323 O   0  5  0  0  0  0  0  0  0  0  0  0
   -1.4591    2.9226    0.8342 O   0  0  0  0  0  0  0  0  0  0  0  0
    1.2514   -1.1921    0.7180 C   0  0  0  0  0  0  0  0  0  0  0  0
    1.4492   -1.1730    1.9387 O   0  0  0  0  0  0  0  0  0  0  0  0
    1.9441   -1.9974   -0.0934 N   0  0  0  0  0  0  0  0  0  0  0  0
    1.7696   -1.8779   -1.0931 H   0  0  0  0  0  0  0  0  0  0  0  0
    3.0083   -2.9026    0.3272 C   0  0  0  0  0  0  0  0  0  0  0  0
    2.7016   -3.4383    1.2265 H   0  0  0  0  0  0  0  0  0  0  0  0
    3.2188   -3.6149   -0.4701 H   0  0  0  0  0  0  0  0  0  0  0  0
    3.9066   -2.3245    0.5447 H   0  0  0  0  0  0  0  0  0  0  0  0
  5  6  2  0  0  0  0
  5  7  1  0  0  0  0
  2  3  1  0  0  0  0
  2  4  1  0  0  0  0
  2  5  1  0  0  0  0
  1  2  1  0  0  0  0
 17 18  2  0  0  0  0
 17 19  1  0  0  0  0
 14 15  1  0  0  0  0
 14 16  2  0  0  0  0
 11 12  1  0  0  0  0
 11 13  1  0  0  0  0
 11 14  1  0  0  0  0
  9 10  1  0  0  0  0
  9 11  1  0  0  0  0
  9 17  1  0  0  0  0
  7  8  1  0  0  0  0
  7  9  1  0  0  0  0
 21 22  1  0  0  0  0
 21 23  1  0  0  0  0
 21 24  1  0  0  0  0
 19 20  1  0  0  0  0
 19 21  1  0  0  0  0
M  CHG  1  15  -1
M  END
$$$$
default_name
  -OEChem-01062215323D

 24 23  0     1  0  0  0  0  0999 V2000
   -2.8347   -3.7166    0.8034 H   0  0  0  0  0  0  0  0  0  0  0  0
   -2.7728   -2.7096    0.3954 C   0  0  0  0  0  0  0  0  0  0  0  0
   -3.4267   -2.0426    0.9524 H   0  0  0  0  0  0  0  0  0  0  0  0
   -3.0538   -2.7186   -0.6556 H   0  0  0  0  0  0  0  0  0  0  0  0
   -1.3498   -2.2206    0.5184 C   0  0  0  0  0  0  0  0  0  0  0  0
   -0.4997   -2.9426    1.0194 O   0  0  0  0  0  0  0  0  0  0  0  0
   -1.1198   -0.9926    0.0674 N   0  0  0  0  0  0  0  0  0  0  0  0
   -1.8978   -0.4486   -0.2716 H   0  0  0  0  0  0  0  0  0  0  0  0
    0.1693   -0.2866    0.0854 C   0  0  1  0  0  0  0  0  0  0  0  0
    0.4682   -0.0632   -0.9402 H   0  0  0  0  0  0  0  0  0  0  0  0
    0.0085    1.0482    0.8448 C   0  0  0  0  0  0  0  0  0  0  0  0
   -0.4581    0.8476    1.8109 H   0  0  0  0  0  0  0  0  0  0  0  0
    0.9993    1.4669    1.0341 H   0  0  0  0  0  0  0  0  0  0  0  0
   -0.8536    2.0940    0.1207 C   0  0  0  0  0  0  0  0  0  0  0  0
   -0.8905    2.0763   -1.1323 O   0  5  0  0  0  0  0  0  0  0  0  0
   -1.4591    2.9226    0.8342 O   0  0  0  0  0  0  0  0  0  0  0  0
    1.2514   -1.1921    0.7180 C   0  0  0  0  0  0  0  0  0  0  0  0
    1.2704   -1.3863    1.9393 O   0  0  0  0  0  0  0  0  0  0  0  0
    2.1436   -1.7621   -0.0980 N   0  0  0  0  0  0  0  0  0  0  0  0
    2.0996   -1.4721   -1.0767 H   0  0  0  0  0  0  0  0  0  0  0  0
    3.2382   -2.6288    0.3258 C   0  0  0  0  0  0  0  0  0  0  0  0
    2.8735   -3.3510    1.0575 H   0  0  0  0  0  0  0  0  0  0  0  0
    3.6435   -3.1549   -0.5381 H   0  0  0  0  0  0  0  0  0  0  0  0
    4.0207   -2.0222    0.7820 H   0  0  0  0  0  0  0  0  0  0  0  0
  5  6  2  0  0  0  0
  5  7  1  0  0  0  0
  2  3  1  0  0  0  0
  2  4  1  0  0  0  0
  2  5  1  0  0  0  0
  1  2  1  0  0  0  0
 17 18  2  0  0  0  0
 17 19  1  0  0  0  0
 14 15  1  0  0  0  0
 14 16  2  0  0  0  0
 11 12  1  0  0  0  0
 11 13  1  0  0  0  0
 11 14  1  0  0  0  0
  9 10  1  0  0  0  0
  9 11  1  0  0  0  0
  9 17  1  0  0  0  0
  7  8  1  0  0  0  0
  7  9  1  0  0  0  0
 21 22  1  0  0  0  0
 21 23  1  0  0  0  0
 21 24  1  0  0  0  0
 19 20  1  0  0  0  0
 19 21  1  0  0  0  0
M  CHG  1  15  -1
M  END
$$$$
default_name
  -OEChem-01062215323D

 24 23  0     1  0  0  0  0  0999 V2000
   -2.8347   -3.7166    0.8034 H   0  0  0  0  0  0  0  0  0  0  0  0
   -2.7728   -2.7096    0.3954 C   0  0  0  0  0  0  0  0  0  0  0  0
   -3.4267   -2.0426    0.9524 H   0  0  0  0  0  0  0  0  0  0  0  0
   -3.0538   -2.7186   -0.6556 H   0  0  0  0  0  0  0  0  0  0  0  0
   -1.3498   -2.2206    0.5184 C   0  0  0  0  0  0  0  0  0  0  0  0
   -0.4997   -2.9426    1.0194 O   0  0  0  0  0  0  0  0  0  0  0  0
   -1.1198   -0.9926    0.0674 N   0  0  0  0  0  0  0  0  0  0  0  0
   -1.8978   -0.4486   -0.2716 H   0  0  0  0  0  0  0  0  0  0  0  0
    0.1693   -0.2866    0.0854 C   0  0  1  0  0  0  0  0  0  0  0  0
    0.4682   -0.0632   -0.9402 H   0  0  0  0  0  0  0  0  0  0  0  0
    0.0085    1.0482    0.8448 C   0  0  0  0  0  0  0  0  0  0  0  0
   -0.4581    0.8476    1.8109 H   0  0  0  0  0  0  0  0  0  0  0  0
    0.9993    1.4669    1.0341 H   0  0  0  0  0  0  0  0  0  0  0  0
   -0.8536    2.0940    0.1207 C   0  0  0  0  0  0  0  0  0  0  0  0
   -0.8905    2.0763   -1.1323 O   0  5  0  0  0  0  0  0  0  0  0  0
   -1.4591    2.9226    0.8342 O   0  0  0  0  0  0  0  0  0  0  0  0
    1.2514   -1.1921    0.7180 C   0  0  0  0  0  0  0  0  0  0  0  0
    1.1202   -1.6114    1.8741 O   0  0  0  0  0  0  0  0  0  0  0  0
    2.3121   -1.5129   -0.0295 N   0  0  0  0  0  0  0  0  0  0  0  0
    2.3729   -1.0482   -0.9374 H   0  0  0  0  0  0  0  0  0  0  0  0
    3.4314   -2.3398    0.4090 C   0  0  0  0  0  0  0  0  0  0  0  0
    3.0559   -3.2178    0.9361 H   0  0  0  0  0  0  0  0  0  0  0  0
    4.0152   -2.6533   -0.4561 H   0  0  0  0  0  0  0  0  0  0  0  0
    4.0630   -1.7612    1.0834 H   0  0  0  0  0  0  0  0  0  0  0  0
  5  6  2  0  0  0  0
  5  7  1  0  0  0  0
  2  3  1  0  0  0  0
  2  4  1  0  0  0  0
  2  5  1  0  0  0  0
  1  2  1  0  0  0  0
 17 18  2  0  0  0  0
 17 19  1  0  0  0  0
 14 15  1  0  0  0  0
 14 16  2  0  0  0  0
 11 12  1  0  0  0  0
 11 13  1  0  0  0  0
 11 14  1  0  0  0  0
  9 10  1  0  0  0  0
  9 11  1  0  0  0  0
  9 17  1  0  0  0  0
  7  8  1  0  0  0  0
  7  9  1  0  0  0  0
 21 22  1  0  0  0  0
 21 23  1  0  0  0  0
 21 24  1  0  0  0  0
 19 20  1  0  0  0  0
 19 21  1  0  0  0  0
M  CHG  1  15  -1
M  END
$$$$
default_name
  -OEChem-01062215323D

 24 23  0     1  0  0  0  0  0999 V2000
   -2.8347   -3.7166    0.8034 H   0  0  0  0  0  0  0  0  0  0  0  0
   -2.7728   -2.7096    0.3954 C   0  0  0  0  0  0  0  0  0  0  0  0
   -3.4267   -2.0426    0.9524 H   0  0  0  0  0  0  0  0  0  0  0  0
   -3.0538   -2.7186   -0.6556 H   0  0  0  0  0  0  0  0  0  0  0  0
   -1.3498   -2.2206    0.5184 C   0  0  0  0  0  0  0  0  0  0  0  0
   -0.4997   -2.9426    1.0194 O   0  0  0  0  0  0  0  0  0  0  0  0
   -1.1198   -0.9926    0.0674 N   0  0  0  0  0  0  0  0  0  0  0  0
   -1.8978   -0.4486   -0.2716 H   0  0  0  0  0  0  0  0  0  0  0  0
    0.1693   -0.2866    0.0854 C   0  0  1  0  0  0  0  0  0  0  0  0
    0.4682   -0.0632   -0.9402 H   0  0  0  0  0  0  0  0  0  0  0  0
    0.0085    1.0482    0.8448 C   0  0  0  0  0  0  0  0  0  0  0  0
   -0.4581    0.8476    1.8109 H   0  0  0  0  0  0  0  0  0  0  0  0
    0.9993    1.4669    1.0341 H   0  0  0  0  0  0  0  0  0  0  0  0
   -0.8536    2.0940    0.1207 C   0  0  0  0  0  0  0  0  0  0  0  0
   -0.8905    2.0763   -1.1323 O   0  5  0  0  0  0  0  0  0  0  0  0
   -1.4591    2.9226    0.8342 O   0  0  0  0  0  0  0  0  0  0  0  0
    1.2514   -1.1921    0.7180 C   0  0  0  0  0  0  0  0  0  0  0  0
    1.0088   -1.8329    1.7476 O   0  0  0  0  0  0  0  0  0  0  0  0
    2.4381   -1.2667    0.1074 N   0  0  0  0  0  0  0  0  0  0  0  0
    2.5709   -0.6349   -0.6846 H   0  0  0  0  0  0  0  0  0  0  0  0
    3.5749   -2.0552    0.5709 C   0  0  0  0  0  0  0  0  0  0  0  0
    3.2364   -3.0479    0.8706 H   0  0  0  0  0  0  0  0  0  0  0  0
    4.3088   -2.1443   -0.2297 H   0  0  0  0  0  0  0  0  0  0  0  0
    4.0305   -1.5592    1.4281 H   0  0  0  0  0  0  0  0  0  0  0  0
  5  6  2  0  0  0  0
  5  7  1  0  0  0  0
  2  3  1  0  0  0  0
  2  4  1  0  0  0  0
  2  5  1  0  0  0  0
  1  2  1  0  0  0  0
 17 18  2  0  0  0  0
 17 19  1  0  0  0  0
 14 15  1  0  0  0  0
 14 16  2  0  0  0  0
 11 12  1  0  0  0  0
 11 13  1  0  0  0  0
 11 14  1  0  0  0  0
  9 10  1  0  0  0  0
  9 11  1  0  0  0  0
  9 17  1  0  0  0  0
  7  8  1  0  0  0  0
  7  9  1  0  0  0  0
 21 22  1  0  0  0  0
 21 23  1  0  0  0  0
 21 24  1  0  0  0  0
 19 20  1  0  0  0  0
 19 21  1  0  0  0  0
M  CHG  1  15  -1
M  END
$$$$
default_name
  -OEChem-01062215323D

 24 23  0     1  0  0  0  0  0999 V2000
   -2.8347   -3.7166    0.8034 H   0  0  0  0  0  0  0  0  0  0  0  0
   -2.7728   -2.7096    0.3954 C   0  0  0  0  0  0  0  0  0  0  0  0
   -3.4267   -2.0426    0.9524 H   0  0  0  0  0  0  0  0  0  0  0  0
   -3.0538   -2.7186   -0.6556 H   0  0  0  0  0  0  0  0  0  0  0  0
   -1.3498   -2.2206    0.5184 C   0  0  0  0  0  0  0  0  0  0  0  0
   -0.4997   -2.9426    1.0194 O   0  0  0  0  0  0  0  0  0  0  0  0
   -1.1198   -0.9926    0.0674 N   0  0  0  0  0  0  0  0  0  0  0  0
   -1.8978   -0.4486   -0.2716 H   0  0  0  0  0  0  0  0  0  0  0  0
    0.1693   -0.2866    0.0854 C   0  0  1  0  0  0  0  0  0  0  0  0
    0.4682   -0.0632   -0.9402 H   0  0  0  0  0  0  0  0  0  0  0  0
    0.0085    1.0482    0.8448 C   0  0  0  0  0  0  0  0  0  0  0  0
   -0.4581    0.8476    1.8109 H   0  0  0  0  0  0  0  0  0  0  0  0
    0.9993    1.4669    1.0341 H   0  0  0  0  0  0  0  0  0  0  0  0
   -0.8536    2.0940    0.1207 C   0  0  0  0  0  0  0  0  0  0  0  0
   -0.8905    2.0763   -1.1323 O   0  5  0  0  0  0  0  0  0  0  0  0
   -1.4591    2.9226    0.8342 O   0  0  0  0  0  0  0  0  0  0  0  0
    1.2514   -1.1921    0.7180 C   0  0  0  0  0  0  0  0  0  0  0  0
    0.9438   -2.0358    1.5684 O   0  0  0  0  0  0  0  0  0  0  0  0
    2.5130   -1.0404    0.3032 N   0  0  0  0  0  0  0  0  0  0  0  0
    2.6801   -0.2606   -0.3356 H   0  0  0  0  0  0  0  0  0  0  0  0
    3.6588   -1.7944    0.8006 C   0  0  0  0  0  0  0  0  0  0  0  0
    3.4026   -2.8527    0.8655 H   0  0  0  0  0  0  0  0  0  0  0  0
    4.5041   -1.6625    0.1257 H   0  0  0  0  0  0  0  0  0  0  0  0
    3.9255   -1.4299    1.7928 H   0  0  0  0  0  0  0  0  0  0  0  0
  5  6  2  0  0  0  0
  5  7  1  0  0  0  0
  2  3  1  0  0  0  0
  2  4  1  0  0  0  0
  2  5  1  0  0  0  0
  1  2  1  0  0  0  0
 17 18  2  0  0  0  0
 17 19  1  0  0  0  0
 14 15  1  0  0  0  0
 14 16  2  0  0  0  0
 11 12  1  0  0  0  0
 11 13  1  0  0  0  0
 11 14  1  0  0  0  0
  9 10  1  0  0  0  0
  9 11  1  0  0  0  0
  9 17  1  0  0  0  0
  7  8  1  0  0  0  0
  7  9  1  0  0  0  0
 21 22  1  0  0  0  0
 21 23  1  0  0  0  0
 21 24  1  0  0  0  0
 19 20  1  0  0  0  0
 19 21  1  0  0  0  0
M  CHG  1  15  -1
M  END
$$$$
default_name
  -OEChem-01062215323D

 24 23  0     1  0  0  0  0  0999 V2000
   -2.8347   -3.7166    0.8034 H   0  0  0  0  0  0  0  0  0  0  0  0
   -2.7728   -2.7096    0.3954 C   0  0  0  0  0  0  0  0  0  0  0  0
   -3.4267   -2.0426    0.9524 H   0  0  0  0  0  0  0  0  0  0  0  0
   -3.0538   -2.7186   -0.6556 H   0  0  0  0  0  0  0  0  0  0  0  0
   -1.3498   -2.2206    0.5184 C   0  0  0  0  0  0  0  0  0  0  0  0
   -0.4997   -2.9426    1.0194 O   0  0  0  0  0  0  0  0  0  0  0  0
   -1.1198   -0.9926    0.0674 N   0  0  0  0  0  0  0  0  0  0  0  0
   -1.8978   -0.4486   -0.2716 H   0  0  0  0  0  0  0  0  0  0  0  0
    0.1693   -0.2866    0.0854 C   0  0  1  0  0  0  0  0  0  0  0  0
    0.4682   -0.0632   -0.9402 H   0  0  0  0  0  0  0  0  0  0  0  0
    0.0085    1.0482    0.8448 C   0  0  0  0  0  0  0  0  0  0  0  0
   -0.4581    0.8476    1.8109 H   0  0  0  0  0  0  0  0  0  0  0  0
    0.9993    1.4669    1.0341 H   0  0  0  0  0  0  0  0  0  0  0  0
   -0.8536    2.0940    0.1207 C   0  0  0  0  0  0  0  0  0  0  0  0
   -0.8905    2.0763   -1.1323 O   0  5  0  0  0  0  0  0  0  0  0  0
   -1.4591    2.9226    0.8342 O   0  0  0  0  0  0  0  0  0  0  0  0
    1.2514   -1.1921    0.7180 C   0  0  0  0  0  0  0  0  0  0  0  0
    0.9297   -2.2061    1.3487 O   0  0  0  0  0  0  0  0  0  0  0  0
    2.5317   -0.8493    0.5447 N   0  0  0  0  0  0  0  0  0  0  0  0
    2.6930    0.0493    0.0858 H   0  0  0  0  0  0  0  0  0  0  0  0
    3.6774   -1.5753    1.0824 C   0  0  0  0  0  0  0  0  0  0  0  0
    3.5433   -2.6457    0.9211 H   0  0  0  0  0  0  0  0  0  0  0  0
    4.5879   -1.2409    0.5859 H   0  0  0  0  0  0  0  0  0  0  0  0
    3.7551   -1.3822    2.1525 H   0  0  0  0  0  0  0  0  0  0  0  0
  5  6  2  0  0  0  0
  5  7  1  0  0  0  0
  2  3  1  0  0  0  0
  2  4  1  0  0  0  0
  2  5  1  0  0  0  0
  1  2  1  0  0  0  0
 17 18  2  0  0  0  0
 17 19  1  0  0  0  0
 14 15  1  0  0  0  0
 14 16  2  0  0  0  0
 11 12  1  0  0  0  0
 11 13  1  0  0  0  0
 11 14  1  0  0  0  0
  9 10  1  0  0  0  0
  9 11  1  0  0  0  0
  9 17  1  0  0  0  0
  7  8  1  0  0  0  0
  7  9  1  0  0  0  0
 21 22  1  0  0  0  0
 21 23  1  0  0  0  0
 21 24  1  0  0  0  0
 19 20  1  0  0  0  0
 19 21  1  0  0  0  0
M  CHG  1  15  -1
M  END
$$$$
default_name
  -OEChem-01062215323D

 24 23  0     1  0  0  0  0  0999 V2000
   -2.8347   -3.7166    0.8034 H   0  0  0  0  0  0  0  0  0  0  0  0
   -2.7728   -2.7096    0.3954 C   0  0  0  0  0  0  0  0  0  0  0  0
   -3.4267   -2.0426    0.9524 H   0  0  0  0  0  0  0  0  0  0  0  0
   -3.0538   -2.7186   -0.6556 H   0  0  0  0  0  0  0  0  0  0  0  0
   -1.3498   -2.2206    0.5184 C   0  0  0  0  0  0  0  0  0  0  0  0
   -0.4997   -2.9426    1.0194 O   0  0  0  0  0  0  0  0  0  0  0  0
   -1.1198   -0.9926    0.0674 N   0  0  0  0  0  0  0  0  0  0  0  0
   -1.8978   -0.4486   -0.2716 H   0  0  0  0  0  0  0  0  0  0  0  0
    0.1693   -0.2866    0.0854 C   0  0  1  0  0  0  0  0  0  0  0  0
    0.3405    0.1688   -0.8916 H   0  0  0  0  0  0  0  0  0  0  0  0
    0.1194    0.8382    1.1421 C   0  0  0  0  0  0  0  0  0  0  0  0
   -0.2253    0.4156    2.0875 H   0  0  0  0  0  0  0  0  0  0  0  0
    1.1307    1.2203    1.2973 H   0  0  0  0  0  0  0  0  0  0  0  0
   -0.8145    2.0057    0.7871 C   0  0  0  0  0  0  0  0  0  0  0  0
   -1.0075    2.2719   -0.4227 O   0  5  0  0  0  0  0  0  0  0  0  0
   -1.3170    2.6401    1.7396 O   0  0  0  0  0  0  0  0  0  0  0  0
    1.3117   -1.2929    0.3566 C   0  0  0  0  0  0  0  0  0  0  0  0
    1.0651   -2.4957    0.5052 O   0  0  0  0  0  0  0  0  0  0  0  0
    2.5610   -0.8203    0.4072 N   0  0  0  0  0  0  0  0  0  0  0  0
    2.6539    0.1961    0.3601 H   0  0  0  0  0  0  0  0  0  0  0  0
    3.7532   -1.6200    0.6677 C   0  0  0  0  0  0  0  0  0  0  0  0
    3.7157   -2.5385    0.0806 H   0  0  0  0  0  0  0  0  0  0  0  0
    4.6420   -1.0494    0.3994 H   0  0  0  0  0  0  0  0  0  0  0  0
    3.7908   -1.8744    1.7271 H   0  0  0  0  0  0  0  0  0  0  0  0
  5  6  2  0  0  0  0
  5  7  1  0  0  0  0
  2  3  1  0  0  0  0
  2  4  1  0  0  0  0
  2  5  1  0  0  0  0
  1  2  1  0  0  0  0
 17 18  2  0  0  0  0
 17 19  1  0  0  0  0
 14 15  1  0  0  0  0
 14 16  2  0  0  0  0
 11 12  1  0  0  0  0
 11 13  1  0  0  0  0
 11 14  1  0  0  0  0
  9 10  1  0  0  0  0
  9 11  1  0  0  0  0
  9 17  1  0  0  0  0
  7  8  1  0  0  0  0
  7  9  1  0  0  0  0
 21 22  1  0  0  0  0
 21 23  1  0  0  0  0
 21 24  1  0  0  0  0
 19 20  1  0  0  0  0
 19 21  1  0  0  0  0
M  CHG  1  15  -1
M  END
$$$$
default_name
  -OEChem-01062215323D

 24 23  0     1  0  0  0  0  0999 V2000
   -2.8347   -3.7166    0.8034 H   0  0  0  0  0  0  0  0  0  0  0  0
   -2.7728   -2.7096    0.3954 C   0  0  0  0  0  0  0  0  0  0  0  0
   -3.4267   -2.0426    0.9524 H   0  0  0  0  0  0  0  0  0  0  0  0
   -3.0538   -2.7186   -0.6556 H   0  0  0  0  0  0  0  0  0  0  0  0
   -1.3498   -2.2206    0.5184 C   0  0  0  0  0  0  0  0  0  0  0  0
   -0.4997   -2.9426    1.0194 O   0  0  0  0  0  0  0  0  0  0  0  0
   -1.1198   -0.9926    0.0674 N   0  0  0  0  0  0  0  0  0  0  0  0
   -1.8978   -0.4486   -0.2716 H   0  0  0  0  0  0  0  0  0  0  0  0
    0.1693   -0.2866    0.0854 C   0  0  1  0  0  0  0  0  0  0  0  0
    0.3405    0.1688   -0.8916 H   0  0  0  0  0  0  0  0  0  0  0  0
    0.1194    0.8382    1.1421 C   0  0  0  0  0  0  0  0  0  0  0  0
   -0.2253    0.4156    2.0875 H   0  0  0  0  0  0  0  0  0  0  0  0
    1.1307    1.2203    1.2973 H   0  0  0  0  0  0  0  0  0  0  0  0
   -0.8145    2.0057    0.7871 C   0  0  0  0  0  0  0  0  0  0  0  0
   -1.0075    2.2719   -0.4227 O   0  5  0  0  0  0  0  0  0  0  0  0
   -1.3170    2.6401    1.7396 O   0  0  0  0  0  0  0  0  0  0  0  0
    1.3117   -1.2929    0.3566 C   0  0  0  0  0  0  0  0  0  0  0  0
    1.1189   -2.5082    0.2323 O   0  0  0  0  0  0  0  0  0  0  0  0
    2.5042   -0.8032    0.7100 N   0  0  0  0  0  0  0  0  0  0  0  0
    2.5406    0.2052    0.8709 H   0  0  0  0  0  0  0  0  0  0  0  0
    3.6846   -1.6034    1.0181 C   0  0  0  0  0  0  0  0  0  0  0  0
    3.8007   -2.3905    0.2719 H   0  0  0  0  0  0  0  0  0  0  0  0
    4.5684   -0.9659    1.0192 H   0  0  0  0  0  0  0  0  0  0  0  0
    3.5635   -2.0585    2.0014 H   0  0  0  0  0  0  0  0  0  0  0  0
  5  6  2  0  0  0  0
  5  7  1  0  0  0  0
  2  3  1  0  0  0  0
  2  4  1  0  0  0  0
  2  5  1  0  0  0  0
  1  2  1  0  0  0  0
 17 18  2  0  0  0  0
 17 19  1  0  0  0  0
 14 15  1  0  0  0  0
 14 16  2  0  0  0  0
 11 12  1  0  0  0  0
 11 13  1  0  0  0  0
 11 14  1  0  0  0  0
  9 10  1  0  0  0  0
  9 11  1  0  0  0  0
  9 17  1  0  0  0  0
  7  8  1  0  0  0  0
  7  9  1  0  0  0  0
 21 22  1  0  0  0  0
 21 23  1  0  0  0  0
 21 24  1  0  0  0  0
 19 20  1  0  0  0  0
 19 21  1  0  0  0  0
M  CHG  1  15  -1
M  END
$$$$
default_name
  -OEChem-01062215323D

 24 23  0     1  0  0  0  0  0999 V2000
   -2.8347   -3.7166    0.8034 H   0  0  0  0  0  0  0  0  0  0  0  0
   -2.7728   -2.7096    0.3954 C   0  0  0  0  0  0  0  0  0  0  0  0
   -3.4267   -2.0426    0.9524 H   0  0  0  0  0  0  0  0  0  0  0  0
   -3.0538   -2.7186   -0.6556 H   0  0  0  0  0  0  0  0  0  0  0  0
   -1.3498   -2.2206    0.5184 C   0  0  0  0  0  0  0  0  0  0  0  0
   -0.4997   -2.9426    1.0194 O   0  0  0  0  0  0  0  0  0  0  0  0
   -1.1198   -0.9926    0.0674 N   0  0  0  0  0  0  0  0  0  0  0  0
   -1.8978   -0.4486   -0.2716 H   0  0  0  0  0  0  0  0  0  0  0  0
    0.1693   -0.2866    0.0854 C   0  0  1  0  0  0  0  0  0  0  0  0
    0.3405    0.1688   -0.8916 H   0  0  0  0  0  0  0  0  0  0  0  0
    0.1194    0.8382    1.1421 C   0  0  0  0  0  0  0  0  0  0  0  0
   -0.2253    0.4156    2.0875 H   0  0  0  0  0  0  0  0  0  0  0  0
    1.1307    1.2203    1.2973 H   0  0  0  0  0  0  0  0  0  0  0  0
   -0.8145    2.0057    0.7871 C   0  0  0  0  0  0  0  0  0  0  0  0
   -1.0075    2.2719   -0.4227 O   0  5  0  0  0  0  0  0  0  0  0  0
   -1.3170    2.6401    1.7396 O   0  0  0  0  0  0  0  0  0  0  0  0
    1.3117   -1.2929    0.3566 C   0  0  0  0  0  0  0  0  0  0  0  0
    1.2173   -2.4656   -0.0245 O   0  0  0  0  0  0  0  0  0  0  0  0
    2.3975   -0.8472    0.9961 N   0  0  0  0  0  0  0  0  0  0  0  0
    2.3447    0.1111    1.3469 H   0  0  0  0  0  0  0  0  0  0  0  0
    3.5586   -1.6575    1.3482 C   0  0  0  0  0  0  0  0  0  0  0  0
    3.8439   -2.2802    0.4993 H   0  0  0  0  0  0  0  0  0  0  0  0
    4.3891   -1.0071    1.6214 H   0  0  0  0  0  0  0  0  0  0  0  0
    3.3062   -2.2990    2.1929 H   0  0  0  0  0  0  0  0  0  0  0  0
  5  6  2  0  0  0  0
  5  7  1  0  0  0  0
  2  3  1  0  0  0  0
  2  4  1  0  0  0  0
  2  5  1  0  0  0  0
  1  2  1  0  0  0  0
 17 18  2  0  0  0  0
 17 19  1  0  0  0  0
 14 15  1  0  0  0  0
 14 16  2  0  0  0  0
 11 12  1  0  0  0  0
 11 13  1  0  0  0  0
 11 14  1  0  0  0  0
  9 10  1  0  0  0  0
  9 11  1  0  0  0  0
  9 17  1  0  0  0  0
  7  8  1  0  0  0  0
  7  9  1  0  0  0  0
 21 22  1  0  0  0  0
 21 23  1  0  0  0  0
 21 24  1  0  0  0  0
 19 20  1  0  0  0  0
 19 21  1  0  0  0  0
M  CHG  1  15  -1
M  END
$$$$
default_name
  -OEChem-01062215323D

 24 23  0     1  0  0  0  0  0999 V2000
   -2.8347   -3.7166    0.8034 H   0  0  0  0  0  0  0  0  0  0  0  0
   -2.7728   -2.7096    0.3954 C   0  0  0  0  0  0  0  0  0  0  0  0
   -3.4267   -2.0426    0.9524 H   0  0  0  0  0  0  0  0  0  0  0  0
   -3.0538   -2.7186   -0.6556 H   0  0  0  0  0  0  0  0  0  0  0  0
   -1.3498   -2.2206    0.5184 C   0  0  0  0  0  0  0  0  0  0  0  0
   -0.4997   -2.9426    1.0194 O   0  0  0  0  0  0  0  0  0  0  0  0
   -1.1198   -0.9926    0.0674 N   0  0  0  0  0  0  0  0  0  0  0  0
   -1.8978   -0.4486   -0.2716 H   0  0  0  0  0  0  0  0  0  0  0  0
    0.1693   -0.2866    0.0854 C   0  0  1  0  0  0  0  0  0  0  0  0
    0.3405    0.1688   -0.8916 H   0  0  0  0  0  0  0  0  0  0  0  0
    0.1194    0.8382    1.1421 C   0  0  0  0  0  0  0  0  0  0  0  0
   -0.2253    0.4156    2.0875 H   0  0  0  0  0  0  0  0  0  0  0  0
    1.1307    1.2203    1.2973 H   0  0  0  0  0  0  0  0  0  0  0  0
   -0.8145    2.0057    0.7871 C   0  0  0  0  0  0  0  0  0  0  0  0
   -1.0075    2.2719   -0.4227 O   0  5  0  0  0  0  0  0  0  0  0  0
   -1.3170    2.6401    1.7396 O   0  0  0  0  0  0  0  0  0  0  0  0
    1.3117   -1.2929    0.3566 C   0  0  0  0  0  0  0  0  0  0  0  0
    1.3537   -2.3710   -0.2479 O   0  0  0  0  0  0  0  0  0  0  0  0
    2.2483   -0.9492    1.2462 N   0  0  0  0  0  0  0  0  0  0  0  0
    2.0796   -0.0798    1.7558 H   0  0  0  0  0  0  0  0  0  0  0  0
    3.3837   -1.7786    1.6355 C   0  0  0  0  0  0  0  0  0  0  0  0
    3.8423   -2.2151    0.7473 H   0  0  0  0  0  0  0  0  0  0  0  0
    4.1164   -1.1702    2.1651 H   0  0  0  0  0  0  0  0  0  0  0  0
    3.0364   -2.5796    2.2885 H   0  0  0  0  0  0  0  0  0  0  0  0
  5  6  2  0  0  0  0
  5  7  1  0  0  0  0
  2  3  1  0  0  0  0
  2  4  1  0  0  0  0
  2  5  1  0  0  0  0
  1  2  1  0  0  0  0
 17 18  2  0  0  0  0
 17 19  1  0  0  0  0
 14 15  1  0  0  0  0
 14 16  2  0  0  0  0
 11 12  1  0  0  0  0
 11 13  1  0  0  0  0
 11 14  1  0  0  0  0
  9 10  1  0  0  0  0
  9 11  1  0  0  0  0
  9 17  1  0  0  0  0
  7  8  1  0  0  0  0
  7  9  1  0  0  0  0
 21 22  1  0  0  0  0
 21 23  1  0  0  0  0
 21 24  1  0  0  0  0
 19 20  1  0  0  0  0
 19 21  1  0  0  0  0
M  CHG  1  15  -1
M  END
$$$$
default_name
  -OEChem-01062215323D

 24 23  0     1  0  0  0  0  0999 V2000
   -2.8347   -3.7166    0.8034 H   0  0  0  0  0  0  0  0  0  0  0  0
   -2.7728   -2.7096    0.3954 C   0  0  0  0  0  0  0  0  0  0  0  0
   -3.4267   -2.0426    0.9524 H   0  0  0  0  0  0  0  0  0  0  0  0
   -3.0538   -2.7186   -0.6556 H   0  0  0  0  0  0  0  0  0  0  0  0
   -1.3498   -2.2206    0.5184 C   0  0  0  0  0  0  0  0  0  0  0  0
   -0.4997   -2.9426    1.0194 O   0  0  0  0  0  0  0  0  0  0  0  0
   -1.1198   -0.9926    0.0674 N   0  0  0  0  0  0  0  0  0  0  0  0
   -1.8978   -0.4486   -0.2716 H   0  0  0  0  0  0  0  0  0  0  0  0
    0.1693   -0.2866    0.0854 C   0  0  1  0  0  0  0  0  0  0  0  0
    0.3405    0.1688   -0.8916 H   0  0  0  0  0  0  0  0  0  0  0  0
    0.1194    0.8382    1.1421 C   0  0  0  0  0  0  0  0  0  0  0  0
   -0.2253    0.4156    2.0875 H   0  0  0  0  0  0  0  0  0  0  0  0
    1.1307    1.2203    1.2973 H   0  0  0  0  0  0  0  0  0  0  0  0
   -0.8145    2.0057    0.7871 C   0  0  0  0  0  0  0  0  0  0  0  0
   -1.0075    2.2719   -0.4227 O   0  5  0  0  0  0  0  0  0  0  0  0
   -1.3170    2.6401    1.7396 O   0  0  0  0  0  0  0  0  0  0  0  0
    1.3117   -1.2929    0.3566 C   0  0  0  0  0  0  0  0  0  0  0  0
    1.5188   -2.2306   -0.4226 O   0  0  0  0  0  0  0  0  0  0  0  0
    2.0667   -1.1023    1.4431 N   0  0  0  0  0  0  0  0  0  0  0  0
    1.7633   -0.3543    2.0695 H   0  0  0  0  0  0  0  0  0  0  0  0
    3.1719   -1.9585    1.8604 C   0  0  0  0  0  0  0  0  0  0  0  0
    3.7960   -2.1998    0.9990 H   0  0  0  0  0  0  0  0  0  0  0  0
    3.7688   -1.4441    2.6131 H   0  0  0  0  0  0  0  0  0  0  0  0
    2.7723   -2.8812    2.2817 H   0  0  0  0  0  0  0  0  0  0  0  0
  5  6  2  0  0  0  0
  5  7  1  0  0  0  0
  2  3  1  0  0  0  0
  2  4  1  0  0  0  0
  2  5  1  0  0  0  0
  1  2  1  0  0  0  0
 17 18  2  0  0  0  0
 17 19  1  0  0  0  0
 14 15  1  0  0  0  0
 14 16  2  0  0  0  0
 11 12  1  0  0  0  0
 11 13  1  0  0  0  0
 11 14  1  0  0  0  0
  9 10  1  0  0  0  0
  9 11  1  0  0  0  0
  9 17  1  0  0  0  0
  7  8  1  0  0  0  0
  7  9  1  0  0  0  0
 21 22  1  0  0  0  0
 21 23  1  0  0  0  0
 21 24  1  0  0  0  0
 19 20  1  0  0  0  0
 19 21  1  0  0  0  0
M  CHG  1  15  -1
M  END
$$$$
default_name
  -OEChem-01062215323D

 24 23  0     1  0  0  0  0  0999 V2000
   -2.8347   -3.7166    0.8034 H   0  0  0  0  0  0  0  0  0  0  0  0
   -2.7728   -2.7096    0.3954 C   0  0  0  0  0  0  0  0  0  0  0  0
   -3.4267   -2.0426    0.9524 H   0  0  0  0  0  0  0  0  0  0  0  0
   -3.0538   -2.7186   -0.6556 H   0  0  0  0  0  0  0  0  0  0  0  0
   -1.3498   -2.2206    0.5184 C   0  0  0  0  0  0  0  0  0  0  0  0
   -0.4997   -2.9426    1.0194 O   0  0  0  0  0  0  0  0  0  0  0  0
   -1.1198   -0.9926    0.0674 N   0  0  0  0  0  0  0  0  0  0  0  0
   -1.8978   -0.4486   -0.2716 H   0  0  0  0  0  0  0  0  0  0  0  0
    0.1693   -0.2866    0.0854 C   0  0  1  0  0  0  0  0  0  0  0  0
    0.3405    0.1688   -0.8916 H   0  0  0  0  0  0  0  0  0  0  0  0
    0.1194    0.8382    1.1421 C   0  0  0  0  0  0  0  0  0  0  0  0
   -0.2253    0.4156    2.0875 H   0  0  0  0  0  0  0  0  0  0  0  0
    1.1307    1.2203    1.2973 H   0  0  0  0  0  0  0  0  0  0  0  0
   -0.8145    2.0057    0.7871 C   0  0  0  0  0  0  0  0  0  0  0  0
   -1.0075    2.2719   -0.4227 O   0  5  0  0  0  0  0  0  0  0  0  0
   -1.3170    2.6401    1.7396 O   0  0  0  0  0  0  0  0  0  0  0  0
    1.3117   -1.2929    0.3566 C   0  0  0  0  0  0  0  0  0  0  0  0
    1.7014   -2.0542   -0.5367 O   0  0  0  0  0  0  0  0  0  0  0  0
    1.8650   -1.2961    1.5734 N   0  0  0  0  0  0  0  0  0  0  0  0
    1.4174   -0.6938    2.2668 H   0  0  0  0  0  0  0  0  0  0  0  0
    2.9376   -2.1848    2.0076 C   0  0  0  0  0  0  0  0  0  0  0  0
    3.7082   -2.2352    1.2373 H   0  0  0  0  0  0  0  0  0  0  0  0
    3.3700   -1.8101    2.9349 H   0  0  0  0  0  0  0  0  0  0  0  0
    2.5321   -3.1832    2.1731 H   0  0  0  0  0  0  0  0  0  0  0  0
  5  6  2  0  0  0  0
  5  7  1  0  0  0  0
  2  3  1  0  0  0  0
  2  4  1  0  0  0  0
  2  5  1  0  0  0  0
  1  2  1  0  0  0  0
 17 18  2  0  0  0  0
 17 19  1  0  0  0  0
 14 15  1  0  0  0  0
 14 16  2  0  0  0  0
 11 12  1  0  0  0  0
 11 13  1  0  0  0  0
 11 14  1  0  0  0  0
  9 10  1  0  0  0  0
  9 11  1  0  0  0  0
  9 17  1  0  0  0  0
  7  8  1  0  0  0  0
  7  9  1  0  0  0  0
 21 22  1  0  0  0  0
 21 23  1  0  0  0  0
 21 24  1  0  0  0  0
 19 20  1  0  0  0  0
 19 21  1  0  0  0  0
M  CHG  1  15  -1
M  END
$$$$
default_name
  -OEChem-01062215323D

 24 23  0     1  0  0  0  0  0999 V2000
   -2.8347   -3.7166    0.8034 H   0  0  0  0  0  0  0  0  0  0  0  0
   -2.7728   -2.7096    0.3954 C   0  0  0  0  0  0  0  0  0  0  0  0
   -3.4267   -2.0426    0.9524 H   0  0  0  0  0  0  0  0  0  0  0  0
   -3.0538   -2.7186   -0.6556 H   0  0  0  0  0  0  0  0  0  0  0  0
   -1.3498   -2.2206    0.5184 C   0  0  0  0  0  0  0  0  0  0  0  0
   -0.4997   -2.9426    1.0194 O   0  0  0  0  0  0  0  0  0  0  0  0
   -1.1198   -0.9926    0.0674 N   0  0  0  0  0  0  0  0  0  0  0  0
   -1.8978   -0.4486   -0.2716 H   0  0  0  0  0  0  0  0  0  0  0  0
    0.1693   -0.2866    0.0854 C   0  0  1  0  0  0  0  0  0  0  0  0
    0.3405    0.1688   -0.8916 H   0  0  0  0  0  0  0  0  0  0  0  0
    0.1194    0.8382    1.1421 C   0  0  0  0  0  0  0  0  0  0  0  0
   -0.2253    0.4156    2.0875 H   0  0  0  0  0  0  0  0  0  0  0  0
    1.1307    1.2203    1.2973 H   0  0  0  0  0  0  0  0  0  0  0  0
   -0.8145    2.0057    0.7871 C   0  0  0  0  0  0  0  0  0  0  0  0
   -1.0075    2.2719   -0.4227 O   0  5  0  0  0  0  0  0  0  0  0  0
   -1.3170    2.6401    1.7396 O   0  0  0  0  0  0  0  0  0  0  0  0
    1.3117   -1.2929    0.3566 C   0  0  0  0  0  0  0  0  0  0  0  0
    1.8889   -1.8536   -0.5825 O   0  0  0  0  0  0  0  0  0  0  0  0
    1.6571   -1.5174    1.6282 N   0  0  0  0  0  0  0  0  0  0  0  0
    1.0655   -1.0752    2.3342 H   0  0  0  0  0  0  0  0  0  0  0  0
    2.6967   -2.4423    2.0670 C   0  0  0  0  0  0  0  0  0  0  0  0
    3.5849   -2.3190    1.4459 H   0  0  0  0  0  0  0  0  0  0  0  0
    2.9473   -2.2432    3.1087 H   0  0  0  0  0  0  0  0  0  0  0  0
    2.3321   -3.4650    1.9700 H   0  0  0  0  0  0  0  0  0  0  0  0
  5  6  2  0  0  0  0
  5  7  1  0  0  0  0
  2  3  1  0  0  0  0
  2  4  1  0  0  0  0
  2  5  1  0  0  0  0
  1  2  1  0  0  0  0
 17 18  2  0  0  0  0
 17 19  1  0  0  0  0
 14 15  1  0  0  0  0
 14 16  2  0  0  0  0
 11 12  1  0  0  0  0
 11 13  1  0  0  0  0
 11 14  1  0  0  0  0
  9 10  1  0  0  0  0
  9 11  1  0  0  0  0
  9 17  1  0  0  0  0
  7  8  1  0  0  0  0
  7  9  1  0  0  0  0
 21 22  1  0  0  0  0
 21 23  1  0  0  0  0
 21 24  1  0  0  0  0
 19 20  1  0  0  0  0
 19 21  1  0  0  0  0
M  CHG  1  15  -1
M  END
$$$$
default_name
  -OEChem-01062215323D

 24 23  0     1  0  0  0  0  0999 V2000
   -2.8347   -3.7166    0.8034 H   0  0  0  0  0  0  0  0  0  0  0  0
   -2.7728   -2.7096    0.3954 C   0  0  0  0  0  0  0  0  0  0  0  0
   -3.4267   -2.0426    0.9524 H   0  0  0  0  0  0  0  0  0  0  0  0
   -3.0538   -2.7186   -0.6556 H   0  0  0  0  0  0  0  0  0  0  0  0
   -1.3498   -2.2206    0.5184 C   0  0  0  0  0  0  0  0  0  0  0  0
   -0.4997   -2.9426    1.0194 O   0  0  0  0  0  0  0  0  0  0  0  0
   -1.1198   -0.9926    0.0674 N   0  0  0  0  0  0  0  0  0  0  0  0
   -1.8978   -0.4486   -0.2716 H   0  0  0  0  0  0  0  0  0  0  0  0
    0.1693   -0.2866    0.0854 C   0  0  1  0  0  0  0  0  0  0  0  0
    0.3405    0.1688   -0.8916 H   0  0  0  0  0  0  0  0  0  0  0  0
    0.1194    0.8382    1.1421 C   0  0  0  0  0  0  0  0  0  0  0  0
   -0.2253    0.4156    2.0875 H   0  0  0  0  0  0  0  0  0  0  0  0
    1.1307    1.2203    1.2973 H   0  0  0  0  0  0  0  0  0  0  0  0
   -0.8145    2.0057    0.7871 C   0  0  0  0  0  0  0  0  0  0  0  0
   -1.0075    2.2719   -0.4227 O   0  5  0  0  0  0  0  0  0  0  0  0
   -1.3170    2.6401    1.7396 O   0  0  0  0  0  0  0  0  0  0  0  0
    1.3117   -1.2929    0.3566 C   0  0  0  0  0  0  0  0  0  0  0  0
    2.0686   -1.6426   -0.5567 O   0  0  0  0  0  0  0  0  0  0  0  0
    1.4571   -1.7510    1.6039 N   0  0  0  0  0  0  0  0  0  0  0  0
    0.7315   -1.4724    2.2671 H   0  0  0  0  0  0  0  0  0  0  0  0
    2.4658   -2.7132    2.0346 C   0  0  0  0  0  0  0  0  0  0  0  0
    3.4345   -2.4454    1.6106 H   0  0  0  0  0  0  0  0  0  0  0  0
    2.5293   -2.7140    3.1224 H   0  0  0  0  0  0  0  0  0  0  0  0
    2.1859   -3.7075    1.6862 H   0  0  0  0  0  0  0  0  0  0  0  0
  5  6  2  0  0  0  0
  5  7  1  0  0  0  0
  2  3  1  0  0  0  0
  2  4  1  0  0  0  0
  2  5  1  0  0  0  0
  1  2  1  0  0  0  0
 17 18  2  0  0  0  0
 17 19  1  0  0  0  0
 14 15  1  0  0  0  0
 14 16  2  0  0  0  0
 11 12  1  0  0  0  0
 11 13  1  0  0  0  0
 11 14  1  0  0  0  0
  9 10  1  0  0  0  0
  9 11  1  0  0  0  0
  9 17  1  0  0  0  0
  7  8  1  0  0  0  0
  7  9  1  0  0  0  0
 21 22  1  0  0  0  0
 21 23  1  0  0  0  0
 21 24  1  0  0  0  0
 19 20  1  0  0  0  0
 19 21  1  0  0  0  0
M  CHG  1  15  -1
M  END
$$$$
default_name
  -OEChem-01062215323D

 24 23  0     1  0  0  0  0  0999 V2000
   -2.8347   -3.7166    0.8034 H   0  0  0  0  0  0  0  0  0  0  0  0
   -2.7728   -2.7096    0.3954 C   0  0  0  0  0  0  0  0  0  0  0  0
   -3.4267   -2.0426    0.9524 H   0  0  0  0  0  0  0  0  0  0  0  0
   -3.0538   -2.7186   -0.6556 H   0  0  0  0  0  0  0  0  0  0  0  0
   -1.3498   -2.2206    0.5184 C   0  0  0  0  0  0  0  0  0  0  0  0
   -0.4997   -2.9426    1.0194 O   0  0  0  0  0  0  0  0  0  0  0  0
   -1.1198   -0.9926    0.0674 N   0  0  0  0  0  0  0  0  0  0  0  0
   -1.8978   -0.4486   -0.2716 H   0  0  0  0  0  0  0  0  0  0  0  0
    0.1693   -0.2866    0.0854 C   0  0  1  0  0  0  0  0  0  0  0  0
    0.3405    0.1688   -0.8916 H   0  0  0  0  0  0  0  0  0  0  0  0
    0.1194    0.8382    1.1421 C   0  0  0  0  0  0  0  0  0  0  0  0
   -0.2253    0.4156    2.0875 H   0  0  0  0  0  0  0  0  0  0  0  0
    1.1307    1.2203    1.2973 H   0  0  0  0  0  0  0  0  0  0  0  0
   -0.8145    2.0057    0.7871 C   0  0  0  0  0  0  0  0  0  0  0  0
   -1.0075    2.2719   -0.4227 O   0  5  0  0  0  0  0  0  0  0  0  0
   -1.3170    2.6401    1.7396 O   0  0  0  0  0  0  0  0  0  0  0  0
    1.3117   -1.2929    0.3566 C   0  0  0  0  0  0  0  0  0  0  0  0
    2.2283   -1.4356   -0.4612 O   0  0  0  0  0  0  0  0  0  0  0  0
    1.2786   -1.9812    1.5020 N   0  0  0  0  0  0  0  0  0  0  0  0
    0.4382   -1.8585    2.0701 H   0  0  0  0  0  0  0  0  0  0  0  0
    2.2605   -2.9792    1.9126 C   0  0  0  0  0  0  0  0  0  0  0  0
    3.2671   -2.6058    1.7202 H   0  0  0  0  0  0  0  0  0  0  0  0
    2.1446   -3.1904    2.9753 H   0  0  0  0  0  0  0  0  0  0  0  0
    2.1034   -3.8941    1.3410 H   0  0  0  0  0  0  0  0  0  0  0  0
  5  6  2  0  0  0  0
  5  7  1  0  0  0  0
  2  3  1  0  0  0  0
  2  4  1  0  0  0  0
  2  5  1  0  0  0  0
  1  2  1  0  0  0  0
 17 18  2  0  0  0  0
 17 19  1  0  0  0  0
 14 15  1  0  0  0  0
 14 16  2  0  0  0  0
 11 12  1  0  0  0  0
 11 13  1  0  0  0  0
 11 14  1  0  0  0  0
  9 10  1  0  0  0  0
  9 11  1  0  0  0  0
  9 17  1  0  0  0  0
  7  8  1  0  0  0  0
  7  9  1  0  0  0  0
 21 22  1  0  0  0  0
 21 23  1  0  0  0  0
 21 24  1  0  0  0  0
 19 20  1  0  0  0  0
 19 21  1  0  0  0  0
M  CHG  1  15  -1
M  END
$$$$
default_name
  -OEChem-01062215323D

 24 23  0     1  0  0  0  0  0999 V2000
   -2.8347   -3.7166    0.8034 H   0  0  0  0  0  0  0  0  0  0  0  0
   -2.7728   -2.7096    0.3954 C   0  0  0  0  0  0  0  0  0  0  0  0
   -3.4267   -2.0426    0.9524 H   0  0  0  0  0  0  0  0  0  0  0  0
   -3.0538   -2.7186   -0.6556 H   0  0  0  0  0  0  0  0  0  0  0  0
   -1.3498   -2.2206    0.5184 C   0  0  0  0  0  0  0  0  0  0  0  0
   -0.4997   -2.9426    1.0194 O   0  0  0  0  0  0  0  0  0  0  0  0
   -1.1198   -0.9926    0.0674 N   0  0  0  0  0  0  0  0  0  0  0  0
   -1.8978   -0.4486   -0.2716 H   0  0  0  0  0  0  0  0  0  0  0  0
    0.1693   -0.2866    0.0854 C   0  0  1  0  0  0  0  0  0  0  0  0
    0.3405    0.1688   -0.8916 H   0  0  0  0  0  0  0  0  0  0  0  0
    0.1194    0.8382    1.1421 C   0  0  0  0  0  0  0  0  0  0  0  0
   -0.2253    0.4156    2.0875 H   0  0  0  0  0  0  0  0  0  0  0  0
    1.1307    1.2203    1.2973 H   0  0  0  0  0  0  0  0  0  0  0  0
   -0.8145    2.0057    0.7871 C   0  0  0  0  0  0  0  0  0  0  0  0
   -1.0075    2.2719   -0.4227 O   0  5  0  0  0  0  0  0  0  0  0  0
   -1.3170    2.6401    1.7396 O   0  0  0  0  0  0  0  0  0  0  0  0
    1.3117   -1.2929    0.3566 C   0  0  0  0  0  0  0  0  0  0  0  0
    2.3570   -1.2466   -0.3025 O   0  0  0  0  0  0  0  0  0  0  0  0
    1.1337   -2.1921    1.3295 N   0  0  0  0  0  0  0  0  0  0  0  0
    0.2056   -2.2070    1.7566 H   0  0  0  0  0  0  0  0  0  0  0  0
    2.0948   -3.2221    1.7094 C   0  0  0  0  0  0  0  0  0  0  0  0
    3.0943   -2.7893    1.7672 H   0  0  0  0  0  0  0  0  0  0  0  0
    1.8195   -3.6398    2.6774 H   0  0  0  0  0  0  0  0  0  0  0  0
    2.0904   -4.0121    0.9581 H   0  0  0  0  0  0  0  0  0  0  0  0
  5  6  2  0  0  0  0
  5  7  1  0  0  0  0
  2  3  1  0  0  0  0
  2  4  1  0  0  0  0
  2  5  1  0  0  0  0
  1  2  1  0  0  0  0
 17 18  2  0  0  0  0
 17 19  1  0  0  0  0
 14 15  1  0  0  0  0
 14 16  2  0  0  0  0
 11 12  1  0  0  0  0
 11 13  1  0  0  0  0
 11 14  1  0  0  0  0
  9 10  1  0  0  0  0
  9 11  1  0  0  0  0
  9 17  1  0  0  0  0
  7  8  1  0  0  0  0
  7  9  1  0  0  0  0
 21 22  1  0  0  0  0
 21 23  1  0  0  0  0
 21 24  1  0  0  0  0
 19 20  1  0  0  0  0
 19 21  1  0  0  0  0
M  CHG  1  15  -1
M  END
$$$$
default_name
  -OEChem-01062215323D

 24 23  0     1  0  0  0  0  0999 V2000
   -2.8347   -3.7166    0.8034 H   0  0  0  0  0  0  0  0  0  0  0  0
   -2.7728   -2.7096    0.3954 C   0  0  0  0  0  0  0  0  0  0  0  0
   -3.4267   -2.0426    0.9524 H   0  0  0  0  0  0  0  0  0  0  0  0
   -3.0538   -2.7186   -0.6556 H   0  0  0  0  0  0  0  0  0  0  0  0
   -1.3498   -2.2206    0.5184 C   0  0  0  0  0  0  0  0  0  0  0  0
   -0.4997   -2.9426    1.0194 O   0  0  0  0  0  0  0  0  0  0  0  0
   -1.1198   -0.9926    0.0674 N   0  0  0  0  0  0  0  0  0  0  0  0
   -1.8978   -0.4486   -0.2716 H   0  0  0  0  0  0  0  0  0  0  0  0
    0.1693   -0.2866    0.0854 C   0  0  1  0  0  0  0  0  0  0  0  0
    0.3405    0.1688   -0.8916 H   0  0  0  0  0  0  0  0  0  0  0  0
    0.1194    0.8382    1.1421 C   0  0  0  0  0  0  0  0  0  0  0  0
   -0.2253    0.4156    2.0875 H   0  0  0  0  0  0  0  0  0  0  0  0
    1.1307    1.2203    1.2973 H   0  0  0  0  0  0  0  0  0  0  0  0
   -0.8145    2.0057    0.7871 C   0  0  0  0  0  0  0  0  0  0  0  0
   -1.0075    2.2719   -0.4227 O   0  5  0  0  0  0  0  0  0  0  0  0
   -1.3170    2.6401    1.7396 O   0  0  0  0  0  0  0  0  0  0  0  0
    1.3117   -1.2929    0.3566 C   0  0  0  0  0  0  0  0  0  0  0  0
    2.4461   -1.0886   -0.0914 O   0  0  0  0  0  0  0  0  0  0  0  0
    1.0325   -2.3694    1.0982 N   0  0  0  0  0  0  0  0  0  0  0  0
    0.0496   -2.4943    1.3480 H   0  0  0  0  0  0  0  0  0  0  0  0
    1.9800   -3.4254    1.4387 C   0  0  0  0  0  0  0  0  0  0  0  0
    2.9279   -2.9834    1.7484 H   0  0  0  0  0  0  0  0  0  0  0  0
    1.5760   -4.0318    2.2489 H   0  0  0  0  0  0  0  0  0  0  0  0
    2.1477   -4.0534    0.5635 H   0  0  0  0  0  0  0  0  0  0  0  0
  5  6  2  0  0  0  0
  5  7  1  0  0  0  0
  2  3  1  0  0  0  0
  2  4  1  0  0  0  0
  2  5  1  0  0  0  0
  1  2  1  0  0  0  0
 17 18  2  0  0  0  0
 17 19  1  0  0  0  0
 14 15  1  0  0  0  0
 14 16  2  0  0  0  0
 11 12  1  0  0  0  0
 11 13  1  0  0  0  0
 11 14  1  0  0  0  0
  9 10  1  0  0  0  0
  9 11  1  0  0  0  0
  9 17  1  0  0  0  0
  7  8  1  0  0  0  0
  7  9  1  0  0  0  0
 21 22  1  0  0  0  0
 21 23  1  0  0  0  0
 21 24  1  0  0  0  0
 19 20  1  0  0  0  0
 19 21  1  0  0  0  0
M  CHG  1  15  -1
M  END
$$$$
default_name
  -OEChem-01062215323D

 24 23  0     1  0  0  0  0  0999 V2000
   -2.8347   -3.7166    0.8034 H   0  0  0  0  0  0  0  0  0  0  0  0
   -2.7728   -2.7096    0.3954 C   0  0  0  0  0  0  0  0  0  0  0  0
   -3.4267   -2.0426    0.9524 H   0  0  0  0  0  0  0  0  0  0  0  0
   -3.0538   -2.7186   -0.6556 H   0  0  0  0  0  0  0  0  0  0  0  0
   -1.3498   -2.2206    0.5184 C   0  0  0  0  0  0  0  0  0  0  0  0
   -0.4997   -2.9426    1.0194 O   0  0  0  0  0  0  0  0  0  0  0  0
   -1.1198   -0.9926    0.0674 N   0  0  0  0  0  0  0  0  0  0  0  0
   -1.8978   -0.4486   -0.2716 H   0  0  0  0  0  0  0  0  0  0  0  0
    0.1693   -0.2866    0.0854 C   0  0  1  0  0  0  0  0  0  0  0  0
    0.3405    0.1688   -0.8916 H   0  0  0  0  0  0  0  0  0  0  0  0
    0.1194    0.8382    1.1421 C   0  0  0  0  0  0  0  0  0  0  0  0
   -0.2253    0.4156    2.0875 H   0  0  0  0  0  0  0  0  0  0  0  0
    1.1307    1.2203    1.2973 H   0  0  0  0  0  0  0  0  0  0  0  0
   -0.8145    2.0057    0.7871 C   0  0  0  0  0  0  0  0  0  0  0  0
   -1.0075    2.2719   -0.4227 O   0  5  0  0  0  0  0  0  0  0  0  0
   -1.3170    2.6401    1.7396 O   0  0  0  0  0  0  0  0  0  0  0  0
    1.3117   -1.2929    0.3566 C   0  0  0  0  0  0  0  0  0  0  0  0
    2.4894   -0.9723    0.1577 O   0  0  0  0  0  0  0  0  0  0  0  0
    0.9817   -2.5010    0.8238 N   0  0  0  0  0  0  0  0  0  0  0  0
   -0.0192   -2.7007    0.8721 H   0  0  0  0  0  0  0  0  0  0  0  0
    1.9239   -3.5752    1.1190 C   0  0  0  0  0  0  0  0  0  0  0  0
    2.7790   -3.1749    1.6651 H   0  0  0  0  0  0  0  0  0  0  0  0
    1.4307   -4.3395    1.7190 H   0  0  0  0  0  0  0  0  0  0  0  0
    2.2714   -4.0153    0.1840 H   0  0  0  0  0  0  0  0  0  0  0  0
  5  6  2  0  0  0  0
  5  7  1  0  0  0  0
  2  3  1  0  0  0  0
  2  4  1  0  0  0  0
  2  5  1  0  0  0  0
  1  2  1  0  0  0  0
 17 18  2  0  0  0  0
 17 19  1  0  0  0  0
 14 15  1  0  0  0  0
 14 16  2  0  0  0  0
 11 12  1  0  0  0  0
 11 13  1  0  0  0  0
 11 14  1  0  0  0  0
  9 10  1  0  0  0  0
  9 11  1  0  0  0  0
  9 17  1  0  0  0  0
  7  8  1  0  0  0  0
  7  9  1  0  0  0  0
 21 22  1  0  0  0  0
 21 23  1  0  0  0  0
 21 24  1  0  0  0  0
 19 20  1  0  0  0  0
 19 21  1  0  0  0  0
M  CHG  1  15  -1
M  END
$$$$
default_name
  -OEChem-01062215323D

 24 23  0     1  0  0  0  0  0999 V2000
   -2.8347   -3.7166    0.8034 H   0  0  0  0  0  0  0  0  0  0  0  0
   -2.7728   -2.7096    0.3954 C   0  0  0  0  0  0  0  0  0  0  0  0
   -3.4267   -2.0426    0.9524 H   0  0  0  0  0  0  0  0  0  0  0  0
   -3.0538   -2.7186   -0.6556 H   0  0  0  0  0  0  0  0  0  0  0  0
   -1.3498   -2.2206    0.5184 C   0  0  0  0  0  0  0  0  0  0  0  0
   -0.4997   -2.9426    1.0194 O   0  0  0  0  0  0  0  0  0  0  0  0
   -1.1198   -0.9926    0.0674 N   0  0  0  0  0  0  0  0  0  0  0  0
   -1.8978   -0.4486   -0.2716 H   0  0  0  0  0  0  0  0  0  0  0  0
    0.1693   -0.2866    0.0854 C   0  0  1  0  0  0  0  0  0  0  0  0
    0.3405    0.1688   -0.8916 H   0  0  0  0  0  0  0  0  0  0  0  0
    0.1194    0.8382    1.1421 C   0  0  0  0  0  0  0  0  0  0  0  0
   -0.2253    0.4156    2.0875 H   0  0  0  0  0  0  0  0  0  0  0  0
    1.1307    1.2203    1.2973 H   0  0  0  0  0  0  0  0  0  0  0  0
   -0.8145    2.0057    0.7871 C   0  0  0  0  0  0  0  0  0  0  0  0
   -1.0075    2.2719   -0.4227 O   0  5  0  0  0  0  0  0  0  0  0  0
   -1.3170    2.6401    1.7396 O   0  0  0  0  0  0  0  0  0  0  0  0
    1.3117   -1.2929    0.3566 C   0  0  0  0  0  0  0  0  0  0  0  0
    2.4840   -0.9056    0.4279 O   0  0  0  0  0  0  0  0  0  0  0  0
    0.9848   -2.5780    0.5251 N   0  0  0  0  0  0  0  0  0  0  0  0
    0.0038   -2.8122    0.3613 H   0  0  0  0  0  0  0  0  0  0  0  0
    1.9304   -3.6613    0.7721 C   0  0  0  0  0  0  0  0  0  0  0  0
    2.6580   -3.3506    1.5230 H   0  0  0  0  0  0  0  0  0  0  0  0
    1.3936   -4.5420    1.1239 H   0  0  0  0  0  0  0  0  0  0  0  0
    2.4530   -3.9003   -0.1543 H   0  0  0  0  0  0  0  0  0  0  0  0
  5  6  2  0  0  0  0
  5  7  1  0  0  0  0
  2  3  1  0  0  0  0
  2  4  1  0  0  0  0
  2  5  1  0  0  0  0
  1  2  1  0  0  0  0
 17 18  2  0  0  0  0
 17 19  1  0  0  0  0
 14 15  1  0  0  0  0
 14 16  2  0  0  0  0
 11 12  1  0  0  0  0
 11 13  1  0  0  0  0
 11 14  1  0  0  0  0
  9 10  1  0  0  0  0
  9 11  1  0  0  0  0
  9 17  1  0  0  0  0
  7  8  1  0  0  0  0
  7  9  1  0  0  0  0
 21 22  1  0  0  0  0
 21 23  1  0  0  0  0
 21 24  1  0  0  0  0
 19 20  1  0  0  0  0
 19 21  1  0  0  0  0
M  CHG  1  15  -1
M  END
$$$$
default_name
  -OEChem-01062215323D

 24 23  0     1  0  0  0  0  0999 V2000
   -2.8347   -3.7166    0.8034 H   0  0  0  0  0  0  0  0  0  0  0  0
   -2.7728   -2.7096    0.3954 C   0  0  0  0  0  0  0  0  0  0  0  0
   -3.4267   -2.0426    0.9524 H   0  0  0  0  0  0  0  0  0  0  0  0
   -3.0538   -2.7186   -0.6556 H   0  0  0  0  0  0  0  0  0  0  0  0
   -1.3498   -2.2206    0.5184 C   0  0  0  0  0  0  0  0  0  0  0  0
   -0.4997   -2.9426    1.0194 O   0  0  0  0  0  0  0  0  0  0  0  0
   -1.1198   -0.9926    0.0674 N   0  0  0  0  0  0  0  0  0  0  0  0
   -1.8978   -0.4486   -0.2716 H   0  0  0  0  0  0  0  0  0  0  0  0
    0.1693   -0.2866    0.0854 C   0  0  1  0  0  0  0  0  0  0  0  0
    0.3405    0.1688   -0.8916 H   0  0  0  0  0  0  0  0  0  0  0  0
    0.1194    0.8382    1.1421 C   0  0  0  0  0  0  0  0  0  0  0  0
   -0.2253    0.4156    2.0875 H   0  0  0  0  0  0  0  0  0  0  0  0
    1.1307    1.2203    1.2973 H   0  0  0  0  0  0  0  0  0  0  0  0
   -0.8145    2.0057    0.7871 C   0  0  0  0  0  0  0  0  0  0  0  0
   -1.0075    2.2719   -0.4227 O   0  5  0  0  0  0  0  0  0  0  0  0
   -1.3170    2.6401    1.7396 O   0  0  0  0  0  0  0  0  0  0  0  0
    1.3117   -1.2929    0.3566 C   0  0  0  0  0  0  0  0  0  0  0  0
    2.4303   -0.8931    0.7007 O   0  0  0  0  0  0  0  0  0  0  0  0
    1.0416   -2.5951    0.2223 N   0  0  0  0  0  0  0  0  0  0  0  0
    0.1171   -2.8212   -0.1495 H   0  0  0  0  0  0  0  0  0  0  0  0
    1.9990   -3.6779    0.4216 C   0  0  0  0  0  0  0  0  0  0  0  0
    2.5729   -3.4987    1.3317 H   0  0  0  0  0  0  0  0  0  0  0  0
    1.4672   -4.6255    0.5041 H   0  0  0  0  0  0  0  0  0  0  0  0
    2.6802   -3.7163   -0.4286 H   0  0  0  0  0  0  0  0  0  0  0  0
  5  6  2  0  0  0  0
  5  7  1  0  0  0  0
  2  3  1  0  0  0  0
  2  4  1  0  0  0  0
  2  5  1  0  0  0  0
  1  2  1  0  0  0  0
 17 18  2  0  0  0  0
 17 19  1  0  0  0  0
 14 15  1  0  0  0  0
 14 16  2  0  0  0  0
 11 12  1  0  0  0  0
 11 13  1  0  0  0  0
 11 14  1  0  0  0  0
  9 10  1  0  0  0  0
  9 11  1  0  0  0  0
  9 17  1  0  0  0  0
  7  8  1  0  0  0  0
  7  9  1  0  0  0  0
 21 22  1  0  0  0  0
 21 23  1  0  0  0  0
 21 24  1  0  0  0  0
 19 20  1  0  0  0  0
 19 21  1  0  0  0  0
M  CHG  1  15  -1
M  END
$$$$
default_name
  -OEChem-01062215323D

 24 23  0     1  0  0  0  0  0999 V2000
   -2.8347   -3.7166    0.8034 H   0  0  0  0  0  0  0  0  0  0  0  0
   -2.7728   -2.7096    0.3954 C   0  0  0  0  0  0  0  0  0  0  0  0
   -3.4267   -2.0426    0.9524 H   0  0  0  0  0  0  0  0  0  0  0  0
   -3.0538   -2.7186   -0.6556 H   0  0  0  0  0  0  0  0  0  0  0  0
   -1.3498   -2.2206    0.5184 C   0  0  0  0  0  0  0  0  0  0  0  0
   -0.4997   -2.9426    1.0194 O   0  0  0  0  0  0  0  0  0  0  0  0
   -1.1198   -0.9926    0.0674 N   0  0  0  0  0  0  0  0  0  0  0  0
   -1.8978   -0.4486   -0.2716 H   0  0  0  0  0  0  0  0  0  0  0  0
    0.1693   -0.2866    0.0854 C   0  0  1  0  0  0  0  0  0  0  0  0
    0.3405    0.1688   -0.8916 H   0  0  0  0  0  0  0  0  0  0  0  0
    0.1194    0.8382    1.1421 C   0  0  0  0  0  0  0  0  0  0  0  0
   -0.2253    0.4156    2.0875 H   0  0  0  0  0  0  0  0  0  0  0  0
    1.1307    1.2203    1.2973 H   0  0  0  0  0  0  0  0  0  0  0  0
   -0.8145    2.0057    0.7871 C   0  0  0  0  0  0  0  0  0  0  0  0
   -1.0075    2.2719   -0.4227 O   0  5  0  0  0  0  0  0  0  0  0  0
   -1.3170    2.6401    1.7396 O   0  0  0  0  0  0  0  0  0  0  0  0
    1.3117   -1.2929    0.3566 C   0  0  0  0  0  0  0  0  0  0  0  0
    2.3318   -0.9357    0.9576 O   0  0  0  0  0  0  0  0  0  0  0  0
    1.1483   -2.5511   -0.0639 N   0  0  0  0  0  0  0  0  0  0  0  0
    0.3130   -2.7271   -0.6255 H   0  0  0  0  0  0  0  0  0  0  0  0
    2.1250   -3.6238    0.0915 C   0  0  0  0  0  0  0  0  0  0  0  0
    2.5298   -3.6090    1.1043 H   0  0  0  0  0  0  0  0  0  0  0  0
    1.6465   -4.5843   -0.0981 H   0  0  0  0  0  0  0  0  0  0  0  0
    2.9375   -3.4758   -0.6201 H   0  0  0  0  0  0  0  0  0  0  0  0
  5  6  2  0  0  0  0
  5  7  1  0  0  0  0
  2  3  1  0  0  0  0
  2  4  1  0  0  0  0
  2  5  1  0  0  0  0
  1  2  1  0  0  0  0
 17 18  2  0  0  0  0
 17 19  1  0  0  0  0
 14 15  1  0  0  0  0
 14 16  2  0  0  0  0
 11 12  1  0  0  0  0
 11 13  1  0  0  0  0
 11 14  1  0  0  0  0
  9 10  1  0  0  0  0
  9 11  1  0  0  0  0
  9 17  1  0  0  0  0
  7  8  1  0  0  0  0
  7  9  1  0  0  0  0
 21 22  1  0  0  0  0
 21 23  1  0  0  0  0
 21 24  1  0  0  0  0
 19 20  1  0  0  0  0
 19 21  1  0  0  0  0
M  CHG  1  15  -1
M  END
$$$$
default_name
  -OEChem-01062215323D

 24 23  0     1  0  0  0  0  0999 V2000
   -2.8347   -3.7166    0.8034 H   0  0  0  0  0  0  0  0  0  0  0  0
   -2.7728   -2.7096    0.3954 C   0  0  0  0  0  0  0  0  0  0  0  0
   -3.4267   -2.0426    0.9524 H   0  0  0  0  0  0  0  0  0  0  0  0
   -3.0538   -2.7186   -0.6556 H   0  0  0  0  0  0  0  0  0  0  0  0
   -1.3498   -2.2206    0.5184 C   0  0  0  0  0  0  0  0  0  0  0  0
   -0.4997   -2.9426    1.0194 O   0  0  0  0  0  0  0  0  0  0  0  0
   -1.1198   -0.9926    0.0674 N   0  0  0  0  0  0  0  0  0  0  0  0
   -1.8978   -0.4486   -0.2716 H   0  0  0  0  0  0  0  0  0  0  0  0
    0.1693   -0.2866    0.0854 C   0  0  1  0  0  0  0  0  0  0  0  0
    0.3405    0.1688   -0.8916 H   0  0  0  0  0  0  0  0  0  0  0  0
    0.1194    0.8382    1.1421 C   0  0  0  0  0  0  0  0  0  0  0  0
   -0.2253    0.4156    2.0875 H   0  0  0  0  0  0  0  0  0  0  0  0
    1.1307    1.2203    1.2973 H   0  0  0  0  0  0  0  0  0  0  0  0
   -0.8145    2.0057    0.7871 C   0  0  0  0  0  0  0  0  0  0  0  0
   -1.0075    2.2719   -0.4227 O   0  5  0  0  0  0  0  0  0  0  0  0
   -1.3170    2.6401    1.7396 O   0  0  0  0  0  0  0  0  0  0  0  0
    1.3117   -1.2929    0.3566 C   0  0  0  0  0  0  0  0  0  0  0  0
    2.1954   -1.0303    1.1810 O   0  0  0  0  0  0  0  0  0  0  0  0
    1.2975   -2.4491   -0.3139 N   0  0  0  0  0  0  0  0  0  0  0  0
    0.5781   -2.5363   -1.0343 H   0  0  0  0  0  0  0  0  0  0  0  0
    2.2999   -3.5027   -0.1958 C   0  0  0  0  0  0  0  0  0  0  0  0
    2.5314   -3.6740    0.8563 H   0  0  0  0  0  0  0  0  0  0  0  0
    1.9192   -4.4212   -0.6418 H   0  0  0  0  0  0  0  0  0  0  0  0
    3.2074   -3.1951   -0.7157 H   0  0  0  0  0  0  0  0  0  0  0  0
  5  6  2  0  0  0  0
  5  7  1  0  0  0  0
  2  3  1  0  0  0  0
  2  4  1  0  0  0  0
  2  5  1  0  0  0  0
  1  2  1  0  0  0  0
 17 18  2  0  0  0  0
 17 19  1  0  0  0  0
 14 15  1  0  0  0  0
 14 16  2  0  0  0  0
 11 12  1  0  0  0  0
 11 13  1  0  0  0  0
 11 14  1  0  0  0  0
  9 10  1  0  0  0  0
  9 11  1  0  0  0  0
  9 17  1  0  0  0  0
  7  8  1  0  0  0  0
  7  9  1  0  0  0  0
 21 22  1  0  0  0  0
 21 23  1  0  0  0  0
 21 24  1  0  0  0  0
 19 20  1  0  0  0  0
 19 21  1  0  0  0  0
M  CHG  1  15  -1
M  END
$$$$
default_name
  -OEChem-01062215323D

 24 23  0     1  0  0  0  0  0999 V2000
   -2.8347   -3.7166    0.8034 H   0  0  0  0  0  0  0  0  0  0  0  0
   -2.7728   -2.7096    0.3954 C   0  0  0  0  0  0  0  0  0  0  0  0
   -3.4267   -2.0426    0.9524 H   0  0  0  0  0  0  0  0  0  0  0  0
   -3.0538   -2.7186   -0.6556 H   0  0  0  0  0  0  0  0  0  0  0  0
   -1.3498   -2.2206    0.5184 C   0  0  0  0  0  0  0  0  0  0  0  0
   -0.4997   -2.9426    1.0194 O   0  0  0  0  0  0  0  0  0  0  0  0
   -1.1198   -0.9926    0.0674 N   0  0  0  0  0  0  0  0  0  0  0  0
   -1.8978   -0.4486   -0.2716 H   0  0  0  0  0  0  0  0  0  0  0  0
    0.1693   -0.2866    0.0854 C   0  0  1  0  0  0  0  0  0  0  0  0
    0.3405    0.1688   -0.8916 H   0  0  0  0  0  0  0  0  0  0  0  0
    0.1194    0.8382    1.1421 C   0  0  0  0  0  0  0  0  0  0  0  0
   -0.2253    0.4156    2.0875 H   0  0  0  0  0  0  0  0  0  0  0  0
    1.1307    1.2203    1.2973 H   0  0  0  0  0  0  0  0  0  0  0  0
   -0.8145    2.0057    0.7871 C   0  0  0  0  0  0  0  0  0  0  0  0
   -1.0075    2.2719   -0.4227 O   0  5  0  0  0  0  0  0  0  0  0  0
   -1.3170    2.6401    1.7396 O   0  0  0  0  0  0  0  0  0  0  0  0
    1.3117   -1.2929    0.3566 C   0  0  0  0  0  0  0  0  0  0  0  0
    2.0303   -1.1707    1.3557 O   0  0  0  0  0  0  0  0  0  0  0  0
    1.4791   -2.2960   -0.5108 N   0  0  0  0  0  0  0  0  0  0  0  0
    0.8944   -2.2618   -1.3481 H   0  0  0  0  0  0  0  0  0  0  0  0
    2.5117   -3.3228   -0.4207 C   0  0  0  0  0  0  0  0  0  0  0  0
    2.5776   -3.6893    0.6046 H   0  0  0  0  0  0  0  0  0  0  0  0
    2.2668   -4.1473   -1.0898 H   0  0  0  0  0  0  0  0  0  0  0  0
    3.4714   -2.8936   -0.7090 H   0  0  0  0  0  0  0  0  0  0  0  0
  5  6  2  0  0  0  0
  5  7  1  0  0  0  0
  2  3  1  0  0  0  0
  2  4  1  0  0  0  0
  2  5  1  0  0  0  0
  1  2  1  0  0  0  0
 17 18  2  0  0  0  0
 17 19  1  0  0  0  0
 14 15  1  0  0  0  0
 14 16  2  0  0  0  0
 11 12  1  0  0  0  0
 11 13  1  0  0  0  0
 11 14  1  0  0  0  0
  9 10  1  0  0  0  0
  9 11  1  0  0  0  0
  9 17  1  0  0  0  0
  7  8  1  0  0  0  0
  7  9  1  0  0  0  0
 21 22  1  0  0  0  0
 21 23  1  0  0  0  0
 21 24  1  0  0  0  0
 19 20  1  0  0  0  0
 19 21  1  0  0  0  0
M  CHG  1  15  -1
M  END
$$$$
default_name
  -OEChem-01062215323D

 24 23  0     1  0  0  0  0  0999 V2000
   -2.8347   -3.7166    0.8034 H   0  0  0  0  0  0  0  0  0  0  0  0
   -2.7728   -2.7096    0.3954 C   0  0  0  0  0  0  0  0  0  0  0  0
   -3.4267   -2.0426    0.9524 H   0  0  0  0  0  0  0  0  0  0  0  0
   -3.0538   -2.7186   -0.6556 H   0  0  0  0  0  0  0  0  0  0  0  0
   -1.3498   -2.2206    0.5184 C   0  0  0  0  0  0  0  0  0  0  0  0
   -0.4997   -2.9426    1.0194 O   0  0  0  0  0  0  0  0  0  0  0  0
   -1.1198   -0.9926    0.0674 N   0  0  0  0  0  0  0  0  0  0  0  0
   -1.8978   -0.4486   -0.2716 H   0  0  0  0  0  0  0  0  0  0  0  0
    0.1693   -0.2866    0.0854 C   0  0  1  0  0  0  0  0  0  0  0  0
    0.3405    0.1688   -0.8916 H   0  0  0  0  0  0  0  0  0  0  0  0
    0.1194    0.8382    1.1421 C   0  0  0  0  0  0  0  0  0  0  0  0
   -0.2253    0.4156    2.0875 H   0  0  0  0  0  0  0  0  0  0  0  0
    1.1307    1.2203    1.2973 H   0  0  0  0  0  0  0  0  0  0  0  0
   -0.8145    2.0057    0.7871 C   0  0  0  0  0  0  0  0  0  0  0  0
   -1.0075    2.2719   -0.4227 O   0  5  0  0  0  0  0  0  0  0  0  0
   -1.3170    2.6401    1.7396 O   0  0  0  0  0  0  0  0  0  0  0  0
    1.3117   -1.2929    0.3566 C   0  0  0  0  0  0  0  0  0  0  0  0
    1.8478   -1.3471    1.4698 O   0  0  0  0  0  0  0  0  0  0  0  0
    1.6808   -2.1022   -0.6411 N   0  0  0  0  0  0  0  0  0  0  0  0
    1.2403   -1.9223   -1.5454 H   0  0  0  0  0  0  0  0  0  0  0  0
    2.7460   -3.0965   -0.5678 C   0  0  0  0  0  0  0  0  0  0  0  0
    2.6654   -3.6539    0.3663 H   0  0  0  0  0  0  0  0  0  0  0  0
    2.6656   -3.7813   -1.4116 H   0  0  0  0  0  0  0  0  0  0  0  0
    3.7116   -2.5916   -0.6004 H   0  0  0  0  0  0  0  0  0  0  0  0
  5  6  2  0  0  0  0
  5  7  1  0  0  0  0
  2  3  1  0  0  0  0
  2  4  1  0  0  0  0
  2  5  1  0  0  0  0
  1  2  1  0  0  0  0
 17 18  2  0  0  0  0
 17 19  1  0  0  0  0
 14 15  1  0  0  0  0
 14 16  2  0  0  0  0
 11 12  1  0  0  0  0
 11 13  1  0  0  0  0
 11 14  1  0  0  0  0
  9 10  1  0  0  0  0
  9 11  1  0  0  0  0
  9 17  1  0  0  0  0
  7  8  1  0  0  0  0
  7  9  1  0  0  0  0
 21 22  1  0  0  0  0
 21 23  1  0  0  0  0
 21 24  1  0  0  0  0
 19 20  1  0  0  0  0
 19 21  1  0  0  0  0
M  CHG  1  15  -1
M  END
$$$$
default_name
  -OEChem-01062215323D

 24 23  0     1  0  0  0  0  0999 V2000
   -2.8347   -3.7166    0.8034 H   0  0  0  0  0  0  0  0  0  0  0  0
   -2.7728   -2.7096    0.3954 C   0  0  0  0  0  0  0  0  0  0  0  0
   -3.4267   -2.0426    0.9524 H   0  0  0  0  0  0  0  0  0  0  0  0
   -3.0538   -2.7186   -0.6556 H   0  0  0  0  0  0  0  0  0  0  0  0
   -1.3498   -2.2206    0.5184 C   0  0  0  0  0  0  0  0  0  0  0  0
   -0.4997   -2.9426    1.0194 O   0  0  0  0  0  0  0  0  0  0  0  0
   -1.1198   -0.9926    0.0674 N   0  0  0  0  0  0  0  0  0  0  0  0
   -1.8978   -0.4486   -0.2716 H   0  0  0  0  0  0  0  0  0  0  0  0
    0.1693   -0.2866    0.0854 C   0  0  1  0  0  0  0  0  0  0  0  0
    0.3405    0.1688   -0.8916 H   0  0  0  0  0  0  0  0  0  0  0  0
    0.1194    0.8382    1.1421 C   0  0  0  0  0  0  0  0  0  0  0  0
   -0.2253    0.4156    2.0875 H   0  0  0  0  0  0  0  0  0  0  0  0
    1.1307    1.2203    1.2973 H   0  0  0  0  0  0  0  0  0  0  0  0
   -0.8145    2.0057    0.7871 C   0  0  0  0  0  0  0  0  0  0  0  0
   -1.0075    2.2719   -0.4227 O   0  5  0  0  0  0  0  0  0  0  0  0
   -1.3170    2.6401    1.7396 O   0  0  0  0  0  0  0  0  0  0  0  0
    1.3117   -1.2929    0.3566 C   0  0  0  0  0  0  0  0  0  0  0  0
    1.6603   -1.5477    1.5155 O   0  0  0  0  0  0  0  0  0  0  0  0
    1.8887   -1.8809   -0.6960 N   0  0  0  0  0  0  0  0  0  0  0  0
    1.5923   -1.5409   -1.6128 H   0  0  0  0  0  0  0  0  0  0  0  0
    2.9868   -2.8391   -0.6273 C   0  0  0  0  0  0  0  0  0  0  0  0
    2.7887   -3.5701    0.1577 H   0  0  0  0  0  0  0  0  0  0  0  0
    3.0883   -3.3482   -1.5853 H   0  0  0  0  0  0  0  0  0  0  0  0
    3.9117   -2.3097   -0.3972 H   0  0  0  0  0  0  0  0  0  0  0  0
  5  6  2  0  0  0  0
  5  7  1  0  0  0  0
  2  3  1  0  0  0  0
  2  4  1  0  0  0  0
  2  5  1  0  0  0  0
  1  2  1  0  0  0  0
 17 18  2  0  0  0  0
 17 19  1  0  0  0  0
 14 15  1  0  0  0  0
 14 16  2  0  0  0  0
 11 12  1  0  0  0  0
 11 13  1  0  0  0  0
 11 14  1  0  0  0  0
  9 10  1  0  0  0  0
  9 11  1  0  0  0  0
  9 17  1  0  0  0  0
  7  8  1  0  0  0  0
  7  9  1  0  0  0  0
 21 22  1  0  0  0  0
 21 23  1  0  0  0  0
 21 24  1  0  0  0  0
 19 20  1  0  0  0  0
 19 21  1  0  0  0  0
M  CHG  1  15  -1
M  END
$$$$
default_name
  -OEChem-01062215323D

 24 23  0     1  0  0  0  0  0999 V2000
   -2.8347   -3.7166    0.8034 H   0  0  0  0  0  0  0  0  0  0  0  0
   -2.7728   -2.7096    0.3954 C   0  0  0  0  0  0  0  0  0  0  0  0
   -3.4267   -2.0426    0.9524 H   0  0  0  0  0  0  0  0  0  0  0  0
   -3.0538   -2.7186   -0.6556 H   0  0  0  0  0  0  0  0  0  0  0  0
   -1.3498   -2.2206    0.5184 C   0  0  0  0  0  0  0  0  0  0  0  0
   -0.4997   -2.9426    1.0194 O   0  0  0  0  0  0  0  0  0  0  0  0
   -1.1198   -0.9926    0.0674 N   0  0  0  0  0  0  0  0  0  0  0  0
   -1.8978   -0.4486   -0.2716 H   0  0  0  0  0  0  0  0  0  0  0  0
    0.1693   -0.2866    0.0854 C   0  0  1  0  0  0  0  0  0  0  0  0
    0.3405    0.1688   -0.8916 H   0  0  0  0  0  0  0  0  0  0  0  0
    0.1194    0.8382    1.1421 C   0  0  0  0  0  0  0  0  0  0  0  0
   -0.2253    0.4156    2.0875 H   0  0  0  0  0  0  0  0  0  0  0  0
    1.1307    1.2203    1.2973 H   0  0  0  0  0  0  0  0  0  0  0  0
   -0.8145    2.0057    0.7871 C   0  0  0  0  0  0  0  0  0  0  0  0
   -1.0075    2.2719   -0.4227 O   0  5  0  0  0  0  0  0  0  0  0  0
   -1.3170    2.6401    1.7396 O   0  0  0  0  0  0  0  0  0  0  0  0
    1.3117   -1.2929    0.3566 C   0  0  0  0  0  0  0  0  0  0  0  0
    1.4806   -1.7586    1.4898 O   0  0  0  0  0  0  0  0  0  0  0  0
    2.0887   -1.6473   -0.6717 N   0  0  0  0  0  0  0  0  0  0  0  0
    1.9262   -1.1437   -1.5457 H   0  0  0  0  0  0  0  0  0  0  0  0
    3.2178   -2.5681   -0.5949 C   0  0  0  0  0  0  0  0  0  0  0  0
    2.9392   -3.4437   -0.0070 H   0  0  0  0  0  0  0  0  0  0  0  0
    3.5063   -2.8774   -1.5991 H   0  0  0  0  0  0  0  0  0  0  0  0
    4.0579   -2.0672   -0.1134 H   0  0  0  0  0  0  0  0  0  0  0  0
  5  6  2  0  0  0  0
  5  7  1  0  0  0  0
  2  3  1  0  0  0  0
  2  4  1  0  0  0  0
  2  5  1  0  0  0  0
  1  2  1  0  0  0  0
 17 18  2  0  0  0  0
 17 19  1  0  0  0  0
 14 15  1  0  0  0  0
 14 16  2  0  0  0  0
 11 12  1  0  0  0  0
 11 13  1  0  0  0  0
 11 14  1  0  0  0  0
  9 10  1  0  0  0  0
  9 11  1  0  0  0  0
  9 17  1  0  0  0  0
  7  8  1  0  0  0  0
  7  9  1  0  0  0  0
 21 22  1  0  0  0  0
 21 23  1  0  0  0  0
 21 24  1  0  0  0  0
 19 20  1  0  0  0  0
 19 21  1  0  0  0  0
M  CHG  1  15  -1
M  END
$$$$
default_name
  -OEChem-01062215323D

 24 23  0     1  0  0  0  0  0999 V2000
   -2.8347   -3.7166    0.8034 H   0  0  0  0  0  0  0  0  0  0  0  0
   -2.7728   -2.7096    0.3954 C   0  0  0  0  0  0  0  0  0  0  0  0
   -3.4267   -2.0426    0.9524 H   0  0  0  0  0  0  0  0  0  0  0  0
   -3.0538   -2.7186   -0.6556 H   0  0  0  0  0  0  0  0  0  0  0  0
   -1.3498   -2.2206    0.5184 C   0  0  0  0  0  0  0  0  0  0  0  0
   -0.4997   -2.9426    1.0194 O   0  0  0  0  0  0  0  0  0  0  0  0
   -1.1198   -0.9926    0.0674 N   0  0  0  0  0  0  0  0  0  0  0  0
   -1.8978   -0.4486   -0.2716 H   0  0  0  0  0  0  0  0  0  0  0  0
    0.1693   -0.2866    0.0854 C   0  0  1  0  0  0  0  0  0  0  0  0
    0.3405    0.1688   -0.8916 H   0  0  0  0  0  0  0  0  0  0  0  0
    0.1194    0.8382    1.1421 C   0  0  0  0  0  0  0  0  0  0  0  0
   -0.2253    0.4156    2.0875 H   0  0  0  0  0  0  0  0  0  0  0  0
    1.1307    1.2203    1.2973 H   0  0  0  0  0  0  0  0  0  0  0  0
   -0.8145    2.0057    0.7871 C   0  0  0  0  0  0  0  0  0  0  0  0
   -1.0075    2.2719   -0.4227 O   0  5  0  0  0  0  0  0  0  0  0  0
   -1.3170    2.6401    1.7396 O   0  0  0  0  0  0  0  0  0  0  0  0
    1.3117   -1.2929    0.3566 C   0  0  0  0  0  0  0  0  0  0  0  0
    1.3209   -1.9657    1.3943 O   0  0  0  0  0  0  0  0  0  0  0  0
    2.2672   -1.4171   -0.5698 N   0  0  0  0  0  0  0  0  0  0  0  0
    2.2195   -0.7576   -1.3487 H   0  0  0  0  0  0  0  0  0  0  0  0
    3.4231   -2.3022   -0.4729 C   0  0  0  0  0  0  0  0  0  0  0  0
    3.1065   -3.2833   -0.1166 H   0  0  0  0  0  0  0  0  0  0  0  0
    3.8910   -2.4010   -1.4520 H   0  0  0  0  0  0  0  0  0  0  0  0
    4.1403   -1.8806    0.2317 H   0  0  0  0  0  0  0  0  0  0  0  0
  5  6  2  0  0  0  0
  5  7  1  0  0  0  0
  2  3  1  0  0  0  0
  2  4  1  0  0  0  0
  2  5  1  0  0  0  0
  1  2  1  0  0  0  0
 17 18  2  0  0  0  0
 17 19  1  0  0  0  0
 14 15  1  0  0  0  0
 14 16  2  0  0  0  0
 11 12  1  0  0  0  0
 11 13  1  0  0  0  0
 11 14  1  0  0  0  0
  9 10  1  0  0  0  0
  9 11  1  0  0  0  0
  9 17  1  0  0  0  0
  7  8  1  0  0  0  0
  7  9  1  0  0  0  0
 21 22  1  0  0  0  0
 21 23  1  0  0  0  0
 21 24  1  0  0  0  0
 19 20  1  0  0  0  0
 19 21  1  0  0  0  0
M  CHG  1  15  -1
M  END
$$$$
default_name
  -OEChem-01062215323D

 24 23  0     1  0  0  0  0  0999 V2000
   -2.8347   -3.7166    0.8034 H   0  0  0  0  0  0  0  0  0  0  0  0
   -2.7728   -2.7096    0.3954 C   0  0  0  0  0  0  0  0  0  0  0  0
   -3.4267   -2.0426    0.9524 H   0  0  0  0  0  0  0  0  0  0  0  0
   -3.0538   -2.7186   -0.6556 H   0  0  0  0  0  0  0  0  0  0  0  0
   -1.3498   -2.2206    0.5184 C   0  0  0  0  0  0  0  0  0  0  0  0
   -0.4997   -2.9426    1.0194 O   0  0  0  0  0  0  0  0  0  0  0  0
   -1.1198   -0.9926    0.0674 N   0  0  0  0  0  0  0  0  0  0  0  0
   -1.8978   -0.4486   -0.2716 H   0  0  0  0  0  0  0  0  0  0  0  0
    0.1693   -0.2866    0.0854 C   0  0  1  0  0  0  0  0  0  0  0  0
    0.3405    0.1688   -0.8916 H   0  0  0  0  0  0  0  0  0  0  0  0
    0.1194    0.8382    1.1421 C   0  0  0  0  0  0  0  0  0  0  0  0
   -0.2253    0.4156    2.0875 H   0  0  0  0  0  0  0  0  0  0  0  0
    1.1307    1.2203    1.2973 H   0  0  0  0  0  0  0  0  0  0  0  0
   -0.8145    2.0057    0.7871 C   0  0  0  0  0  0  0  0  0  0  0  0
   -1.0075    2.2719   -0.4227 O   0  5  0  0  0  0  0  0  0  0  0  0
   -1.3170    2.6401    1.7396 O   0  0  0  0  0  0  0  0  0  0  0  0
    1.3117   -1.2929    0.3566 C   0  0  0  0  0  0  0  0  0  0  0  0
    1.1921   -2.1546    1.2356 O   0  0  0  0  0  0  0  0  0  0  0  0
    2.4120   -1.2062   -0.3973 N   0  0  0  0  0  0  0  0  0  0  0  0
    2.4521   -0.4091   -1.0352 H   0  0  0  0  0  0  0  0  0  0  0  0
    3.5888   -2.0592   -0.2696 C   0  0  0  0  0  0  0  0  0  0  0  0
    3.2793   -3.0998   -0.1636 H   0  0  0  0  0  0  0  0  0  0  0  0
    4.2161   -1.9516   -1.1541 H   0  0  0  0  0  0  0  0  0  0  0  0
    4.1533   -1.7626    0.6146 H   0  0  0  0  0  0  0  0  0  0  0  0
  5  6  2  0  0  0  0
  5  7  1  0  0  0  0
  2  3  1  0  0  0  0
  2  4  1  0  0  0  0
  2  5  1  0  0  0  0
  1  2  1  0  0  0  0
 17 18  2  0  0  0  0
 17 19  1  0  0  0  0
 14 15  1  0  0  0  0
 14 16  2  0  0  0  0
 11 12  1  0  0  0  0
 11 13  1  0  0  0  0
 11 14  1  0  0  0  0
  9 10  1  0  0  0  0
  9 11  1  0  0  0  0
  9 17  1  0  0  0  0
  7  8  1  0  0  0  0
  7  9  1  0  0  0  0
 21 22  1  0  0  0  0
 21 23  1  0  0  0  0
 21 24  1  0  0  0  0
 19 20  1  0  0  0  0
 19 21  1  0  0  0  0
M  CHG  1  15  -1
M  END
$$$$
default_name
  -OEChem-01062215323D

 24 23  0     1  0  0  0  0  0999 V2000
   -2.8347   -3.7166    0.8034 H   0  0  0  0  0  0  0  0  0  0  0  0
   -2.7728   -2.7096    0.3954 C   0  0  0  0  0  0  0  0  0  0  0  0
   -3.4267   -2.0426    0.9524 H   0  0  0  0  0  0  0  0  0  0  0  0
   -3.0538   -2.7186   -0.6556 H   0  0  0  0  0  0  0  0  0  0  0  0
   -1.3498   -2.2206    0.5184 C   0  0  0  0  0  0  0  0  0  0  0  0
   -0.4997   -2.9426    1.0194 O   0  0  0  0  0  0  0  0  0  0  0  0
   -1.1198   -0.9926    0.0674 N   0  0  0  0  0  0  0  0  0  0  0  0
   -1.8978   -0.4486   -0.2716 H   0  0  0  0  0  0  0  0  0  0  0  0
    0.1693   -0.2866    0.0854 C   0  0  1  0  0  0  0  0  0  0  0  0
    0.3405    0.1688   -0.8916 H   0  0  0  0  0  0  0  0  0  0  0  0
    0.1194    0.8382    1.1421 C   0  0  0  0  0  0  0  0  0  0  0  0
   -0.2253    0.4156    2.0875 H   0  0  0  0  0  0  0  0  0  0  0  0
    1.1307    1.2203    1.2973 H   0  0  0  0  0  0  0  0  0  0  0  0
   -0.8145    2.0057    0.7871 C   0  0  0  0  0  0  0  0  0  0  0  0
   -1.0075    2.2719   -0.4227 O   0  5  0  0  0  0  0  0  0  0  0  0
   -1.3170    2.6401    1.7396 O   0  0  0  0  0  0  0  0  0  0  0  0
    1.3117   -1.2929    0.3566 C   0  0  0  0  0  0  0  0  0  0  0  0
    1.1030   -2.3127    1.0245 O   0  0  0  0  0  0  0  0  0  0  0  0
    2.5133   -1.0289   -0.1660 N   0  0  0  0  0  0  0  0  0  0  0  0
    2.6081   -0.1218   -0.6266 H   0  0  0  0  0  0  0  0  0  0  0  0
    3.7036   -1.8559    0.0011 C   0  0  0  0  0  0  0  0  0  0  0  0
    3.4458   -2.9057   -0.1448 H   0  0  0  0  0  0  0  0  0  0  0  0
    4.4596   -1.5596   -0.7256 H   0  0  0  0  0  0  0  0  0  0  0  0
    4.0960   -1.7213    1.0093 H   0  0  0  0  0  0  0  0  0  0  0  0
  5  6  2  0  0  0  0
  5  7  1  0  0  0  0
  2  3  1  0  0  0  0
  2  4  1  0  0  0  0
  2  5  1  0  0  0  0
  1  2  1  0  0  0  0
 17 18  2  0  0  0  0
 17 19  1  0  0  0  0
 14 15  1  0  0  0  0
 14 16  2  0  0  0  0
 11 12  1  0  0  0  0
 11 13  1  0  0  0  0
 11 14  1  0  0  0  0
  9 10  1  0  0  0  0
  9 11  1  0  0  0  0
  9 17  1  0  0  0  0
  7  8  1  0  0  0  0
  7  9  1  0  0  0  0
 21 22  1  0  0  0  0
 21 23  1  0  0  0  0
 21 24  1  0  0  0  0
 19 20  1  0  0  0  0
 19 21  1  0  0  0  0
M  CHG  1  15  -1
M  END
$$$$
default_name
  -OEChem-01062215323D

 24 23  0     1  0  0  0  0  0999 V2000
   -2.8347   -3.7166    0.8034 H   0  0  0  0  0  0  0  0  0  0  0  0
   -2.7728   -2.7096    0.3954 C   0  0  0  0  0  0  0  0  0  0  0  0
   -3.4267   -2.0426    0.9524 H   0  0  0  0  0  0  0  0  0  0  0  0
   -3.0538   -2.7186   -0.6556 H   0  0  0  0  0  0  0  0  0  0  0  0
   -1.3498   -2.2206    0.5184 C   0  0  0  0  0  0  0  0  0  0  0  0
   -0.4997   -2.9426    1.0194 O   0  0  0  0  0  0  0  0  0  0  0  0
   -1.1198   -0.9926    0.0674 N   0  0  0  0  0  0  0  0  0  0  0  0
   -1.8978   -0.4486   -0.2716 H   0  0  0  0  0  0  0  0  0  0  0  0
    0.1693   -0.2866    0.0854 C   0  0  1  0  0  0  0  0  0  0  0  0
    0.3405    0.1688   -0.8916 H   0  0  0  0  0  0  0  0  0  0  0  0
    0.1194    0.8382    1.1421 C   0  0  0  0  0  0  0  0  0  0  0  0
   -0.2253    0.4156    2.0875 H   0  0  0  0  0  0  0  0  0  0  0  0
    1.1307    1.2203    1.2973 H   0  0  0  0  0  0  0  0  0  0  0  0
   -0.8145    2.0057    0.7871 C   0  0  0  0  0  0  0  0  0  0  0  0
   -1.0075    2.2719   -0.4227 O   0  5  0  0  0  0  0  0  0  0  0  0
   -1.3170    2.6401    1.7396 O   0  0  0  0  0  0  0  0  0  0  0  0
    1.3117   -1.2929    0.3566 C   0  0  0  0  0  0  0  0  0  0  0  0
    1.0597   -2.4290    0.7753 O   0  0  0  0  0  0  0  0  0  0  0  0
    2.5641   -0.8973    0.1084 N   0  0  0  0  0  0  0  0  0  0  0  0
    2.6770    0.0846   -0.1507 H   0  0  0  0  0  0  0  0  0  0  0  0
    3.7597   -1.7061    0.3208 C   0  0  0  0  0  0  0  0  0  0  0  0
    3.5946   -2.7143   -0.0615 H   0  0  0  0  0  0  0  0  0  0  0  0
    4.6049   -1.2519   -0.1957 H   0  0  0  0  0  0  0  0  0  0  0  0
    3.9724   -1.7594    1.3887 H   0  0  0  0  0  0  0  0  0  0  0  0
  5  6  2  0  0  0  0
  5  7  1  0  0  0  0
  2  3  1  0  0  0  0
  2  4  1  0  0  0  0
  2  5  1  0  0  0  0
  1  2  1  0  0  0  0
 17 18  2  0  0  0  0
 17 19  1  0  0  0  0
 14 15  1  0  0  0  0
 14 16  2  0  0  0  0
 11 12  1  0  0  0  0
 11 13  1  0  0  0  0
 11 14  1  0  0  0  0
  9 10  1  0  0  0  0
  9 11  1  0  0  0  0
  9 17  1  0  0  0  0
  7  8  1  0  0  0  0
  7  9  1  0  0  0  0
 21 22  1  0  0  0  0
 21 23  1  0  0  0  0
 21 24  1  0  0  0  0
 19 20  1  0  0  0  0
 19 21  1  0  0  0  0
M  CHG  1  15  -1
M  END
$$$$
default_name
  -OEChem-01062215323D

 24 23  0     1  0  0  0  0  0999 V2000
   -2.8347   -3.7166    0.8034 H   0  0  0  0  0  0  0  0  0  0  0  0
   -2.7728   -2.7096    0.3954 C   0  0  0  0  0  0  0  0  0  0  0  0
   -3.4267   -2.0426    0.9524 H   0  0  0  0  0  0  0  0  0  0  0  0
   -3.0538   -2.7186   -0.6556 H   0  0  0  0  0  0  0  0  0  0  0  0
   -1.3498   -2.2206    0.5184 C   0  0  0  0  0  0  0  0  0  0  0  0
   -0.4997   -2.9426    1.0194 O   0  0  0  0  0  0  0  0  0  0  0  0
   -1.1198   -0.9926    0.0674 N   0  0  0  0  0  0  0  0  0  0  0  0
   -1.8978   -0.4486   -0.2716 H   0  0  0  0  0  0  0  0  0  0  0  0
    0.1693   -0.2866    0.0854 C   0  0  1  0  0  0  0  0  0  0  0  0
    0.2224    0.3814   -0.7760 H   0  0  0  0  0  0  0  0  0  0  0  0
    0.2641    0.5682    1.3678 C   0  0  0  0  0  0  0  0  0  0  0  0
    0.0353   -0.0638    2.2278 H   0  0  0  0  0  0  0  0  0  0  0  0
    1.2911    0.9228    1.4792 H   0  0  0  0  0  0  0  0  0  0  0  0
   -0.6937    1.7693    1.4059 C   0  0  0  0  0  0  0  0  0  0  0  0
   -1.0330    2.2995    0.3218 O   0  5  0  0  0  0  0  0  0  0  0  0
   -1.0663    2.1622    2.5323 O   0  0  0  0  0  0  0  0  0  0  0  0
    1.3252   -1.3080   -0.0228 C   0  0  0  0  0  0  0  0  0  0  0  0
    1.0857   -2.5172   -0.1220 O   0  0  0  0  0  0  0  0  0  0  0  0
    2.5763   -0.8374   -0.0215 N   0  0  0  0  0  0  0  0  0  0  0  0
    2.6740    0.1647    0.1524 H   0  0  0  0  0  0  0  0  0  0  0  0
    3.7827   -1.6543   -0.0993 C   0  0  0  0  0  0  0  0  0  0  0  0
    3.6620   -2.4163   -0.8704 H   0  0  0  0  0  0  0  0  0  0  0  0
    4.6374   -1.0223   -0.3390 H   0  0  0  0  0  0  0  0  0  0  0  0
    3.9492   -2.1417    0.8615 H   0  0  0  0  0  0  0  0  0  0  0  0
  5  6  2  0  0  0  0
  5  7  1  0  0  0  0
  2  3  1  0  0  0  0
  2  4  1  0  0  0  0
  2  5  1  0  0  0  0
  1  2  1  0  0  0  0
 17 18  2  0  0  0  0
 17 19  1  0  0  0  0
 14 15  1  0  0  0  0
 14 16  2  0  0  0  0
 11 12  1  0  0  0  0
 11 13  1  0  0  0  0
 11 14  1  0  0  0  0
  9 10  1  0  0  0  0
  9 11  1  0  0  0  0
  9 17  1  0  0  0  0
  7  8  1  0  0  0  0
  7  9  1  0  0  0  0
 21 22  1  0  0  0  0
 21 23  1  0  0  0  0
 21 24  1  0  0  0  0
 19 20  1  0  0  0  0
 19 21  1  0  0  0  0
M  CHG  1  15  -1
M  END
$$$$
default_name
  -OEChem-01062215323D

 24 23  0     1  0  0  0  0  0999 V2000
   -2.8347   -3.7166    0.8034 H   0  0  0  0  0  0  0  0  0  0  0  0
   -2.7728   -2.7096    0.3954 C   0  0  0  0  0  0  0  0  0  0  0  0
   -3.4267   -2.0426    0.9524 H   0  0  0  0  0  0  0  0  0  0  0  0
   -3.0538   -2.7186   -0.6556 H   0  0  0  0  0  0  0  0  0  0  0  0
   -1.3498   -2.2206    0.5184 C   0  0  0  0  0  0  0  0  0  0  0  0
   -0.4997   -2.9426    1.0194 O   0  0  0  0  0  0  0  0  0  0  0  0
   -1.1198   -0.9926    0.0674 N   0  0  0  0  0  0  0  0  0  0  0  0
   -1.8978   -0.4486   -0.2716 H   0  0  0  0  0  0  0  0  0  0  0  0
    0.1693   -0.2866    0.0854 C   0  0  1  0  0  0  0  0  0  0  0  0
    0.2224    0.3814   -0.7760 H   0  0  0  0  0  0  0  0  0  0  0  0
    0.2641    0.5682    1.3678 C   0  0  0  0  0  0  0  0  0  0  0  0
    0.0353   -0.0638    2.2278 H   0  0  0  0  0  0  0  0  0  0  0  0
    1.2911    0.9228    1.4792 H   0  0  0  0  0  0  0  0  0  0  0  0
   -0.6937    1.7693    1.4059 C   0  0  0  0  0  0  0  0  0  0  0  0
   -1.0330    2.2995    0.3218 O   0  5  0  0  0  0  0  0  0  0  0  0
   -1.0663    2.1622    2.5323 O   0  0  0  0  0  0  0  0  0  0  0  0
    1.3252   -1.3080   -0.0228 C   0  0  0  0  0  0  0  0  0  0  0  0
    1.1049   -2.4666   -0.3951 O   0  0  0  0  0  0  0  0  0  0  0  0
    2.5579   -0.8904    0.2819 N   0  0  0  0  0  0  0  0  0  0  0  0
    2.6254    0.0557    0.6619 H   0  0  0  0  0  0  0  0  0  0  0  0
    3.7585   -1.7188    0.2514 C   0  0  0  0  0  0  0  0  0  0  0  0
    3.7718   -2.3140   -0.6626 H   0  0  0  0  0  0  0  0  0  0  0  0
    4.6426   -1.0828    0.2878 H   0  0  0  0  0  0  0  0  0  0  0  0
    3.7559   -2.3870    1.1128 H   0  0  0  0  0  0  0  0  0  0  0  0
  5  6  2  0  0  0  0
  5  7  1  0  0  0  0
  2  3  1  0  0  0  0
  2  4  1  0  0  0  0
  2  5  1  0  0  0  0
  1  2  1  0  0  0  0
 17 18  2  0  0  0  0
 17 19  1  0  0  0  0
 14 15  1  0  0  0  0
 14 16  2  0  0  0  0
 11 12  1  0  0  0  0
 11 13  1  0  0  0  0
 11 14  1  0  0  0  0
  9 10  1  0  0  0  0
  9 11  1  0  0  0  0
  9 17  1  0  0  0  0
  7  8  1  0  0  0  0
  7  9  1  0  0  0  0
 21 22  1  0  0  0  0
 21 23  1  0  0  0  0
 21 24  1  0  0  0  0
 19 20  1  0  0  0  0
 19 21  1  0  0  0  0
M  CHG  1  15  -1
M  END
$$$$
default_name
  -OEChem-01062215323D

 24 23  0     1  0  0  0  0  0999 V2000
   -2.8347   -3.7166    0.8034 H   0  0  0  0  0  0  0  0  0  0  0  0
   -2.7728   -2.7096    0.3954 C   0  0  0  0  0  0  0  0  0  0  0  0
   -3.4267   -2.0426    0.9524 H   0  0  0  0  0  0  0  0  0  0  0  0
   -3.0538   -2.7186   -0.6556 H   0  0  0  0  0  0  0  0  0  0  0  0
   -1.3498   -2.2206    0.5184 C   0  0  0  0  0  0  0  0  0  0  0  0
   -0.4997   -2.9426    1.0194 O   0  0  0  0  0  0  0  0  0  0  0  0
   -1.1198   -0.9926    0.0674 N   0  0  0  0  0  0  0  0  0  0  0  0
   -1.8978   -0.4486   -0.2716 H   0  0  0  0  0  0  0  0  0  0  0  0
    0.1693   -0.2866    0.0854 C   0  0  1  0  0  0  0  0  0  0  0  0
    0.2224    0.3814   -0.7760 H   0  0  0  0  0  0  0  0  0  0  0  0
    0.2641    0.5682    1.3678 C   0  0  0  0  0  0  0  0  0  0  0  0
    0.0353   -0.0638    2.2278 H   0  0  0  0  0  0  0  0  0  0  0  0
    1.2911    0.9228    1.4792 H   0  0  0  0  0  0  0  0  0  0  0  0
   -0.6937    1.7693    1.4059 C   0  0  0  0  0  0  0  0  0  0  0  0
   -1.0330    2.2995    0.3218 O   0  5  0  0  0  0  0  0  0  0  0  0
   -1.0663    2.1622    2.5323 O   0  0  0  0  0  0  0  0  0  0  0  0
    1.3252   -1.3080   -0.0228 C   0  0  0  0  0  0  0  0  0  0  0  0
    1.1710   -2.3652   -0.6457 O   0  0  0  0  0  0  0  0  0  0  0  0
    2.4873   -1.0000    0.5616 N   0  0  0  0  0  0  0  0  0  0  0  0
    2.4893   -0.1473    1.1246 H   0  0  0  0  0  0  0  0  0  0  0  0
    3.6741   -1.8486    0.5736 C   0  0  0  0  0  0  0  0  0  0  0  0
    3.8443   -2.2574   -0.4232 H   0  0  0  0  0  0  0  0  0  0  0  0
    4.5394   -1.2627    0.8823 H   0  0  0  0  0  0  0  0  0  0  0  0
    3.5218   -2.6692    1.2750 H   0  0  0  0  0  0  0  0  0  0  0  0
  5  6  2  0  0  0  0
  5  7  1  0  0  0  0
  2  3  1  0  0  0  0
  2  4  1  0  0  0  0
  2  5  1  0  0  0  0
  1  2  1  0  0  0  0
 17 18  2  0  0  0  0
 17 19  1  0  0  0  0
 14 15  1  0  0  0  0
 14 16  2  0  0  0  0
 11 12  1  0  0  0  0
 11 13  1  0  0  0  0
 11 14  1  0  0  0  0
  9 10  1  0  0  0  0
  9 11  1  0  0  0  0
  9 17  1  0  0  0  0
  7  8  1  0  0  0  0
  7  9  1  0  0  0  0
 21 22  1  0  0  0  0
 21 23  1  0  0  0  0
 21 24  1  0  0  0  0
 19 20  1  0  0  0  0
 19 21  1  0  0  0  0
M  CHG  1  15  -1
M  END
$$$$
default_name
  -OEChem-01062215323D

 24 23  0     1  0  0  0  0  0999 V2000
   -2.8347   -3.7166    0.8034 H   0  0  0  0  0  0  0  0  0  0  0  0
   -2.7728   -2.7096    0.3954 C   0  0  0  0  0  0  0  0  0  0  0  0
   -3.4267   -2.0426    0.9524 H   0  0  0  0  0  0  0  0  0  0  0  0
   -3.0538   -2.7186   -0.6556 H   0  0  0  0  0  0  0  0  0  0  0  0
   -1.3498   -2.2206    0.5184 C   0  0  0  0  0  0  0  0  0  0  0  0
   -0.4997   -2.9426    1.0194 O   0  0  0  0  0  0  0  0  0  0  0  0
   -1.1198   -0.9926    0.0674 N   0  0  0  0  0  0  0  0  0  0  0  0
   -1.8978   -0.4486   -0.2716 H   0  0  0  0  0  0  0  0  0  0  0  0
    0.1693   -0.2866    0.0854 C   0  0  1  0  0  0  0  0  0  0  0  0
    0.2224    0.3814   -0.7760 H   0  0  0  0  0  0  0  0  0  0  0  0
    0.2641    0.5682    1.3678 C   0  0  0  0  0  0  0  0  0  0  0  0
    0.0353   -0.0638    2.2278 H   0  0  0  0  0  0  0  0  0  0  0  0
    1.2911    0.9228    1.4792 H   0  0  0  0  0  0  0  0  0  0  0  0
   -0.6937    1.7693    1.4059 C   0  0  0  0  0  0  0  0  0  0  0  0
   -1.0330    2.2995    0.3218 O   0  5  0  0  0  0  0  0  0  0  0  0
   -1.0663    2.1622    2.5323 O   0  0  0  0  0  0  0  0  0  0  0  0
    1.3252   -1.3080   -0.0228 C   0  0  0  0  0  0  0  0  0  0  0  0
    1.2796   -2.2200   -0.8569 O   0  0  0  0  0  0  0  0  0  0  0  0
    2.3693   -1.1586    0.7984 N   0  0  0  0  0  0  0  0  0  0  0  0
    2.2751   -0.4305    1.5090 H   0  0  0  0  0  0  0  0  0  0  0  0
    3.5350   -2.0348    0.8453 C   0  0  0  0  0  0  0  0  0  0  0  0
    3.8743   -2.2503   -0.1687 H   0  0  0  0  0  0  0  0  0  0  0  0
    4.3348   -1.5495    1.4042 H   0  0  0  0  0  0  0  0  0  0  0  0
    3.2629   -2.9689    1.3371 H   0  0  0  0  0  0  0  0  0  0  0  0
  5  6  2  0  0  0  0
  5  7  1  0  0  0  0
  2  3  1  0  0  0  0
  2  4  1  0  0  0  0
  2  5  1  0  0  0  0
  1  2  1  0  0  0  0
 17 18  2  0  0  0  0
 17 19  1  0  0  0  0
 14 15  1  0  0  0  0
 14 16  2  0  0  0  0
 11 12  1  0  0  0  0
 11 13  1  0  0  0  0
 11 14  1  0  0  0  0
  9 10  1  0  0  0  0
  9 11  1  0  0  0  0
  9 17  1  0  0  0  0
  7  8  1  0  0  0  0
  7  9  1  0  0  0  0
 21 22  1  0  0  0  0
 21 23  1  0  0  0  0
 21 24  1  0  0  0  0
 19 20  1  0  0  0  0
 19 21  1  0  0  0  0
M  CHG  1  15  -1
M  END
$$$$
default_name
  -OEChem-01062215323D

 24 23  0     1  0  0  0  0  0999 V2000
   -2.8347   -3.7166    0.8034 H   0  0  0  0  0  0  0  0  0  0  0  0
   -2.7728   -2.7096    0.3954 C   0  0  0  0  0  0  0  0  0  0  0  0
   -3.4267   -2.0426    0.9524 H   0  0  0  0  0  0  0  0  0  0  0  0
   -3.0538   -2.7186   -0.6556 H   0  0  0  0  0  0  0  0  0  0  0  0
   -1.3498   -2.2206    0.5184 C   0  0  0  0  0  0  0  0  0  0  0  0
   -0.4997   -2.9426    1.0194 O   0  0  0  0  0  0  0  0  0  0  0  0
   -1.1198   -0.9926    0.0674 N   0  0  0  0  0  0  0  0  0  0  0  0
   -1.8978   -0.4486   -0.2716 H   0  0  0  0  0  0  0  0  0  0  0  0
    0.1693   -0.2866    0.0854 C   0  0  1  0  0  0  0  0  0  0  0  0
    0.2224    0.3814   -0.7760 H   0  0  0  0  0  0  0  0  0  0  0  0
    0.2641    0.5682    1.3678 C   0  0  0  0  0  0  0  0  0  0  0  0
    0.0353   -0.0638    2.2278 H   0  0  0  0  0  0  0  0  0  0  0  0
    1.2911    0.9228    1.4792 H   0  0  0  0  0  0  0  0  0  0  0  0
   -0.6937    1.7693    1.4059 C   0  0  0  0  0  0  0  0  0  0  0  0
   -1.0330    2.2995    0.3218 O   0  5  0  0  0  0  0  0  0  0  0  0
   -1.0663    2.1622    2.5323 O   0  0  0  0  0  0  0  0  0  0  0  0
    1.3252   -1.3080   -0.0228 C   0  0  0  0  0  0  0  0  0  0  0  0
    1.4231   -2.0408   -1.0142 O   0  0  0  0  0  0  0  0  0  0  0  0
    2.2119   -1.3556    0.9763 N   0  0  0  0  0  0  0  0  0  0  0  0
    1.9974   -0.7745    1.7890 H   0  0  0  0  0  0  0  0  0  0  0  0
    3.3509   -2.2646    1.0479 C   0  0  0  0  0  0  0  0  0  0  0  0
    3.8600   -2.2933    0.0837 H   0  0  0  0  0  0  0  0  0  0  0  0
    4.0427   -1.9239    1.8178 H   0  0  0  0  0  0  0  0  0  0  0  0
    2.9967   -3.2656    1.2948 H   0  0  0  0  0  0  0  0  0  0  0  0
  5  6  2  0  0  0  0
  5  7  1  0  0  0  0
  2  3  1  0  0  0  0
  2  4  1  0  0  0  0
  2  5  1  0  0  0  0
  1  2  1  0  0  0  0
 17 18  2  0  0  0  0
 17 19  1  0  0  0  0
 14 15  1  0  0  0  0
 14 16  2  0  0  0  0
 11 12  1  0  0  0  0
 11 13  1  0  0  0  0
 11 14  1  0  0  0  0
  9 10  1  0  0  0  0
  9 11  1  0  0  0  0
  9 17  1  0  0  0  0
  7  8  1  0  0  0  0
  7  9  1  0  0  0  0
 21 22  1  0  0  0  0
 21 23  1  0  0  0  0
 21 24  1  0  0  0  0
 19 20  1  0  0  0  0
 19 21  1  0  0  0  0
M  CHG  1  15  -1
M  END
$$$$
default_name
  -OEChem-01062215323D

 24 23  0     1  0  0  0  0  0999 V2000
   -2.8347   -3.7166    0.8034 H   0  0  0  0  0  0  0  0  0  0  0  0
   -2.7728   -2.7096    0.3954 C   0  0  0  0  0  0  0  0  0  0  0  0
   -3.4267   -2.0426    0.9524 H   0  0  0  0  0  0  0  0  0  0  0  0
   -3.0538   -2.7186   -0.6556 H   0  0  0  0  0  0  0  0  0  0  0  0
   -1.3498   -2.2206    0.5184 C   0  0  0  0  0  0  0  0  0  0  0  0
   -0.4997   -2.9426    1.0194 O   0  0  0  0  0  0  0  0  0  0  0  0
   -1.1198   -0.9926    0.0674 N   0  0  0  0  0  0  0  0  0  0  0  0
   -1.8978   -0.4486   -0.2716 H   0  0  0  0  0  0  0  0  0  0  0  0
    0.1693   -0.2866    0.0854 C   0  0  1  0  0  0  0  0  0  0  0  0
    0.2224    0.3814   -0.7760 H   0  0  0  0  0  0  0  0  0  0  0  0
    0.2641    0.5682    1.3678 C   0  0  0  0  0  0  0  0  0  0  0  0
    0.0353   -0.0638    2.2278 H   0  0  0  0  0  0  0  0  0  0  0  0
    1.2911    0.9228    1.4792 H   0  0  0  0  0  0  0  0  0  0  0  0
   -0.6937    1.7693    1.4059 C   0  0  0  0  0  0  0  0  0  0  0  0
   -1.0330    2.2995    0.3218 O   0  5  0  0  0  0  0  0  0  0  0  0
   -1.0663    2.1622    2.5323 O   0  0  0  0  0  0  0  0  0  0  0  0
    1.3252   -1.3080   -0.0228 C   0  0  0  0  0  0  0  0  0  0  0  0
    1.5920   -1.8399   -1.1070 O   0  0  0  0  0  0  0  0  0  0  0  0
    2.0259   -1.5774    1.0832 N   0  0  0  0  0  0  0  0  0  0  0  0
    1.6750   -1.1560    1.9453 H   0  0  0  0  0  0  0  0  0  0  0  0
    3.1342   -2.5225    1.1677 C   0  0  0  0  0  0  0  0  0  0  0  0
    3.8022   -2.3834    0.3167 H   0  0  0  0  0  0  0  0  0  0  0  0
    3.6831   -2.3603    2.0950 H   0  0  0  0  0  0  0  0  0  0  0  0
    2.7414   -3.5393    1.1510 H   0  0  0  0  0  0  0  0  0  0  0  0
  5  6  2  0  0  0  0
  5  7  1  0  0  0  0
  2  3  1  0  0  0  0
  2  4  1  0  0  0  0
  2  5  1  0  0  0  0
  1  2  1  0  0  0  0
 17 18  2  0  0  0  0
 17 19  1  0  0  0  0
 14 15  1  0  0  0  0
 14 16  2  0  0  0  0
 11 12  1  0  0  0  0
 11 13  1  0  0  0  0
 11 14  1  0  0  0  0
  9 10  1  0  0  0  0
  9 11  1  0  0  0  0
  9 17  1  0  0  0  0
  7  8  1  0  0  0  0
  7  9  1  0  0  0  0
 21 22  1  0  0  0  0
 21 23  1  0  0  0  0
 21 24  1  0  0  0  0
 19 20  1  0  0  0  0
 19 21  1  0  0  0  0
M  CHG  1  15  -1
M  END
$$$$
default_name
  -OEChem-01062215323D

 24 23  0     1  0  0  0  0  0999 V2000
   -2.8347   -3.7166    0.8034 H   0  0  0  0  0  0  0  0  0  0  0  0
   -2.7728   -2.7096    0.3954 C   0  0  0  0  0  0  0  0  0  0  0  0
   -3.4267   -2.0426    0.9524 H   0  0  0  0  0  0  0  0  0  0  0  0
   -3.0538   -2.7186   -0.6556 H   0  0  0  0  0  0  0  0  0  0  0  0
   -1.3498   -2.2206    0.5184 C   0  0  0  0  0  0  0  0  0  0  0  0
   -0.4997   -2.9426    1.0194 O   0  0  0  0  0  0  0  0  0  0  0  0
   -1.1198   -0.9926    0.0674 N   0  0  0  0  0  0  0  0  0  0  0  0
   -1.8978   -0.4486   -0.2716 H   0  0  0  0  0  0  0  0  0  0  0  0
    0.1693   -0.2866    0.0854 C   0  0  1  0  0  0  0  0  0  0  0  0
    0.2224    0.3814   -0.7760 H   0  0  0  0  0  0  0  0  0  0  0  0
    0.2641    0.5682    1.3678 C   0  0  0  0  0  0  0  0  0  0  0  0
    0.0353   -0.0638    2.2278 H   0  0  0  0  0  0  0  0  0  0  0  0
    1.2911    0.9228    1.4792 H   0  0  0  0  0  0  0  0  0  0  0  0
   -0.6937    1.7693    1.4059 C   0  0  0  0  0  0  0  0  0  0  0  0
   -1.0330    2.2995    0.3218 O   0  5  0  0  0  0  0  0  0  0  0  0
   -1.0663    2.1622    2.5323 O   0  0  0  0  0  0  0  0  0  0  0  0
    1.3252   -1.3080   -0.0228 C   0  0  0  0  0  0  0  0  0  0  0  0
    1.7745   -1.6309   -1.1289 O   0  0  0  0  0  0  0  0  0  0  0  0
    1.8240   -1.8089    1.1116 N   0  0  0  0  0  0  0  0  0  0  0  0
    1.3300   -1.5488    1.9674 H   0  0  0  0  0  0  0  0  0  0  0  0
    2.8998   -2.7909    1.1965 C   0  0  0  0  0  0  0  0  0  0  0  0
    3.7049   -2.5144    0.5144 H   0  0  0  0  0  0  0  0  0  0  0  0
    3.2805   -2.8289    2.2168 H   0  0  0  0  0  0  0  0  0  0  0  0
    2.5145   -3.7712    0.9156 H   0  0  0  0  0  0  0  0  0  0  0  0
  5  6  2  0  0  0  0
  5  7  1  0  0  0  0
  2  3  1  0  0  0  0
  2  4  1  0  0  0  0
  2  5  1  0  0  0  0
  1  2  1  0  0  0  0
 17 18  2  0  0  0  0
 17 19  1  0  0  0  0
 14 15  1  0  0  0  0
 14 16  2  0  0  0  0
 11 12  1  0  0  0  0
 11 13  1  0  0  0  0
 11 14  1  0  0  0  0
  9 10  1  0  0  0  0
  9 11  1  0  0  0  0
  9 17  1  0  0  0  0
  7  8  1  0  0  0  0
  7  9  1  0  0  0  0
 21 22  1  0  0  0  0
 21 23  1  0  0  0  0
 21 24  1  0  0  0  0
 19 20  1  0  0  0  0
 19 21  1  0  0  0  0
M  CHG  1  15  -1
M  END
$$$$
default_name
  -OEChem-01062215323D

 24 23  0     1  0  0  0  0  0999 V2000
   -2.8347   -3.7166    0.8034 H   0  0  0  0  0  0  0  0  0  0  0  0
   -2.7728   -2.7096    0.3954 C   0  0  0  0  0  0  0  0  0  0  0  0
   -3.4267   -2.0426    0.9524 H   0  0  0  0  0  0  0  0  0  0  0  0
   -3.0538   -2.7186   -0.6556 H   0  0  0  0  0  0  0  0  0  0  0  0
   -1.3498   -2.2206    0.5184 C   0  0  0  0  0  0  0  0  0  0  0  0
   -0.4997   -2.9426    1.0194 O   0  0  0  0  0  0  0  0  0  0  0  0
   -1.1198   -0.9926    0.0674 N   0  0  0  0  0  0  0  0  0  0  0  0
   -1.8978   -0.4486   -0.2716 H   0  0  0  0  0  0  0  0  0  0  0  0
    0.1693   -0.2866    0.0854 C   0  0  1  0  0  0  0  0  0  0  0  0
    0.2224    0.3814   -0.7760 H   0  0  0  0  0  0  0  0  0  0  0  0
    0.2641    0.5682    1.3678 C   0  0  0  0  0  0  0  0  0  0  0  0
    0.0353   -0.0638    2.2278 H   0  0  0  0  0  0  0  0  0  0  0  0
    1.2911    0.9228    1.4792 H   0  0  0  0  0  0  0  0  0  0  0  0
   -0.6937    1.7693    1.4059 C   0  0  0  0  0  0  0  0  0  0  0  0
   -1.0330    2.2995    0.3218 O   0  5  0  0  0  0  0  0  0  0  0  0
   -1.0663    2.1622    2.5323 O   0  0  0  0  0  0  0  0  0  0  0  0
    1.3252   -1.3080   -0.0228 C   0  0  0  0  0  0  0  0  0  0  0  0
    1.9584   -1.4282   -1.0783 O   0  0  0  0  0  0  0  0  0  0  0  0
    1.6199   -2.0345    1.0598 N   0  0  0  0  0  0  0  0  0  0  0  0
    0.9858   -1.9263    1.8537 H   0  0  0  0  0  0  0  0  0  0  0  0
    2.6636   -3.0514    1.1323 C   0  0  0  0  0  0  0  0  0  0  0  0
    3.5748   -2.6775    0.6635 H   0  0  0  0  0  0  0  0  0  0  0  0
    2.8623   -3.2978    2.1750 H   0  0  0  0  0  0  0  0  0  0  0  0
    2.3313   -3.9455    0.6045 H   0  0  0  0  0  0  0  0  0  0  0  0
  5  6  2  0  0  0  0
  5  7  1  0  0  0  0
  2  3  1  0  0  0  0
  2  4  1  0  0  0  0
  2  5  1  0  0  0  0
  1  2  1  0  0  0  0
 17 18  2  0  0  0  0
 17 19  1  0  0  0  0
 14 15  1  0  0  0  0
 14 16  2  0  0  0  0
 11 12  1  0  0  0  0
 11 13  1  0  0  0  0
 11 14  1  0  0  0  0
  9 10  1  0  0  0  0
  9 11  1  0  0  0  0
  9 17  1  0  0  0  0
  7  8  1  0  0  0  0
  7  9  1  0  0  0  0
 21 22  1  0  0  0  0
 21 23  1  0  0  0  0
 21 24  1  0  0  0  0
 19 20  1  0  0  0  0
 19 21  1  0  0  0  0
M  CHG  1  15  -1
M  END
$$$$
default_name
  -OEChem-01062215323D

 24 23  0     1  0  0  0  0  0999 V2000
   -2.8347   -3.7166    0.8034 H   0  0  0  0  0  0  0  0  0  0  0  0
   -2.7728   -2.7096    0.3954 C   0  0  0  0  0  0  0  0  0  0  0  0
   -3.4267   -2.0426    0.9524 H   0  0  0  0  0  0  0  0  0  0  0  0
   -3.0538   -2.7186   -0.6556 H   0  0  0  0  0  0  0  0  0  0  0  0
   -1.3498   -2.2206    0.5184 C   0  0  0  0  0  0  0  0  0  0  0  0
   -0.4997   -2.9426    1.0194 O   0  0  0  0  0  0  0  0  0  0  0  0
   -1.1198   -0.9926    0.0674 N   0  0  0  0  0  0  0  0  0  0  0  0
   -1.8978   -0.4486   -0.2716 H   0  0  0  0  0  0  0  0  0  0  0  0
    0.1693   -0.2866    0.0854 C   0  0  1  0  0  0  0  0  0  0  0  0
    0.2224    0.3814   -0.7760 H   0  0  0  0  0  0  0  0  0  0  0  0
    0.2641    0.5682    1.3678 C   0  0  0  0  0  0  0  0  0  0  0  0
    0.0353   -0.0638    2.2278 H   0  0  0  0  0  0  0  0  0  0  0  0
    1.2911    0.9228    1.4792 H   0  0  0  0  0  0  0  0  0  0  0  0
   -0.6937    1.7693    1.4059 C   0  0  0  0  0  0  0  0  0  0  0  0
   -1.0330    2.2995    0.3218 O   0  5  0  0  0  0  0  0  0  0  0  0
   -1.0663    2.1622    2.5323 O   0  0  0  0  0  0  0  0  0  0  0  0
    1.3252   -1.3080   -0.0228 C   0  0  0  0  0  0  0  0  0  0  0  0
    2.1311   -1.2454   -0.9589 O   0  0  0  0  0  0  0  0  0  0  0  0
    1.4275   -2.2386    0.9313 N   0  0  0  0  0  0  0  0  0  0  0  0
    0.6660   -2.2626    1.6121 H   0  0  0  0  0  0  0  0  0  0  0  0
    2.4417   -3.2863    0.9795 C   0  0  0  0  0  0  0  0  0  0  0  0
    3.4207   -2.8615    0.7536 H   0  0  0  0  0  0  0  0  0  0  0  0
    2.4570   -3.7350    1.9723 H   0  0  0  0  0  0  0  0  0  0  0  0
    2.2044   -4.0504    0.2389 H   0  0  0  0  0  0  0  0  0  0  0  0
  5  6  2  0  0  0  0
  5  7  1  0  0  0  0
  2  3  1  0  0  0  0
  2  4  1  0  0  0  0
  2  5  1  0  0  0  0
  1  2  1  0  0  0  0
 17 18  2  0  0  0  0
 17 19  1  0  0  0  0
 14 15  1  0  0  0  0
 14 16  2  0  0  0  0
 11 12  1  0  0  0  0
 11 13  1  0  0  0  0
 11 14  1  0  0  0  0
  9 10  1  0  0  0  0
  9 11  1  0  0  0  0
  9 17  1  0  0  0  0
  7  8  1  0  0  0  0
  7  9  1  0  0  0  0
 21 22  1  0  0  0  0
 21 23  1  0  0  0  0
 21 24  1  0  0  0  0
 19 20  1  0  0  0  0
 19 21  1  0  0  0  0
M  CHG  1  15  -1
M  END
$$$$
default_name
  -OEChem-01062215323D

 24 23  0     1  0  0  0  0  0999 V2000
   -2.8347   -3.7166    0.8034 H   0  0  0  0  0  0  0  0  0  0  0  0
   -2.7728   -2.7096    0.3954 C   0  0  0  0  0  0  0  0  0  0  0  0
   -3.4267   -2.0426    0.9524 H   0  0  0  0  0  0  0  0  0  0  0  0
   -3.0538   -2.7186   -0.6556 H   0  0  0  0  0  0  0  0  0  0  0  0
   -1.3498   -2.2206    0.5184 C   0  0  0  0  0  0  0  0  0  0  0  0
   -0.4997   -2.9426    1.0194 O   0  0  0  0  0  0  0  0  0  0  0  0
   -1.1198   -0.9926    0.0674 N   0  0  0  0  0  0  0  0  0  0  0  0
   -1.8978   -0.4486   -0.2716 H   0  0  0  0  0  0  0  0  0  0  0  0
    0.1693   -0.2866    0.0854 C   0  0  1  0  0  0  0  0  0  0  0  0
    0.2224    0.3814   -0.7760 H   0  0  0  0  0  0  0  0  0  0  0  0
    0.2641    0.5682    1.3678 C   0  0  0  0  0  0  0  0  0  0  0  0
    0.0353   -0.0638    2.2278 H   0  0  0  0  0  0  0  0  0  0  0  0
    1.2911    0.9228    1.4792 H   0  0  0  0  0  0  0  0  0  0  0  0
   -0.6937    1.7693    1.4059 C   0  0  0  0  0  0  0  0  0  0  0  0
   -1.0330    2.2995    0.3218 O   0  5  0  0  0  0  0  0  0  0  0  0
   -1.0663    2.1622    2.5323 O   0  0  0  0  0  0  0  0  0  0  0  0
    1.3252   -1.3080   -0.0228 C   0  0  0  0  0  0  0  0  0  0  0  0
    2.2807   -1.0952   -0.7786 O   0  0  0  0  0  0  0  0  0  0  0  0
    1.2600   -2.4074    0.7347 N   0  0  0  0  0  0  0  0  0  0  0  0
    0.3923   -2.5350    1.2589 H   0  0  0  0  0  0  0  0  0  0  0  0
    2.2493   -3.4797    0.7485 C   0  0  0  0  0  0  0  0  0  0  0  0
    3.2530   -3.0539    0.7787 H   0  0  0  0  0  0  0  0  0  0  0  0
    2.0922   -4.1108    1.6227 H   0  0  0  0  0  0  0  0  0  0  0  0
    2.1425   -4.0787   -0.1561 H   0  0  0  0  0  0  0  0  0  0  0  0
  5  6  2  0  0  0  0
  5  7  1  0  0  0  0
  2  3  1  0  0  0  0
  2  4  1  0  0  0  0
  2  5  1  0  0  0  0
  1  2  1  0  0  0  0
 17 18  2  0  0  0  0
 17 19  1  0  0  0  0
 14 15  1  0  0  0  0
 14 16  2  0  0  0  0
 11 12  1  0  0  0  0
 11 13  1  0  0  0  0
 11 14  1  0  0  0  0
  9 10  1  0  0  0  0
  9 11  1  0  0  0  0
  9 17  1  0  0  0  0
  7  8  1  0  0  0  0
  7  9  1  0  0  0  0
 21 22  1  0  0  0  0
 21 23  1  0  0  0  0
 21 24  1  0  0  0  0
 19 20  1  0  0  0  0
 19 21  1  0  0  0  0
M  CHG  1  15  -1
M  END
$$$$
default_name
  -OEChem-01062215323D

 24 23  0     1  0  0  0  0  0999 V2000
   -2.8347   -3.7166    0.8034 H   0  0  0  0  0  0  0  0  0  0  0  0
   -2.7728   -2.7096    0.3954 C   0  0  0  0  0  0  0  0  0  0  0  0
   -3.4267   -2.0426    0.9524 H   0  0  0  0  0  0  0  0  0  0  0  0
   -3.0538   -2.7186   -0.6556 H   0  0  0  0  0  0  0  0  0  0  0  0
   -1.3498   -2.2206    0.5184 C   0  0  0  0  0  0  0  0  0  0  0  0
   -0.4997   -2.9426    1.0194 O   0  0  0  0  0  0  0  0  0  0  0  0
   -1.1198   -0.9926    0.0674 N   0  0  0  0  0  0  0  0  0  0  0  0
   -1.8978   -0.4486   -0.2716 H   0  0  0  0  0  0  0  0  0  0  0  0
    0.1693   -0.2866    0.0854 C   0  0  1  0  0  0  0  0  0  0  0  0
    0.2224    0.3814   -0.7760 H   0  0  0  0  0  0  0  0  0  0  0  0
    0.2641    0.5682    1.3678 C   0  0  0  0  0  0  0  0  0  0  0  0
    0.0353   -0.0638    2.2278 H   0  0  0  0  0  0  0  0  0  0  0  0
    1.2911    0.9228    1.4792 H   0  0  0  0  0  0  0  0  0  0  0  0
   -0.6937    1.7693    1.4059 C   0  0  0  0  0  0  0  0  0  0  0  0
   -1.0330    2.2995    0.3218 O   0  5  0  0  0  0  0  0  0  0  0  0
   -1.0663    2.1622    2.5323 O   0  0  0  0  0  0  0  0  0  0  0  0
    1.3252   -1.3080   -0.0228 C   0  0  0  0  0  0  0  0  0  0  0  0
    2.3972   -0.9876   -0.5498 O   0  0  0  0  0  0  0  0  0  0  0  0
    1.1287   -2.5293    0.4835 N   0  0  0  0  0  0  0  0  0  0  0  0
    0.1833   -2.7248    0.8183 H   0  0  0  0  0  0  0  0  0  0  0  0
    2.0993   -3.6183    0.4550 C   0  0  0  0  0  0  0  0  0  0  0  0
    3.0833   -3.2415    0.7371 H   0  0  0  0  0  0  0  0  0  0  0  0
    1.7928   -4.3996    1.1500 H   0  0  0  0  0  0  0  0  0  0  0  0
    2.1496   -4.0284   -0.5538 H   0  0  0  0  0  0  0  0  0  0  0  0
  5  6  2  0  0  0  0
  5  7  1  0  0  0  0
  2  3  1  0  0  0  0
  2  4  1  0  0  0  0
  2  5  1  0  0  0  0
  1  2  1  0  0  0  0
 17 18  2  0  0  0  0
 17 19  1  0  0  0  0
 14 15  1  0  0  0  0
 14 16  2  0  0  0  0
 11 12  1  0  0  0  0
 11 13  1  0  0  0  0
 11 14  1  0  0  0  0
  9 10  1  0  0  0  0
  9 11  1  0  0  0  0
  9 17  1  0  0  0  0
  7  8  1  0  0  0  0
  7  9  1  0  0  0  0
 21 22  1  0  0  0  0
 21 23  1  0  0  0  0
 21 24  1  0  0  0  0
 19 20  1  0  0  0  0
 19 21  1  0  0  0  0
M  CHG  1  15  -1
M  END
$$$$
default_name
  -OEChem-01062215323D

 24 23  0     1  0  0  0  0  0999 V2000
   -2.8347   -3.7166    0.8034 H   0  0  0  0  0  0  0  0  0  0  0  0
   -2.7728   -2.7096    0.3954 C   0  0  0  0  0  0  0  0  0  0  0  0
   -3.4267   -2.0426    0.9524 H   0  0  0  0  0  0  0  0  0  0  0  0
   -3.0538   -2.7186   -0.6556 H   0  0  0  0  0  0  0  0  0  0  0  0
   -1.3498   -2.2206    0.5184 C   0  0  0  0  0  0  0  0  0  0  0  0
   -0.4997   -2.9426    1.0194 O   0  0  0  0  0  0  0  0  0  0  0  0
   -1.1198   -0.9926    0.0674 N   0  0  0  0  0  0  0  0  0  0  0  0
   -1.8978   -0.4486   -0.2716 H   0  0  0  0  0  0  0  0  0  0  0  0
    0.1693   -0.2866    0.0854 C   0  0  1  0  0  0  0  0  0  0  0  0
    0.2224    0.3814   -0.7760 H   0  0  0  0  0  0  0  0  0  0  0  0
    0.2641    0.5682    1.3678 C   0  0  0  0  0  0  0  0  0  0  0  0
    0.0353   -0.0638    2.2278 H   0  0  0  0  0  0  0  0  0  0  0  0
    1.2911    0.9228    1.4792 H   0  0  0  0  0  0  0  0  0  0  0  0
   -0.6937    1.7693    1.4059 C   0  0  0  0  0  0  0  0  0  0  0  0
   -1.0330    2.2995    0.3218 O   0  5  0  0  0  0  0  0  0  0  0  0
   -1.0663    2.1622    2.5323 O   0  0  0  0  0  0  0  0  0  0  0  0
    1.3252   -1.3080   -0.0228 C   0  0  0  0  0  0  0  0  0  0  0  0
    2.4725   -0.9301   -0.2881 O   0  0  0  0  0  0  0  0  0  0  0  0
    1.0426   -2.5962    0.1949 N   0  0  0  0  0  0  0  0  0  0  0  0
    0.0533   -2.8191    0.3202 H   0  0  0  0  0  0  0  0  0  0  0  0
    2.0022   -3.6926    0.1191 C   0  0  0  0  0  0  0  0  0  0  0  0
    2.9231   -3.4117    0.6316 H   0  0  0  0  0  0  0  0  0  0  0  0
    1.5792   -4.5816    0.5863 H   0  0  0  0  0  0  0  0  0  0  0  0
    2.2254   -3.9031   -0.9270 H   0  0  0  0  0  0  0  0  0  0  0  0
  5  6  2  0  0  0  0
  5  7  1  0  0  0  0
  2  3  1  0  0  0  0
  2  4  1  0  0  0  0
  2  5  1  0  0  0  0
  1  2  1  0  0  0  0
 17 18  2  0  0  0  0
 17 19  1  0  0  0  0
 14 15  1  0  0  0  0
 14 16  2  0  0  0  0
 11 12  1  0  0  0  0
 11 13  1  0  0  0  0
 11 14  1  0  0  0  0
  9 10  1  0  0  0  0
  9 11  1  0  0  0  0
  9 17  1  0  0  0  0
  7  8  1  0  0  0  0
  7  9  1  0  0  0  0
 21 22  1  0  0  0  0
 21 23  1  0  0  0  0
 21 24  1  0  0  0  0
 19 20  1  0  0  0  0
 19 21  1  0  0  0  0
M  CHG  1  15  -1
M  END
$$$$
default_name
  -OEChem-01062215323D

 24 23  0     1  0  0  0  0  0999 V2000
   -2.8347   -3.7166    0.8034 H   0  0  0  0  0  0  0  0  0  0  0  0
   -2.7728   -2.7096    0.3954 C   0  0  0  0  0  0  0  0  0  0  0  0
   -3.4267   -2.0426    0.9524 H   0  0  0  0  0  0  0  0  0  0  0  0
   -3.0538   -2.7186   -0.6556 H   0  0  0  0  0  0  0  0  0  0  0  0
   -1.3498   -2.2206    0.5184 C   0  0  0  0  0  0  0  0  0  0  0  0
   -0.4997   -2.9426    1.0194 O   0  0  0  0  0  0  0  0  0  0  0  0
   -1.1198   -0.9926    0.0674 N   0  0  0  0  0  0  0  0  0  0  0  0
   -1.8978   -0.4486   -0.2716 H   0  0  0  0  0  0  0  0  0  0  0  0
    0.1693   -0.2866    0.0854 C   0  0  1  0  0  0  0  0  0  0  0  0
    0.2224    0.3814   -0.7760 H   0  0  0  0  0  0  0  0  0  0  0  0
    0.2641    0.5682    1.3678 C   0  0  0  0  0  0  0  0  0  0  0  0
    0.0353   -0.0638    2.2278 H   0  0  0  0  0  0  0  0  0  0  0  0
    1.2911    0.9228    1.4792 H   0  0  0  0  0  0  0  0  0  0  0  0
   -0.6937    1.7693    1.4059 C   0  0  0  0  0  0  0  0  0  0  0  0
   -1.0330    2.2995    0.3218 O   0  5  0  0  0  0  0  0  0  0  0  0
   -1.0663    2.1622    2.5323 O   0  0  0  0  0  0  0  0  0  0  0  0
    1.3252   -1.3080   -0.0228 C   0  0  0  0  0  0  0  0  0  0  0  0
    2.5016   -0.9265   -0.0113 O   0  0  0  0  0  0  0  0  0  0  0  0
    1.0076   -2.6034   -0.1116 N   0  0  0  0  0  0  0  0  0  0  0  0
    0.0112   -2.8115   -0.2013 H   0  0  0  0  0  0  0  0  0  0  0  0
    1.9644   -3.6977   -0.2363 C   0  0  0  0  0  0  0  0  0  0  0  0
    2.7834   -3.5527    0.4694 H   0  0  0  0  0  0  0  0  0  0  0  0
    1.4659   -4.6445   -0.0300 H   0  0  0  0  0  0  0  0  0  0  0  0
    2.3647   -3.7112   -1.2502 H   0  0  0  0  0  0  0  0  0  0  0  0
  5  6  2  0  0  0  0
  5  7  1  0  0  0  0
  2  3  1  0  0  0  0
  2  4  1  0  0  0  0
  2  5  1  0  0  0  0
  1  2  1  0  0  0  0
 17 18  2  0  0  0  0
 17 19  1  0  0  0  0
 14 15  1  0  0  0  0
 14 16  2  0  0  0  0
 11 12  1  0  0  0  0
 11 13  1  0  0  0  0
 11 14  1  0  0  0  0
  9 10  1  0  0  0  0
  9 11  1  0  0  0  0
  9 17  1  0  0  0  0
  7  8  1  0  0  0  0
  7  9  1  0  0  0  0
 21 22  1  0  0  0  0
 21 23  1  0  0  0  0
 21 24  1  0  0  0  0
 19 20  1  0  0  0  0
 19 21  1  0  0  0  0
M  CHG  1  15  -1
M  END
$$$$
default_name
  -OEChem-01062215323D

 24 23  0     1  0  0  0  0  0999 V2000
   -2.8347   -3.7166    0.8034 H   0  0  0  0  0  0  0  0  0  0  0  0
   -2.7728   -2.7096    0.3954 C   0  0  0  0  0  0  0  0  0  0  0  0
   -3.4267   -2.0426    0.9524 H   0  0  0  0  0  0  0  0  0  0  0  0
   -3.0538   -2.7186   -0.6556 H   0  0  0  0  0  0  0  0  0  0  0  0
   -1.3498   -2.2206    0.5184 C   0  0  0  0  0  0  0  0  0  0  0  0
   -0.4997   -2.9426    1.0194 O   0  0  0  0  0  0  0  0  0  0  0  0
   -1.1198   -0.9926    0.0674 N   0  0  0  0  0  0  0  0  0  0  0  0
   -1.8978   -0.4486   -0.2716 H   0  0  0  0  0  0  0  0  0  0  0  0
    0.1693   -0.2866    0.0854 C   0  0  1  0  0  0  0  0  0  0  0  0
    0.2224    0.3814   -0.7760 H   0  0  0  0  0  0  0  0  0  0  0  0
    0.2641    0.5682    1.3678 C   0  0  0  0  0  0  0  0  0  0  0  0
    0.0353   -0.0638    2.2278 H   0  0  0  0  0  0  0  0  0  0  0  0
    1.2911    0.9228    1.4792 H   0  0  0  0  0  0  0  0  0  0  0  0
   -0.6937    1.7693    1.4059 C   0  0  0  0  0  0  0  0  0  0  0  0
   -1.0330    2.2995    0.3218 O   0  5  0  0  0  0  0  0  0  0  0  0
   -1.0663    2.1622    2.5323 O   0  0  0  0  0  0  0  0  0  0  0  0
    1.3252   -1.3080   -0.0228 C   0  0  0  0  0  0  0  0  0  0  0  0
    2.4824   -0.9771    0.2617 O   0  0  0  0  0  0  0  0  0  0  0  0
    1.0260   -2.5503   -0.4150 N   0  0  0  0  0  0  0  0  0  0  0  0
    0.0599   -2.7024   -0.7108 H   0  0  0  0  0  0  0  0  0  0  0  0
    1.9886   -3.6332   -0.5871 C   0  0  0  0  0  0  0  0  0  0  0  0
    2.6735   -3.6550    0.2616 H   0  0  0  0  0  0  0  0  0  0  0  0
    1.4607   -4.5839   -0.6567 H   0  0  0  0  0  0  0  0  0  0  0  0
    2.5580   -3.4658   -1.5015 H   0  0  0  0  0  0  0  0  0  0  0  0
  5  6  2  0  0  0  0
  5  7  1  0  0  0  0
  2  3  1  0  0  0  0
  2  4  1  0  0  0  0
  2  5  1  0  0  0  0
  1  2  1  0  0  0  0
 17 18  2  0  0  0  0
 17 19  1  0  0  0  0
 14 15  1  0  0  0  0
 14 16  2  0  0  0  0
 11 12  1  0  0  0  0
 11 13  1  0  0  0  0
 11 14  1  0  0  0  0
  9 10  1  0  0  0  0
  9 11  1  0  0  0  0
  9 17  1  0  0  0  0
  7  8  1  0  0  0  0
  7  9  1  0  0  0  0
 21 22  1  0  0  0  0
 21 23  1  0  0  0  0
 21 24  1  0  0  0  0
 19 20  1  0  0  0  0
 19 21  1  0  0  0  0
M  CHG  1  15  -1
M  END
$$$$
default_name
  -OEChem-01062215323D

 24 23  0     1  0  0  0  0  0999 V2000
   -2.8347   -3.7166    0.8034 H   0  0  0  0  0  0  0  0  0  0  0  0
   -2.7728   -2.7096    0.3954 C   0  0  0  0  0  0  0  0  0  0  0  0
   -3.4267   -2.0426    0.9524 H   0  0  0  0  0  0  0  0  0  0  0  0
   -3.0538   -2.7186   -0.6556 H   0  0  0  0  0  0  0  0  0  0  0  0
   -1.3498   -2.2206    0.5184 C   0  0  0  0  0  0  0  0  0  0  0  0
   -0.4997   -2.9426    1.0194 O   0  0  0  0  0  0  0  0  0  0  0  0
   -1.1198   -0.9926    0.0674 N   0  0  0  0  0  0  0  0  0  0  0  0
   -1.8978   -0.4486   -0.2716 H   0  0  0  0  0  0  0  0  0  0  0  0
    0.1693   -0.2866    0.0854 C   0  0  1  0  0  0  0  0  0  0  0  0
    0.2224    0.3814   -0.7760 H   0  0  0  0  0  0  0  0  0  0  0  0
    0.2641    0.5682    1.3678 C   0  0  0  0  0  0  0  0  0  0  0  0
    0.0353   -0.0638    2.2278 H   0  0  0  0  0  0  0  0  0  0  0  0
    1.2911    0.9228    1.4792 H   0  0  0  0  0  0  0  0  0  0  0  0
   -0.6937    1.7693    1.4059 C   0  0  0  0  0  0  0  0  0  0  0  0
   -1.0330    2.2995    0.3218 O   0  5  0  0  0  0  0  0  0  0  0  0
   -1.0663    2.1622    2.5323 O   0  0  0  0  0  0  0  0  0  0  0  0
    1.3252   -1.3080   -0.0228 C   0  0  0  0  0  0  0  0  0  0  0  0
    2.4163   -1.0785    0.5123 O   0  0  0  0  0  0  0  0  0  0  0  0
    1.0966   -2.4408   -0.6946 N   0  0  0  0  0  0  0  0  0  0  0  0
    0.1959   -2.4994   -1.1735 H   0  0  0  0  0  0  0  0  0  0  0  0
    2.0731   -3.5034   -0.9093 C   0  0  0  0  0  0  0  0  0  0  0  0
    2.6011   -3.7116    0.0222 H   0  0  0  0  0  0  0  0  0  0  0  0
    1.5639   -4.4041   -1.2513 H   0  0  0  0  0  0  0  0  0  0  0  0
    2.7921   -3.1837   -1.6637 H   0  0  0  0  0  0  0  0  0  0  0  0
  5  6  2  0  0  0  0
  5  7  1  0  0  0  0
  2  3  1  0  0  0  0
  2  4  1  0  0  0  0
  2  5  1  0  0  0  0
  1  2  1  0  0  0  0
 17 18  2  0  0  0  0
 17 19  1  0  0  0  0
 14 15  1  0  0  0  0
 14 16  2  0  0  0  0
 11 12  1  0  0  0  0
 11 13  1  0  0  0  0
 11 14  1  0  0  0  0
  9 10  1  0  0  0  0
  9 11  1  0  0  0  0
  9 17  1  0  0  0  0
  7  8  1  0  0  0  0
  7  9  1  0  0  0  0
 21 22  1  0  0  0  0
 21 23  1  0  0  0  0
 21 24  1  0  0  0  0
 19 20  1  0  0  0  0
 19 21  1  0  0  0  0
M  CHG  1  15  -1
M  END
$$$$
default_name
  -OEChem-01062215323D

 24 23  0     1  0  0  0  0  0999 V2000
   -2.8347   -3.7166    0.8034 H   0  0  0  0  0  0  0  0  0  0  0  0
   -2.7728   -2.7096    0.3954 C   0  0  0  0  0  0  0  0  0  0  0  0
   -3.4267   -2.0426    0.9524 H   0  0  0  0  0  0  0  0  0  0  0  0
   -3.0538   -2.7186   -0.6556 H   0  0  0  0  0  0  0  0  0  0  0  0
   -1.3498   -2.2206    0.5184 C   0  0  0  0  0  0  0  0  0  0  0  0
   -0.4997   -2.9426    1.0194 O   0  0  0  0  0  0  0  0  0  0  0  0
   -1.1198   -0.9926    0.0674 N   0  0  0  0  0  0  0  0  0  0  0  0
   -1.8978   -0.4486   -0.2716 H   0  0  0  0  0  0  0  0  0  0  0  0
    0.1693   -0.2866    0.0854 C   0  0  1  0  0  0  0  0  0  0  0  0
    0.2224    0.3814   -0.7760 H   0  0  0  0  0  0  0  0  0  0  0  0
    0.2641    0.5682    1.3678 C   0  0  0  0  0  0  0  0  0  0  0  0
    0.0353   -0.0638    2.2278 H   0  0  0  0  0  0  0  0  0  0  0  0
    1.2911    0.9228    1.4792 H   0  0  0  0  0  0  0  0  0  0  0  0
   -0.6937    1.7693    1.4059 C   0  0  0  0  0  0  0  0  0  0  0  0
   -1.0330    2.2995    0.3218 O   0  5  0  0  0  0  0  0  0  0  0  0
   -1.0663    2.1622    2.5323 O   0  0  0  0  0  0  0  0  0  0  0  0
    1.3252   -1.3080   -0.0228 C   0  0  0  0  0  0  0  0  0  0  0  0
    2.3078   -1.2238    0.7235 O   0  0  0  0  0  0  0  0  0  0  0  0
    1.2146   -2.2821   -0.9315 N   0  0  0  0  0  0  0  0  0  0  0  0
    0.4101   -2.2162   -1.5580 H   0  0  0  0  0  0  0  0  0  0  0  0
    2.2121   -3.3173   -1.1809 C   0  0  0  0  0  0  0  0  0  0  0  0
    2.5710   -3.7186   -0.2323 H   0  0  0  0  0  0  0  0  0  0  0  0
    1.7685   -4.1172   -1.7732 H   0  0  0  0  0  0  0  0  0  0  0  0
    3.0510   -2.8840   -1.7258 H   0  0  0  0  0  0  0  0  0  0  0  0
  5  6  2  0  0  0  0
  5  7  1  0  0  0  0
  2  3  1  0  0  0  0
  2  4  1  0  0  0  0
  2  5  1  0  0  0  0
  1  2  1  0  0  0  0
 17 18  2  0  0  0  0
 17 19  1  0  0  0  0
 14 15  1  0  0  0  0
 14 16  2  0  0  0  0
 11 12  1  0  0  0  0
 11 13  1  0  0  0  0
 11 14  1  0  0  0  0
  9 10  1  0  0  0  0
  9 11  1  0  0  0  0
  9 17  1  0  0  0  0
  7  8  1  0  0  0  0
  7  9  1  0  0  0  0
 21 22  1  0  0  0  0
 21 23  1  0  0  0  0
 21 24  1  0  0  0  0
 19 20  1  0  0  0  0
 19 21  1  0  0  0  0
M  CHG  1  15  -1
M  END
$$$$
default_name
  -OEChem-01062215323D

 24 23  0     1  0  0  0  0  0999 V2000
   -2.8347   -3.7166    0.8034 H   0  0  0  0  0  0  0  0  0  0  0  0
   -2.7728   -2.7096    0.3954 C   0  0  0  0  0  0  0  0  0  0  0  0
   -3.4267   -2.0426    0.9524 H   0  0  0  0  0  0  0  0  0  0  0  0
   -3.0538   -2.7186   -0.6556 H   0  0  0  0  0  0  0  0  0  0  0  0
   -1.3498   -2.2206    0.5184 C   0  0  0  0  0  0  0  0  0  0  0  0
   -0.4997   -2.9426    1.0194 O   0  0  0  0  0  0  0  0  0  0  0  0
   -1.1198   -0.9926    0.0674 N   0  0  0  0  0  0  0  0  0  0  0  0
   -1.8978   -0.4486   -0.2716 H   0  0  0  0  0  0  0  0  0  0  0  0
    0.1693   -0.2866    0.0854 C   0  0  1  0  0  0  0  0  0  0  0  0
    0.2224    0.3814   -0.7760 H   0  0  0  0  0  0  0  0  0  0  0  0
    0.2641    0.5682    1.3678 C   0  0  0  0  0  0  0  0  0  0  0  0
    0.0353   -0.0638    2.2278 H   0  0  0  0  0  0  0  0  0  0  0  0
    1.2911    0.9228    1.4792 H   0  0  0  0  0  0  0  0  0  0  0  0
   -0.6937    1.7693    1.4059 C   0  0  0  0  0  0  0  0  0  0  0  0
   -1.0330    2.2995    0.3218 O   0  5  0  0  0  0  0  0  0  0  0  0
   -1.0663    2.1622    2.5323 O   0  0  0  0  0  0  0  0  0  0  0  0
    1.3252   -1.3080   -0.0228 C   0  0  0  0  0  0  0  0  0  0  0  0
    2.1642   -1.4029    0.8809 O   0  0  0  0  0  0  0  0  0  0  0  0
    1.3720   -2.0852   -1.1094 N   0  0  0  0  0  0  0  0  0  0  0  0
    0.6879   -1.8722   -1.8379 H   0  0  0  0  0  0  0  0  0  0  0  0
    2.3962   -3.0874   -1.3836 C   0  0  0  0  0  0  0  0  0  0  0  0
    2.5854   -3.6757   -0.4847 H   0  0  0  0  0  0  0  0  0  0  0  0
    2.0606   -3.7428   -2.1868 H   0  0  0  0  0  0  0  0  0  0  0  0
    3.3172   -2.5872   -1.6835 H   0  0  0  0  0  0  0  0  0  0  0  0
  5  6  2  0  0  0  0
  5  7  1  0  0  0  0
  2  3  1  0  0  0  0
  2  4  1  0  0  0  0
  2  5  1  0  0  0  0
  1  2  1  0  0  0  0
 17 18  2  0  0  0  0
 17 19  1  0  0  0  0
 14 15  1  0  0  0  0
 14 16  2  0  0  0  0
 11 12  1  0  0  0  0
 11 13  1  0  0  0  0
 11 14  1  0  0  0  0
  9 10  1  0  0  0  0
  9 11  1  0  0  0  0
  9 17  1  0  0  0  0
  7  8  1  0  0  0  0
  7  9  1  0  0  0  0
 21 22  1  0  0  0  0
 21 23  1  0  0  0  0
 21 24  1  0  0  0  0
 19 20  1  0  0  0  0
 19 21  1  0  0  0  0
M  CHG  1  15  -1
M  END
$$$$
default_name
  -OEChem-01062215323D

 24 23  0     1  0  0  0  0  0999 V2000
   -2.8347   -3.7166    0.8034 H   0  0  0  0  0  0  0  0  0  0  0  0
   -2.7728   -2.7096    0.3954 C   0  0  0  0  0  0  0  0  0  0  0  0
   -3.4267   -2.0426    0.9524 H   0  0  0  0  0  0  0  0  0  0  0  0
   -3.0538   -2.7186   -0.6556 H   0  0  0  0  0  0  0  0  0  0  0  0
   -1.3498   -2.2206    0.5184 C   0  0  0  0  0  0  0  0  0  0  0  0
   -0.4997   -2.9426    1.0194 O   0  0  0  0  0  0  0  0  0  0  0  0
   -1.1198   -0.9926    0.0674 N   0  0  0  0  0  0  0  0  0  0  0  0
   -1.8978   -0.4486   -0.2716 H   0  0  0  0  0  0  0  0  0  0  0  0
    0.1693   -0.2866    0.0854 C   0  0  1  0  0  0  0  0  0  0  0  0
    0.2224    0.3814   -0.7760 H   0  0  0  0  0  0  0  0  0  0  0  0
    0.2641    0.5682    1.3678 C   0  0  0  0  0  0  0  0  0  0  0  0
    0.0353   -0.0638    2.2278 H   0  0  0  0  0  0  0  0  0  0  0  0
    1.2911    0.9228    1.4792 H   0  0  0  0  0  0  0  0  0  0  0  0
   -0.6937    1.7693    1.4059 C   0  0  0  0  0  0  0  0  0  0  0  0
   -1.0330    2.2995    0.3218 O   0  5  0  0  0  0  0  0  0  0  0  0
   -1.0663    2.1622    2.5323 O   0  0  0  0  0  0  0  0  0  0  0  0
    1.3252   -1.3080   -0.0228 C   0  0  0  0  0  0  0  0  0  0  0  0
    1.9953   -1.6039    0.9736 O   0  0  0  0  0  0  0  0  0  0  0  0
    1.5580   -1.8633   -1.2162 N   0  0  0  0  0  0  0  0  0  0  0  0
    1.0103   -1.4908   -1.9942 H   0  0  0  0  0  0  0  0  0  0  0  0
    2.6129   -2.8295   -1.5033 C   0  0  0  0  0  0  0  0  0  0  0  0
    2.6431   -3.5856   -0.7177 H   0  0  0  0  0  0  0  0  0  0  0  0
    2.4202   -3.3065   -2.4640 H   0  0  0  0  0  0  0  0  0  0  0  0
    3.5725   -2.3135   -1.5397 H   0  0  0  0  0  0  0  0  0  0  0  0
  5  6  2  0  0  0  0
  5  7  1  0  0  0  0
  2  3  1  0  0  0  0
  2  4  1  0  0  0  0
  2  5  1  0  0  0  0
  1  2  1  0  0  0  0
 17 18  2  0  0  0  0
 17 19  1  0  0  0  0
 14 15  1  0  0  0  0
 14 16  2  0  0  0  0
 11 12  1  0  0  0  0
 11 13  1  0  0  0  0
 11 14  1  0  0  0  0
  9 10  1  0  0  0  0
  9 11  1  0  0  0  0
  9 17  1  0  0  0  0
  7  8  1  0  0  0  0
  7  9  1  0  0  0  0
 21 22  1  0  0  0  0
 21 23  1  0  0  0  0
 21 24  1  0  0  0  0
 19 20  1  0  0  0  0
 19 21  1  0  0  0  0
M  CHG  1  15  -1
M  END
$$$$
default_name
  -OEChem-01062215323D

 24 23  0     1  0  0  0  0  0999 V2000
   -2.8347   -3.7166    0.8034 H   0  0  0  0  0  0  0  0  0  0  0  0
   -2.7728   -2.7096    0.3954 C   0  0  0  0  0  0  0  0  0  0  0  0
   -3.4267   -2.0426    0.9524 H   0  0  0  0  0  0  0  0  0  0  0  0
   -3.0538   -2.7186   -0.6556 H   0  0  0  0  0  0  0  0  0  0  0  0
   -1.3498   -2.2206    0.5184 C   0  0  0  0  0  0  0  0  0  0  0  0
   -0.4997   -2.9426    1.0194 O   0  0  0  0  0  0  0  0  0  0  0  0
   -1.1198   -0.9926    0.0674 N   0  0  0  0  0  0  0  0  0  0  0  0
   -1.8978   -0.4486   -0.2716 H   0  0  0  0  0  0  0  0  0  0  0  0
    0.1693   -0.2866    0.0854 C   0  0  1  0  0  0  0  0  0  0  0  0
    0.2224    0.3814   -0.7760 H   0  0  0  0  0  0  0  0  0  0  0  0
    0.2641    0.5682    1.3678 C   0  0  0  0  0  0  0  0  0  0  0  0
    0.0353   -0.0638    2.2278 H   0  0  0  0  0  0  0  0  0  0  0  0
    1.2911    0.9228    1.4792 H   0  0  0  0  0  0  0  0  0  0  0  0
   -0.6937    1.7693    1.4059 C   0  0  0  0  0  0  0  0  0  0  0  0
   -1.0330    2.2995    0.3218 O   0  5  0  0  0  0  0  0  0  0  0  0
   -1.0663    2.1622    2.5323 O   0  0  0  0  0  0  0  0  0  0  0  0
    1.3252   -1.3080   -0.0228 C   0  0  0  0  0  0  0  0  0  0  0  0
    1.8128   -1.8128    0.9955 O   0  0  0  0  0  0  0  0  0  0  0  0
    1.7599   -1.6318   -1.2447 N   0  0  0  0  0  0  0  0  0  0  0  0
    1.3553   -1.0980   -2.0163 H   0  0  0  0  0  0  0  0  0  0  0  0
    2.8473   -2.5612   -1.5321 C   0  0  0  0  0  0  0  0  0  0  0  0
    2.7404   -3.4545   -0.9154 H   0  0  0  0  0  0  0  0  0  0  0  0
    2.8228   -2.8379   -2.5858 H   0  0  0  0  0  0  0  0  0  0  0  0
    3.7994   -2.0816   -1.3043 H   0  0  0  0  0  0  0  0  0  0  0  0
  5  6  2  0  0  0  0
  5  7  1  0  0  0  0
  2  3  1  0  0  0  0
  2  4  1  0  0  0  0
  2  5  1  0  0  0  0
  1  2  1  0  0  0  0
 17 18  2  0  0  0  0
 17 19  1  0  0  0  0
 14 15  1  0  0  0  0
 14 16  2  0  0  0  0
 11 12  1  0  0  0  0
 11 13  1  0  0  0  0
 11 14  1  0  0  0  0
  9 10  1  0  0  0  0
  9 11  1  0  0  0  0
  9 17  1  0  0  0  0
  7  8  1  0  0  0  0
  7  9  1  0  0  0  0
 21 22  1  0  0  0  0
 21 23  1  0  0  0  0
 21 24  1  0  0  0  0
 19 20  1  0  0  0  0
 19 21  1  0  0  0  0
M  CHG  1  15  -1
M  END
$$$$
default_name
  -OEChem-01062215323D

 24 23  0     1  0  0  0  0  0999 V2000
   -2.8347   -3.7166    0.8034 H   0  0  0  0  0  0  0  0  0  0  0  0
   -2.7728   -2.7096    0.3954 C   0  0  0  0  0  0  0  0  0  0  0  0
   -3.4267   -2.0426    0.9524 H   0  0  0  0  0  0  0  0  0  0  0  0
   -3.0538   -2.7186   -0.6556 H   0  0  0  0  0  0  0  0  0  0  0  0
   -1.3498   -2.2206    0.5184 C   0  0  0  0  0  0  0  0  0  0  0  0
   -0.4997   -2.9426    1.0194 O   0  0  0  0  0  0  0  0  0  0  0  0
   -1.1198   -0.9926    0.0674 N   0  0  0  0  0  0  0  0  0  0  0  0
   -1.8978   -0.4486   -0.2716 H   0  0  0  0  0  0  0  0  0  0  0  0
    0.1693   -0.2866    0.0854 C   0  0  1  0  0  0  0  0  0  0  0  0
    0.2224    0.3814   -0.7760 H   0  0  0  0  0  0  0  0  0  0  0  0
    0.2641    0.5682    1.3678 C   0  0  0  0  0  0  0  0  0  0  0  0
    0.0353   -0.0638    2.2278 H   0  0  0  0  0  0  0  0  0  0  0  0
    1.2911    0.9228    1.4792 H   0  0  0  0  0  0  0  0  0  0  0  0
   -0.6937    1.7693    1.4059 C   0  0  0  0  0  0  0  0  0  0  0  0
   -1.0330    2.2995    0.3218 O   0  5  0  0  0  0  0  0  0  0  0  0
   -1.0663    2.1622    2.5323 O   0  0  0  0  0  0  0  0  0  0  0  0
    1.3252   -1.3080   -0.0228 C   0  0  0  0  0  0  0  0  0  0  0  0
    1.6289   -2.0156    0.9450 O   0  0  0  0  0  0  0  0  0  0  0  0
    1.9640   -1.4063   -1.1929 N   0  0  0  0  0  0  0  0  0  0  0  0
    1.6994   -0.7205   -1.9027 H   0  0  0  0  0  0  0  0  0  0  0  0
    3.0835   -2.3006   -1.4679 C   0  0  0  0  0  0  0  0  0  0  0  0
    2.8705   -3.2915   -1.0645 H   0  0  0  0  0  0  0  0  0  0  0  0
    3.2410   -2.3690   -2.5439 H   0  0  0  0  0  0  0  0  0  0  0  0
    3.9826   -1.9073   -0.9932 H   0  0  0  0  0  0  0  0  0  0  0  0
  5  6  2  0  0  0  0
  5  7  1  0  0  0  0
  2  3  1  0  0  0  0
  2  4  1  0  0  0  0
  2  5  1  0  0  0  0
  1  2  1  0  0  0  0
 17 18  2  0  0  0  0
 17 19  1  0  0  0  0
 14 15  1  0  0  0  0
 14 16  2  0  0  0  0
 11 12  1  0  0  0  0
 11 13  1  0  0  0  0
 11 14  1  0  0  0  0
  9 10  1  0  0  0  0
  9 11  1  0  0  0  0
  9 17  1  0  0  0  0
  7  8  1  0  0  0  0
  7  9  1  0  0  0  0
 21 22  1  0  0  0  0
 21 23  1  0  0  0  0
 21 24  1  0  0  0  0
 19 20  1  0  0  0  0
 19 21  1  0  0  0  0
M  CHG  1  15  -1
M  END
$$$$
default_name
  -OEChem-01062215323D

 24 23  0     1  0  0  0  0  0999 V2000
   -2.8347   -3.7166    0.8034 H   0  0  0  0  0  0  0  0  0  0  0  0
   -2.7728   -2.7096    0.3954 C   0  0  0  0  0  0  0  0  0  0  0  0
   -3.4267   -2.0426    0.9524 H   0  0  0  0  0  0  0  0  0  0  0  0
   -3.0538   -2.7186   -0.6556 H   0  0  0  0  0  0  0  0  0  0  0  0
   -1.3498   -2.2206    0.5184 C   0  0  0  0  0  0  0  0  0  0  0  0
   -0.4997   -2.9426    1.0194 O   0  0  0  0  0  0  0  0  0  0  0  0
   -1.1198   -0.9926    0.0674 N   0  0  0  0  0  0  0  0  0  0  0  0
   -1.8978   -0.4486   -0.2716 H   0  0  0  0  0  0  0  0  0  0  0  0
    0.1693   -0.2866    0.0854 C   0  0  1  0  0  0  0  0  0  0  0  0
    0.2224    0.3814   -0.7760 H   0  0  0  0  0  0  0  0  0  0  0  0
    0.2641    0.5682    1.3678 C   0  0  0  0  0  0  0  0  0  0  0  0
    0.0353   -0.0638    2.2278 H   0  0  0  0  0  0  0  0  0  0  0  0
    1.2911    0.9228    1.4792 H   0  0  0  0  0  0  0  0  0  0  0  0
   -0.6937    1.7693    1.4059 C   0  0  0  0  0  0  0  0  0  0  0  0
   -1.0330    2.2995    0.3218 O   0  5  0  0  0  0  0  0  0  0  0  0
   -1.0663    2.1622    2.5323 O   0  0  0  0  0  0  0  0  0  0  0  0
    1.3252   -1.3080   -0.0228 C   0  0  0  0  0  0  0  0  0  0  0  0
    1.4562   -2.1983    0.8255 O   0  0  0  0  0  0  0  0  0  0  0  0
    2.1564   -1.2022   -1.0643 N   0  0  0  0  0  0  0  0  0  0  0  0
    2.0193   -0.3841   -1.6610 H   0  0  0  0  0  0  0  0  0  0  0  0
    3.3054   -2.0657   -1.3151 C   0  0  0  0  0  0  0  0  0  0  0  0
    3.0247   -3.1075   -1.1546 H   0  0  0  0  0  0  0  0  0  0  0  0
    3.6463   -1.9317   -2.3413 H   0  0  0  0  0  0  0  0  0  0  0  0
    4.1095   -1.8024   -0.6276 H   0  0  0  0  0  0  0  0  0  0  0  0
  5  6  2  0  0  0  0
  5  7  1  0  0  0  0
  2  3  1  0  0  0  0
  2  4  1  0  0  0  0
  2  5  1  0  0  0  0
  1  2  1  0  0  0  0
 17 18  2  0  0  0  0
 17 19  1  0  0  0  0
 14 15  1  0  0  0  0
 14 16  2  0  0  0  0
 11 12  1  0  0  0  0
 11 13  1  0  0  0  0
 11 14  1  0  0  0  0
  9 10  1  0  0  0  0
  9 11  1  0  0  0  0
  9 17  1  0  0  0  0
  7  8  1  0  0  0  0
  7  9  1  0  0  0  0
 21 22  1  0  0  0  0
 21 23  1  0  0  0  0
 21 24  1  0  0  0  0
 19 20  1  0  0  0  0
 19 21  1  0  0  0  0
M  CHG  1  15  -1
M  END
$$$$
default_name
  -OEChem-01062215323D

 24 23  0     1  0  0  0  0  0999 V2000
   -2.8347   -3.7166    0.8034 H   0  0  0  0  0  0  0  0  0  0  0  0
   -2.7728   -2.7096    0.3954 C   0  0  0  0  0  0  0  0  0  0  0  0
   -3.4267   -2.0426    0.9524 H   0  0  0  0  0  0  0  0  0  0  0  0
   -3.0538   -2.7186   -0.6556 H   0  0  0  0  0  0  0  0  0  0  0  0
   -1.3498   -2.2206    0.5184 C   0  0  0  0  0  0  0  0  0  0  0  0
   -0.4997   -2.9426    1.0194 O   0  0  0  0  0  0  0  0  0  0  0  0
   -1.1198   -0.9926    0.0674 N   0  0  0  0  0  0  0  0  0  0  0  0
   -1.8978   -0.4486   -0.2716 H   0  0  0  0  0  0  0  0  0  0  0  0
    0.1693   -0.2866    0.0854 C   0  0  1  0  0  0  0  0  0  0  0  0
    0.2224    0.3814   -0.7760 H   0  0  0  0  0  0  0  0  0  0  0  0
    0.2641    0.5682    1.3678 C   0  0  0  0  0  0  0  0  0  0  0  0
    0.0353   -0.0638    2.2278 H   0  0  0  0  0  0  0  0  0  0  0  0
    1.2911    0.9228    1.4792 H   0  0  0  0  0  0  0  0  0  0  0  0
   -0.6937    1.7693    1.4059 C   0  0  0  0  0  0  0  0  0  0  0  0
   -1.0330    2.2995    0.3218 O   0  5  0  0  0  0  0  0  0  0  0  0
   -1.0663    2.1622    2.5323 O   0  0  0  0  0  0  0  0  0  0  0  0
    1.3252   -1.3080   -0.0228 C   0  0  0  0  0  0  0  0  0  0  0  0
    1.3066   -2.3486    0.6452 O   0  0  0  0  0  0  0  0  0  0  0  0
    2.3239   -1.0334   -0.8678 N   0  0  0  0  0  0  0  0  0  0  0  0
    2.2930   -0.1117   -1.3078 H   0  0  0  0  0  0  0  0  0  0  0  0
    3.4978   -1.8723   -1.0841 C   0  0  0  0  0  0  0  0  0  0  0  0
    3.1923   -2.9151   -1.1798 H   0  0  0  0  0  0  0  0  0  0  0  0
    4.0111   -1.5559   -1.9917 H   0  0  0  0  0  0  0  0  0  0  0  0
    4.1715   -1.7742   -0.2326 H   0  0  0  0  0  0  0  0  0  0  0  0
  5  6  2  0  0  0  0
  5  7  1  0  0  0  0
  2  3  1  0  0  0  0
  2  4  1  0  0  0  0
  2  5  1  0  0  0  0
  1  2  1  0  0  0  0
 17 18  2  0  0  0  0
 17 19  1  0  0  0  0
 14 15  1  0  0  0  0
 14 16  2  0  0  0  0
 11 12  1  0  0  0  0
 11 13  1  0  0  0  0
 11 14  1  0  0  0  0
  9 10  1  0  0  0  0
  9 11  1  0  0  0  0
  9 17  1  0  0  0  0
  7  8  1  0  0  0  0
  7  9  1  0  0  0  0
 21 22  1  0  0  0  0
 21 23  1  0  0  0  0
 21 24  1  0  0  0  0
 19 20  1  0  0  0  0
 19 21  1  0  0  0  0
M  CHG  1  15  -1
M  END
$$$$
default_name
  -OEChem-01062215323D

 24 23  0     1  0  0  0  0  0999 V2000
   -2.8347   -3.7166    0.8034 H   0  0  0  0  0  0  0  0  0  0  0  0
   -2.7728   -2.7096    0.3954 C   0  0  0  0  0  0  0  0  0  0  0  0
   -3.4267   -2.0426    0.9524 H   0  0  0  0  0  0  0  0  0  0  0  0
   -3.0538   -2.7186   -0.6556 H   0  0  0  0  0  0  0  0  0  0  0  0
   -1.3498   -2.2206    0.5184 C   0  0  0  0  0  0  0  0  0  0  0  0
   -0.4997   -2.9426    1.0194 O   0  0  0  0  0  0  0  0  0  0  0  0
   -1.1198   -0.9926    0.0674 N   0  0  0  0  0  0  0  0  0  0  0  0
   -1.8978   -0.4486   -0.2716 H   0  0  0  0  0  0  0  0  0  0  0  0
    0.1693   -0.2866    0.0854 C   0  0  1  0  0  0  0  0  0  0  0  0
    0.2224    0.3814   -0.7760 H   0  0  0  0  0  0  0  0  0  0  0  0
    0.2641    0.5682    1.3678 C   0  0  0  0  0  0  0  0  0  0  0  0
    0.0353   -0.0638    2.2278 H   0  0  0  0  0  0  0  0  0  0  0  0
    1.2911    0.9228    1.4792 H   0  0  0  0  0  0  0  0  0  0  0  0
   -0.6937    1.7693    1.4059 C   0  0  0  0  0  0  0  0  0  0  0  0
   -1.0330    2.2995    0.3218 O   0  5  0  0  0  0  0  0  0  0  0  0
   -1.0663    2.1622    2.5323 O   0  0  0  0  0  0  0  0  0  0  0  0
    1.3252   -1.3080   -0.0228 C   0  0  0  0  0  0  0  0  0  0  0  0
    1.1901   -2.4562    0.4165 O   0  0  0  0  0  0  0  0  0  0  0  0
    2.4552   -0.9114   -0.6166 N   0  0  0  0  0  0  0  0  0  0  0  0
    2.5020    0.0781   -0.8672 H   0  0  0  0  0  0  0  0  0  0  0  0
    3.6478   -1.7338   -0.7906 C   0  0  0  0  0  0  0  0  0  0  0  0
    3.3620   -2.7274   -1.1382 H   0  0  0  0  0  0  0  0  0  0  0  0
    4.3105   -1.2672   -1.5190 H   0  0  0  0  0  0  0  0  0  0  0  0
    4.1643   -1.8244    0.1651 H   0  0  0  0  0  0  0  0  0  0  0  0
  5  6  2  0  0  0  0
  5  7  1  0  0  0  0
  2  3  1  0  0  0  0
  2  4  1  0  0  0  0
  2  5  1  0  0  0  0
  1  2  1  0  0  0  0
 17 18  2  0  0  0  0
 17 19  1  0  0  0  0
 14 15  1  0  0  0  0
 14 16  2  0  0  0  0
 11 12  1  0  0  0  0
 11 13  1  0  0  0  0
 11 14  1  0  0  0  0
  9 10  1  0  0  0  0
  9 11  1  0  0  0  0
  9 17  1  0  0  0  0
  7  8  1  0  0  0  0
  7  9  1  0  0  0  0
 21 22  1  0  0  0  0
 21 23  1  0  0  0  0
 21 24  1  0  0  0  0
 19 20  1  0  0  0  0
 19 21  1  0  0  0  0
M  CHG  1  15  -1
M  END
$$$$
default_name
  -OEChem-01062215323D

 24 23  0     1  0  0  0  0  0999 V2000
   -2.8347   -3.7166    0.8034 H   0  0  0  0  0  0  0  0  0  0  0  0
   -2.7728   -2.7096    0.3954 C   0  0  0  0  0  0  0  0  0  0  0  0
   -3.4267   -2.0426    0.9524 H   0  0  0  0  0  0  0  0  0  0  0  0
   -3.0538   -2.7186   -0.6556 H   0  0  0  0  0  0  0  0  0  0  0  0
   -1.3498   -2.2206    0.5184 C   0  0  0  0  0  0  0  0  0  0  0  0
   -0.4997   -2.9426    1.0194 O   0  0  0  0  0  0  0  0  0  0  0  0
   -1.1198   -0.9926    0.0674 N   0  0  0  0  0  0  0  0  0  0  0  0
   -1.8978   -0.4486   -0.2716 H   0  0  0  0  0  0  0  0  0  0  0  0
    0.1693   -0.2866    0.0854 C   0  0  1  0  0  0  0  0  0  0  0  0
    0.2224    0.3814   -0.7760 H   0  0  0  0  0  0  0  0  0  0  0  0
    0.2641    0.5682    1.3678 C   0  0  0  0  0  0  0  0  0  0  0  0
    0.0353   -0.0638    2.2278 H   0  0  0  0  0  0  0  0  0  0  0  0
    1.2911    0.9228    1.4792 H   0  0  0  0  0  0  0  0  0  0  0  0
   -0.6937    1.7693    1.4059 C   0  0  0  0  0  0  0  0  0  0  0  0
   -1.0330    2.2995    0.3218 O   0  5  0  0  0  0  0  0  0  0  0  0
   -1.0663    2.1622    2.5323 O   0  0  0  0  0  0  0  0  0  0  0  0
    1.3252   -1.3080   -0.0228 C   0  0  0  0  0  0  0  0  0  0  0  0
    1.1148   -2.5137    0.1547 O   0  0  0  0  0  0  0  0  0  0  0  0
    2.5413   -0.8445   -0.3280 N   0  0  0  0  0  0  0  0  0  0  0  0
    2.6319    0.1724   -0.3691 H   0  0  0  0  0  0  0  0  0  0  0  0
    3.7449   -1.6594   -0.4548 C   0  0  0  0  0  0  0  0  0  0  0  0
    3.5222   -2.5573   -1.0327 H   0  0  0  0  0  0  0  0  0  0  0  0
    4.5241   -1.0851   -0.9552 H   0  0  0  0  0  0  0  0  0  0  0  0
    4.0885   -1.9498    0.5383 H   0  0  0  0  0  0  0  0  0  0  0  0
  5  6  2  0  0  0  0
  5  7  1  0  0  0  0
  2  3  1  0  0  0  0
  2  4  1  0  0  0  0
  2  5  1  0  0  0  0
  1  2  1  0  0  0  0
 17 18  2  0  0  0  0
 17 19  1  0  0  0  0
 14 15  1  0  0  0  0
 14 16  2  0  0  0  0
 11 12  1  0  0  0  0
 11 13  1  0  0  0  0
 11 14  1  0  0  0  0
  9 10  1  0  0  0  0
  9 11  1  0  0  0  0
  9 17  1  0  0  0  0
  7  8  1  0  0  0  0
  7  9  1  0  0  0  0
 21 22  1  0  0  0  0
 21 23  1  0  0  0  0
 21 24  1  0  0  0  0
 19 20  1  0  0  0  0
 19 21  1  0  0  0  0
M  CHG  1  15  -1
M  END
$$$$
default_name
  -OEChem-01062215323D

 24 23  0     1  0  0  0  0  0999 V2000
   -2.8347   -3.7166    0.8034 H   0  0  0  0  0  0  0  0  0  0  0  0
   -2.7728   -2.7096    0.3954 C   0  0  0  0  0  0  0  0  0  0  0  0
   -3.4267   -2.0426    0.9524 H   0  0  0  0  0  0  0  0  0  0  0  0
   -3.0538   -2.7186   -0.6556 H   0  0  0  0  0  0  0  0  0  0  0  0
   -1.3498   -2.2206    0.5184 C   0  0  0  0  0  0  0  0  0  0  0  0
   -0.4997   -2.9426    1.0194 O   0  0  0  0  0  0  0  0  0  0  0  0
   -1.1198   -0.9926    0.0674 N   0  0  0  0  0  0  0  0  0  0  0  0
   -1.8978   -0.4486   -0.2716 H   0  0  0  0  0  0  0  0  0  0  0  0
    0.1693   -0.2866    0.0854 C   0  0  1  0  0  0  0  0  0  0  0  0
    0.1220    0.5602   -0.6015 H   0  0  0  0  0  0  0  0  0  0  0  0
    0.4329    0.2566    1.5066 C   0  0  0  0  0  0  0  0  0  0  0  0
    0.3060   -0.5578    2.2220 H   0  0  0  0  0  0  0  0  0  0  0  0
    1.4696    0.5947    1.5674 H   0  0  0  0  0  0  0  0  0  0  0  0
   -0.4992    1.4008    1.9349 C   0  0  0  0  0  0  0  0  0  0  0  0
   -0.9652    2.1570    1.0502 O   0  5  0  0  0  0  0  0  0  0  0  0
   -0.7241    1.5214    3.1585 O   0  0  0  0  0  0  0  0  0  0  0  0
    1.2912   -1.2364   -0.3945 C   0  0  0  0  0  0  0  0  0  0  0  0
    1.0277   -2.3957   -0.7353 O   0  0  0  0  0  0  0  0  0  0  0  0
    2.5379   -0.7565   -0.4413 N   0  0  0  0  0  0  0  0  0  0  0  0
    2.6677    0.1816   -0.0578 H   0  0  0  0  0  0  0  0  0  0  0  0
    3.7160   -1.5132   -0.8517 C   0  0  0  0  0  0  0  0  0  0  0  0
    3.4915   -2.0825   -1.7546 H   0  0  0  0  0  0  0  0  0  0  0  0
    4.5411   -0.8284   -1.0455 H   0  0  0  0  0  0  0  0  0  0  0  0
    3.9955   -2.2028   -0.0549 H   0  0  0  0  0  0  0  0  0  0  0  0
  5  6  2  0  0  0  0
  5  7  1  0  0  0  0
  2  3  1  0  0  0  0
  2  4  1  0  0  0  0
  2  5  1  0  0  0  0
  1  2  1  0  0  0  0
 17 18  2  0  0  0  0
 17 19  1  0  0  0  0
 14 15  1  0  0  0  0
 14 16  2  0  0  0  0
 11 12  1  0  0  0  0
 11 13  1  0  0  0  0
 11 14  1  0  0  0  0
  9 10  1  0  0  0  0
  9 11  1  0  0  0  0
  9 17  1  0  0  0  0
  7  8  1  0  0  0  0
  7  9  1  0  0  0  0
 21 22  1  0  0  0  0
 21 23  1  0  0  0  0
 21 24  1  0  0  0  0
 19 20  1  0  0  0  0
 19 21  1  0  0  0  0
M  CHG  1  15  -1
M  END
$$$$
default_name
  -OEChem-01062215323D

 24 23  0     1  0  0  0  0  0999 V2000
   -2.8347   -3.7166    0.8034 H   0  0  0  0  0  0  0  0  0  0  0  0
   -2.7728   -2.7096    0.3954 C   0  0  0  0  0  0  0  0  0  0  0  0
   -3.4267   -2.0426    0.9524 H   0  0  0  0  0  0  0  0  0  0  0  0
   -3.0538   -2.7186   -0.6556 H   0  0  0  0  0  0  0  0  0  0  0  0
   -1.3498   -2.2206    0.5184 C   0  0  0  0  0  0  0  0  0  0  0  0
   -0.4997   -2.9426    1.0194 O   0  0  0  0  0  0  0  0  0  0  0  0
   -1.1198   -0.9926    0.0674 N   0  0  0  0  0  0  0  0  0  0  0  0
   -1.8978   -0.4486   -0.2716 H   0  0  0  0  0  0  0  0  0  0  0  0
    0.1693   -0.2866    0.0854 C   0  0  1  0  0  0  0  0  0  0  0  0
    0.1220    0.5602   -0.6015 H   0  0  0  0  0  0  0  0  0  0  0  0
    0.4329    0.2566    1.5066 C   0  0  0  0  0  0  0  0  0  0  0  0
    0.3060   -0.5578    2.2220 H   0  0  0  0  0  0  0  0  0  0  0  0
    1.4696    0.5947    1.5674 H   0  0  0  0  0  0  0  0  0  0  0  0
   -0.4992    1.4008    1.9349 C   0  0  0  0  0  0  0  0  0  0  0  0
   -0.9652    2.1570    1.0502 O   0  5  0  0  0  0  0  0  0  0  0  0
   -0.7241    1.5214    3.1585 O   0  0  0  0  0  0  0  0  0  0  0  0
    1.2912   -1.2364   -0.3945 C   0  0  0  0  0  0  0  0  0  0  0  0
    1.0132   -2.2841   -0.9899 O   0  0  0  0  0  0  0  0  0  0  0  0
    2.5569   -0.8773   -0.1580 N   0  0  0  0  0  0  0  0  0  0  0  0
    2.6818   -0.0410    0.4156 H   0  0  0  0  0  0  0  0  0  0  0  0
    3.7350   -1.6560   -0.5245 C   0  0  0  0  0  0  0  0  0  0  0  0
    3.6275   -2.0281   -1.5442 H   0  0  0  0  0  0  0  0  0  0  0  0
    4.6237   -1.0294   -0.4545 H   0  0  0  0  0  0  0  0  0  0  0  0
    3.8323   -2.5021    0.1560 H   0  0  0  0  0  0  0  0  0  0  0  0
  5  6  2  0  0  0  0
  5  7  1  0  0  0  0
  2  3  1  0  0  0  0
  2  4  1  0  0  0  0
  2  5  1  0  0  0  0
  1  2  1  0  0  0  0
 17 18  2  0  0  0  0
 17 19  1  0  0  0  0
 14 15  1  0  0  0  0
 14 16  2  0  0  0  0
 11 12  1  0  0  0  0
 11 13  1  0  0  0  0
 11 14  1  0  0  0  0
  9 10  1  0  0  0  0
  9 11  1  0  0  0  0
  9 17  1  0  0  0  0
  7  8  1  0  0  0  0
  7  9  1  0  0  0  0
 21 22  1  0  0  0  0
 21 23  1  0  0  0  0
 21 24  1  0  0  0  0
 19 20  1  0  0  0  0
 19 21  1  0  0  0  0
M  CHG  1  15  -1
M  END
$$$$
default_name
  -OEChem-01062215323D

 24 23  0     1  0  0  0  0  0999 V2000
   -2.8347   -3.7166    0.8034 H   0  0  0  0  0  0  0  0  0  0  0  0
   -2.7728   -2.7096    0.3954 C   0  0  0  0  0  0  0  0  0  0  0  0
   -3.4267   -2.0426    0.9524 H   0  0  0  0  0  0  0  0  0  0  0  0
   -3.0538   -2.7186   -0.6556 H   0  0  0  0  0  0  0  0  0  0  0  0
   -1.3498   -2.2206    0.5184 C   0  0  0  0  0  0  0  0  0  0  0  0
   -0.4997   -2.9426    1.0194 O   0  0  0  0  0  0  0  0  0  0  0  0
   -1.1198   -0.9926    0.0674 N   0  0  0  0  0  0  0  0  0  0  0  0
   -1.8978   -0.4486   -0.2716 H   0  0  0  0  0  0  0  0  0  0  0  0
    0.1693   -0.2866    0.0854 C   0  0  1  0  0  0  0  0  0  0  0  0
    0.1220    0.5602   -0.6015 H   0  0  0  0  0  0  0  0  0  0  0  0
    0.4329    0.2566    1.5066 C   0  0  0  0  0  0  0  0  0  0  0  0
    0.3060   -0.5578    2.2220 H   0  0  0  0  0  0  0  0  0  0  0  0
    1.4696    0.5947    1.5674 H   0  0  0  0  0  0  0  0  0  0  0  0
   -0.4992    1.4008    1.9349 C   0  0  0  0  0  0  0  0  0  0  0  0
   -0.9652    2.1570    1.0502 O   0  5  0  0  0  0  0  0  0  0  0  0
   -0.7241    1.5214    3.1585 O   0  0  0  0  0  0  0  0  0  0  0  0
    1.2912   -1.2364   -0.3945 C   0  0  0  0  0  0  0  0  0  0  0  0
    1.0487   -2.1274   -1.2172 O   0  0  0  0  0  0  0  0  0  0  0  0
    2.5204   -1.0486    0.0959 N   0  0  0  0  0  0  0  0  0  0  0  0
    2.6022   -0.3460    0.8333 H   0  0  0  0  0  0  0  0  0  0  0  0
    3.6899   -1.8570   -0.2323 C   0  0  0  0  0  0  0  0  0  0  0  0
    3.7299   -2.0260   -1.3091 H   0  0  0  0  0  0  0  0  0  0  0  0
    4.5934   -1.3412    0.0918 H   0  0  0  0  0  0  0  0  0  0  0  0
    3.6171   -2.8178    0.2777 H   0  0  0  0  0  0  0  0  0  0  0  0
  5  6  2  0  0  0  0
  5  7  1  0  0  0  0
  2  3  1  0  0  0  0
  2  4  1  0  0  0  0
  2  5  1  0  0  0  0
  1  2  1  0  0  0  0
 17 18  2  0  0  0  0
 17 19  1  0  0  0  0
 14 15  1  0  0  0  0
 14 16  2  0  0  0  0
 11 12  1  0  0  0  0
 11 13  1  0  0  0  0
 11 14  1  0  0  0  0
  9 10  1  0  0  0  0
  9 11  1  0  0  0  0
  9 17  1  0  0  0  0
  7  8  1  0  0  0  0
  7  9  1  0  0  0  0
 21 22  1  0  0  0  0
 21 23  1  0  0  0  0
 21 24  1  0  0  0  0
 19 20  1  0  0  0  0
 19 21  1  0  0  0  0
M  CHG  1  15  -1
M  END
$$$$
default_name
  -OEChem-01062215323D

 24 23  0     1  0  0  0  0  0999 V2000
   -2.8347   -3.7166    0.8034 H   0  0  0  0  0  0  0  0  0  0  0  0
   -2.7728   -2.7096    0.3954 C   0  0  0  0  0  0  0  0  0  0  0  0
   -3.4267   -2.0426    0.9524 H   0  0  0  0  0  0  0  0  0  0  0  0
   -3.0538   -2.7186   -0.6556 H   0  0  0  0  0  0  0  0  0  0  0  0
   -1.3498   -2.2206    0.5184 C   0  0  0  0  0  0  0  0  0  0  0  0
   -0.4997   -2.9426    1.0194 O   0  0  0  0  0  0  0  0  0  0  0  0
   -1.1198   -0.9926    0.0674 N   0  0  0  0  0  0  0  0  0  0  0  0
   -1.8978   -0.4486   -0.2716 H   0  0  0  0  0  0  0  0  0  0  0  0
    0.1693   -0.2866    0.0854 C   0  0  1  0  0  0  0  0  0  0  0  0
    0.1220    0.5602   -0.6015 H   0  0  0  0  0  0  0  0  0  0  0  0
    0.4329    0.2566    1.5066 C   0  0  0  0  0  0  0  0  0  0  0  0
    0.3060   -0.5578    2.2220 H   0  0  0  0  0  0  0  0  0  0  0  0
    1.4696    0.5947    1.5674 H   0  0  0  0  0  0  0  0  0  0  0  0
   -0.4992    1.4008    1.9349 C   0  0  0  0  0  0  0  0  0  0  0  0
   -0.9652    2.1570    1.0502 O   0  5  0  0  0  0  0  0  0  0  0  0
   -0.7241    1.5214    3.1585 O   0  0  0  0  0  0  0  0  0  0  0  0
    1.2912   -1.2364   -0.3945 C   0  0  0  0  0  0  0  0  0  0  0  0
    1.1317   -1.9361   -1.4017 O   0  0  0  0  0  0  0  0  0  0  0  0
    2.4311   -1.2589    0.3033 N   0  0  0  0  0  0  0  0  0  0  0  0
    2.4345   -0.7127    1.1668 H   0  0  0  0  0  0  0  0  0  0  0  0
    3.5837   -2.1023    0.0051 C   0  0  0  0  0  0  0  0  0  0  0  0
    3.7915   -2.0763   -1.0654 H   0  0  0  0  0  0  0  0  0  0  0  0
    4.4523   -1.7425    0.5560 H   0  0  0  0  0  0  0  0  0  0  0  0
    3.3646   -3.1282    0.3016 H   0  0  0  0  0  0  0  0  0  0  0  0
  5  6  2  0  0  0  0
  5  7  1  0  0  0  0
  2  3  1  0  0  0  0
  2  4  1  0  0  0  0
  2  5  1  0  0  0  0
  1  2  1  0  0  0  0
 17 18  2  0  0  0  0
 17 19  1  0  0  0  0
 14 15  1  0  0  0  0
 14 16  2  0  0  0  0
 11 12  1  0  0  0  0
 11 13  1  0  0  0  0
 11 14  1  0  0  0  0
  9 10  1  0  0  0  0
  9 11  1  0  0  0  0
  9 17  1  0  0  0  0
  7  8  1  0  0  0  0
  7  9  1  0  0  0  0
 21 22  1  0  0  0  0
 21 23  1  0  0  0  0
 21 24  1  0  0  0  0
 19 20  1  0  0  0  0
 19 21  1  0  0  0  0
M  CHG  1  15  -1
M  END
$$$$
default_name
  -OEChem-01062215323D

 24 23  0     1  0  0  0  0  0999 V2000
   -2.8347   -3.7166    0.8034 H   0  0  0  0  0  0  0  0  0  0  0  0
   -2.7728   -2.7096    0.3954 C   0  0  0  0  0  0  0  0  0  0  0  0
   -3.4267   -2.0426    0.9524 H   0  0  0  0  0  0  0  0  0  0  0  0
   -3.0538   -2.7186   -0.6556 H   0  0  0  0  0  0  0  0  0  0  0  0
   -1.3498   -2.2206    0.5184 C   0  0  0  0  0  0  0  0  0  0  0  0
   -0.4997   -2.9426    1.0194 O   0  0  0  0  0  0  0  0  0  0  0  0
   -1.1198   -0.9926    0.0674 N   0  0  0  0  0  0  0  0  0  0  0  0
   -1.8978   -0.4486   -0.2716 H   0  0  0  0  0  0  0  0  0  0  0  0
    0.1693   -0.2866    0.0854 C   0  0  1  0  0  0  0  0  0  0  0  0
    0.1220    0.5602   -0.6015 H   0  0  0  0  0  0  0  0  0  0  0  0
    0.4329    0.2566    1.5066 C   0  0  0  0  0  0  0  0  0  0  0  0
    0.3060   -0.5578    2.2220 H   0  0  0  0  0  0  0  0  0  0  0  0
    1.4696    0.5947    1.5674 H   0  0  0  0  0  0  0  0  0  0  0  0
   -0.4992    1.4008    1.9349 C   0  0  0  0  0  0  0  0  0  0  0  0
   -0.9652    2.1570    1.0502 O   0  5  0  0  0  0  0  0  0  0  0  0
   -0.7241    1.5214    3.1585 O   0  0  0  0  0  0  0  0  0  0  0  0
    1.2912   -1.2364   -0.3945 C   0  0  0  0  0  0  0  0  0  0  0  0
    1.2565   -1.7235   -1.5307 O   0  0  0  0  0  0  0  0  0  0  0  0
    2.2950   -1.4938    0.4499 N   0  0  0  0  0  0  0  0  0  0  0  0
    2.1900   -1.1160    1.3935 H   0  0  0  0  0  0  0  0  0  0  0  0
    3.4238   -2.3753    0.1714 C   0  0  0  0  0  0  0  0  0  0  0  0
    3.8083   -2.1756   -0.8296 H   0  0  0  0  0  0  0  0  0  0  0  0
    4.2099   -2.2060    0.9067 H   0  0  0  0  0  0  0  0  0  0  0  0
    3.0919   -3.4123    0.2264 H   0  0  0  0  0  0  0  0  0  0  0  0
  5  6  2  0  0  0  0
  5  7  1  0  0  0  0
  2  3  1  0  0  0  0
  2  4  1  0  0  0  0
  2  5  1  0  0  0  0
  1  2  1  0  0  0  0
 17 18  2  0  0  0  0
 17 19  1  0  0  0  0
 14 15  1  0  0  0  0
 14 16  2  0  0  0  0
 11 12  1  0  0  0  0
 11 13  1  0  0  0  0
 11 14  1  0  0  0  0
  9 10  1  0  0  0  0
  9 11  1  0  0  0  0
  9 17  1  0  0  0  0
  7  8  1  0  0  0  0
  7  9  1  0  0  0  0
 21 22  1  0  0  0  0
 21 23  1  0  0  0  0
 21 24  1  0  0  0  0
 19 20  1  0  0  0  0
 19 21  1  0  0  0  0
M  CHG  1  15  -1
M  END
$$$$
default_name
  -OEChem-01062215323D

 24 23  0     1  0  0  0  0  0999 V2000
   -2.8347   -3.7166    0.8034 H   0  0  0  0  0  0  0  0  0  0  0  0
   -2.7728   -2.7096    0.3954 C   0  0  0  0  0  0  0  0  0  0  0  0
   -3.4267   -2.0426    0.9524 H   0  0  0  0  0  0  0  0  0  0  0  0
   -3.0538   -2.7186   -0.6556 H   0  0  0  0  0  0  0  0  0  0  0  0
   -1.3498   -2.2206    0.5184 C   0  0  0  0  0  0  0  0  0  0  0  0
   -0.4997   -2.9426    1.0194 O   0  0  0  0  0  0  0  0  0  0  0  0
   -1.1198   -0.9926    0.0674 N   0  0  0  0  0  0  0  0  0  0  0  0
   -1.8978   -0.4486   -0.2716 H   0  0  0  0  0  0  0  0  0  0  0  0
    0.1693   -0.2866    0.0854 C   0  0  1  0  0  0  0  0  0  0  0  0
    0.1220    0.5602   -0.6015 H   0  0  0  0  0  0  0  0  0  0  0  0
    0.4329    0.2566    1.5066 C   0  0  0  0  0  0  0  0  0  0  0  0
    0.3060   -0.5578    2.2220 H   0  0  0  0  0  0  0  0  0  0  0  0
    1.4696    0.5947    1.5674 H   0  0  0  0  0  0  0  0  0  0  0  0
   -0.4992    1.4008    1.9349 C   0  0  0  0  0  0  0  0  0  0  0  0
   -0.9652    2.1570    1.0502 O   0  5  0  0  0  0  0  0  0  0  0  0
   -0.7241    1.5214    3.1585 O   0  0  0  0  0  0  0  0  0  0  0  0
    1.2912   -1.2364   -0.3945 C   0  0  0  0  0  0  0  0  0  0  0  0
    1.4147   -1.5038   -1.5956 O   0  0  0  0  0  0  0  0  0  0  0  0
    2.1213   -1.7373    0.5258 N   0  0  0  0  0  0  0  0  0  0  0  0
    1.8853   -1.5286    1.4978 H   0  0  0  0  0  0  0  0  0  0  0  0
    3.2209   -2.6574    0.2554 C   0  0  0  0  0  0  0  0  0  0  0  0
    3.7790   -2.3172   -0.6179 H   0  0  0  0  0  0  0  0  0  0  0  0
    3.8828   -2.7001    1.1199 H   0  0  0  0  0  0  0  0  0  0  0  0
    2.8177   -3.6506    0.0569 H   0  0  0  0  0  0  0  0  0  0  0  0
  5  6  2  0  0  0  0
  5  7  1  0  0  0  0
  2  3  1  0  0  0  0
  2  4  1  0  0  0  0
  2  5  1  0  0  0  0
  1  2  1  0  0  0  0
 17 18  2  0  0  0  0
 17 19  1  0  0  0  0
 14 15  1  0  0  0  0
 14 16  2  0  0  0  0
 11 12  1  0  0  0  0
 11 13  1  0  0  0  0
 11 14  1  0  0  0  0
  9 10  1  0  0  0  0
  9 11  1  0  0  0  0
  9 17  1  0  0  0  0
  7  8  1  0  0  0  0
  7  9  1  0  0  0  0
 21 22  1  0  0  0  0
 21 23  1  0  0  0  0
 21 24  1  0  0  0  0
 19 20  1  0  0  0  0
 19 21  1  0  0  0  0
M  CHG  1  15  -1
M  END
$$$$
default_name
  -OEChem-01062215323D

 24 23  0     1  0  0  0  0  0999 V2000
   -2.8347   -3.7166    0.8034 H   0  0  0  0  0  0  0  0  0  0  0  0
   -2.7728   -2.7096    0.3954 C   0  0  0  0  0  0  0  0  0  0  0  0
   -3.4267   -2.0426    0.9524 H   0  0  0  0  0  0  0  0  0  0  0  0
   -3.0538   -2.7186   -0.6556 H   0  0  0  0  0  0  0  0  0  0  0  0
   -1.3498   -2.2206    0.5184 C   0  0  0  0  0  0  0  0  0  0  0  0
   -0.4997   -2.9426    1.0194 O   0  0  0  0  0  0  0  0  0  0  0  0
   -1.1198   -0.9926    0.0674 N   0  0  0  0  0  0  0  0  0  0  0  0
   -1.8978   -0.4486   -0.2716 H   0  0  0  0  0  0  0  0  0  0  0  0
    0.1693   -0.2866    0.0854 C   0  0  1  0  0  0  0  0  0  0  0  0
    0.1220    0.5602   -0.6015 H   0  0  0  0  0  0  0  0  0  0  0  0
    0.4329    0.2566    1.5066 C   0  0  0  0  0  0  0  0  0  0  0  0
    0.3060   -0.5578    2.2220 H   0  0  0  0  0  0  0  0  0  0  0  0
    1.4696    0.5947    1.5674 H   0  0  0  0  0  0  0  0  0  0  0  0
   -0.4992    1.4008    1.9349 C   0  0  0  0  0  0  0  0  0  0  0  0
   -0.9652    2.1570    1.0502 O   0  5  0  0  0  0  0  0  0  0  0  0
   -0.7241    1.5214    3.1585 O   0  0  0  0  0  0  0  0  0  0  0  0
    1.2912   -1.2364   -0.3945 C   0  0  0  0  0  0  0  0  0  0  0  0
    1.5955   -1.2922   -1.5919 O   0  0  0  0  0  0  0  0  0  0  0  0
    1.9219   -1.9728    0.5257 N   0  0  0  0  0  0  0  0  0  0  0  0
    1.5414   -1.9222    1.4726 H   0  0  0  0  0  0  0  0  0  0  0  0
    2.9889   -2.9293    0.2512 C   0  0  0  0  0  0  0  0  0  0  0  0
    3.7057   -2.4914   -0.4446 H   0  0  0  0  0  0  0  0  0  0  0  0
    3.4933   -3.1911    1.1810 H   0  0  0  0  0  0  0  0  0  0  0  0
    2.5606   -3.8270   -0.1950 H   0  0  0  0  0  0  0  0  0  0  0  0
  5  6  2  0  0  0  0
  5  7  1  0  0  0  0
  2  3  1  0  0  0  0
  2  4  1  0  0  0  0
  2  5  1  0  0  0  0
  1  2  1  0  0  0  0
 17 18  2  0  0  0  0
 17 19  1  0  0  0  0
 14 15  1  0  0  0  0
 14 16  2  0  0  0  0
 11 12  1  0  0  0  0
 11 13  1  0  0  0  0
 11 14  1  0  0  0  0
  9 10  1  0  0  0  0
  9 11  1  0  0  0  0
  9 17  1  0  0  0  0
  7  8  1  0  0  0  0
  7  9  1  0  0  0  0
 21 22  1  0  0  0  0
 21 23  1  0  0  0  0
 21 24  1  0  0  0  0
 19 20  1  0  0  0  0
 19 21  1  0  0  0  0
M  CHG  1  15  -1
M  END
$$$$
default_name
  -OEChem-01062215323D

 24 23  0     1  0  0  0  0  0999 V2000
   -2.8347   -3.7166    0.8034 H   0  0  0  0  0  0  0  0  0  0  0  0
   -2.7728   -2.7096    0.3954 C   0  0  0  0  0  0  0  0  0  0  0  0
   -3.4267   -2.0426    0.9524 H   0  0  0  0  0  0  0  0  0  0  0  0
   -3.0538   -2.7186   -0.6556 H   0  0  0  0  0  0  0  0  0  0  0  0
   -1.3498   -2.2206    0.5184 C   0  0  0  0  0  0  0  0  0  0  0  0
   -0.4997   -2.9426    1.0194 O   0  0  0  0  0  0  0  0  0  0  0  0
   -1.1198   -0.9926    0.0674 N   0  0  0  0  0  0  0  0  0  0  0  0
   -1.8978   -0.4486   -0.2716 H   0  0  0  0  0  0  0  0  0  0  0  0
    0.1693   -0.2866    0.0854 C   0  0  1  0  0  0  0  0  0  0  0  0
    0.1220    0.5602   -0.6015 H   0  0  0  0  0  0  0  0  0  0  0  0
    0.4329    0.2566    1.5066 C   0  0  0  0  0  0  0  0  0  0  0  0
    0.3060   -0.5578    2.2220 H   0  0  0  0  0  0  0  0  0  0  0  0
    1.4696    0.5947    1.5674 H   0  0  0  0  0  0  0  0  0  0  0  0
   -0.4992    1.4008    1.9349 C   0  0  0  0  0  0  0  0  0  0  0  0
   -0.9652    2.1570    1.0502 O   0  5  0  0  0  0  0  0  0  0  0  0
   -0.7241    1.5214    3.1585 O   0  0  0  0  0  0  0  0  0  0  0  0
    1.2912   -1.2364   -0.3945 C   0  0  0  0  0  0  0  0  0  0  0  0
    1.7865   -1.1030   -1.5198 O   0  0  0  0  0  0  0  0  0  0  0  0
    1.7104   -2.1842    0.4497 N   0  0  0  0  0  0  0  0  0  0  0  0
    1.1816   -2.2700    1.3198 H   0  0  0  0  0  0  0  0  0  0  0  0
    2.7436   -3.1726    0.1593 C   0  0  0  0  0  0  0  0  0  0  0  0
    3.5933   -2.6862   -0.3215 H   0  0  0  0  0  0  0  0  0  0  0  0
    3.0679   -3.6455    1.0859 H   0  0  0  0  0  0  0  0  0  0  0  0
    2.3381   -3.9294   -0.5124 H   0  0  0  0  0  0  0  0  0  0  0  0
  5  6  2  0  0  0  0
  5  7  1  0  0  0  0
  2  3  1  0  0  0  0
  2  4  1  0  0  0  0
  2  5  1  0  0  0  0
  1  2  1  0  0  0  0
 17 18  2  0  0  0  0
 17 19  1  0  0  0  0
 14 15  1  0  0  0  0
 14 16  2  0  0  0  0
 11 12  1  0  0  0  0
 11 13  1  0  0  0  0
 11 14  1  0  0  0  0
  9 10  1  0  0  0  0
  9 11  1  0  0  0  0
  9 17  1  0  0  0  0
  7  8  1  0  0  0  0
  7  9  1  0  0  0  0
 21 22  1  0  0  0  0
 21 23  1  0  0  0  0
 21 24  1  0  0  0  0
 19 20  1  0  0  0  0
 19 21  1  0  0  0  0
M  CHG  1  15  -1
M  END
$$$$
default_name
  -OEChem-01062215323D

 24 23  0     1  0  0  0  0  0999 V2000
   -2.8347   -3.7166    0.8034 H   0  0  0  0  0  0  0  0  0  0  0  0
   -2.7728   -2.7096    0.3954 C   0  0  0  0  0  0  0  0  0  0  0  0
   -3.4267   -2.0426    0.9524 H   0  0  0  0  0  0  0  0  0  0  0  0
   -3.0538   -2.7186   -0.6556 H   0  0  0  0  0  0  0  0  0  0  0  0
   -1.3498   -2.2206    0.5184 C   0  0  0  0  0  0  0  0  0  0  0  0
   -0.4997   -2.9426    1.0194 O   0  0  0  0  0  0  0  0  0  0  0  0
   -1.1198   -0.9926    0.0674 N   0  0  0  0  0  0  0  0  0  0  0  0
   -1.8978   -0.4486   -0.2716 H   0  0  0  0  0  0  0  0  0  0  0  0
    0.1693   -0.2866    0.0854 C   0  0  1  0  0  0  0  0  0  0  0  0
    0.1220    0.5602   -0.6015 H   0  0  0  0  0  0  0  0  0  0  0  0
    0.4329    0.2566    1.5066 C   0  0  0  0  0  0  0  0  0  0  0  0
    0.3060   -0.5578    2.2220 H   0  0  0  0  0  0  0  0  0  0  0  0
    1.4696    0.5947    1.5674 H   0  0  0  0  0  0  0  0  0  0  0  0
   -0.4992    1.4008    1.9349 C   0  0  0  0  0  0  0  0  0  0  0  0
   -0.9652    2.1570    1.0502 O   0  5  0  0  0  0  0  0  0  0  0  0
   -0.7241    1.5214    3.1585 O   0  0  0  0  0  0  0  0  0  0  0  0
    1.2912   -1.2364   -0.3945 C   0  0  0  0  0  0  0  0  0  0  0  0
    1.9747   -0.9491   -1.3843 O   0  0  0  0  0  0  0  0  0  0  0  0
    1.5013   -2.3572    0.3030 N   0  0  0  0  0  0  0  0  0  0  0  0
    0.8303   -2.5484    1.0496 H   0  0  0  0  0  0  0  0  0  0  0  0
    2.5018   -3.3706   -0.0142 C   0  0  0  0  0  0  0  0  0  0  0  0
    3.4496   -2.8886   -0.2572 H   0  0  0  0  0  0  0  0  0  0  0  0
    2.6357   -4.0325    0.8411 H   0  0  0  0  0  0  0  0  0  0  0  0
    2.1655   -3.9509   -0.8736 H   0  0  0  0  0  0  0  0  0  0  0  0
  5  6  2  0  0  0  0
  5  7  1  0  0  0  0
  2  3  1  0  0  0  0
  2  4  1  0  0  0  0
  2  5  1  0  0  0  0
  1  2  1  0  0  0  0
 17 18  2  0  0  0  0
 17 19  1  0  0  0  0
 14 15  1  0  0  0  0
 14 16  2  0  0  0  0
 11 12  1  0  0  0  0
 11 13  1  0  0  0  0
 11 14  1  0  0  0  0
  9 10  1  0  0  0  0
  9 11  1  0  0  0  0
  9 17  1  0  0  0  0
  7  8  1  0  0  0  0
  7  9  1  0  0  0  0
 21 22  1  0  0  0  0
 21 23  1  0  0  0  0
 21 24  1  0  0  0  0
 19 20  1  0  0  0  0
 19 21  1  0  0  0  0
M  CHG  1  15  -1
M  END
$$$$
default_name
  -OEChem-01062215323D

 24 23  0     1  0  0  0  0  0999 V2000
   -2.8347   -3.7166    0.8034 H   0  0  0  0  0  0  0  0  0  0  0  0
   -2.7728   -2.7096    0.3954 C   0  0  0  0  0  0  0  0  0  0  0  0
   -3.4267   -2.0426    0.9524 H   0  0  0  0  0  0  0  0  0  0  0  0
   -3.0538   -2.7186   -0.6556 H   0  0  0  0  0  0  0  0  0  0  0  0
   -1.3498   -2.2206    0.5184 C   0  0  0  0  0  0  0  0  0  0  0  0
   -0.4997   -2.9426    1.0194 O   0  0  0  0  0  0  0  0  0  0  0  0
   -1.1198   -0.9926    0.0674 N   0  0  0  0  0  0  0  0  0  0  0  0
   -1.8978   -0.4486   -0.2716 H   0  0  0  0  0  0  0  0  0  0  0  0
    0.1693   -0.2866    0.0854 C   0  0  1  0  0  0  0  0  0  0  0  0
    0.1220    0.5602   -0.6015 H   0  0  0  0  0  0  0  0  0  0  0  0
    0.4329    0.2566    1.5066 C   0  0  0  0  0  0  0  0  0  0  0  0
    0.3060   -0.5578    2.2220 H   0  0  0  0  0  0  0  0  0  0  0  0
    1.4696    0.5947    1.5674 H   0  0  0  0  0  0  0  0  0  0  0  0
   -0.4992    1.4008    1.9349 C   0  0  0  0  0  0  0  0  0  0  0  0
   -0.9652    2.1570    1.0502 O   0  5  0  0  0  0  0  0  0  0  0  0
   -0.7241    1.5214    3.1585 O   0  0  0  0  0  0  0  0  0  0  0  0
    1.2912   -1.2364   -0.3945 C   0  0  0  0  0  0  0  0  0  0  0  0
    2.1473   -0.8410   -1.1946 O   0  0  0  0  0  0  0  0  0  0  0  0
    1.3086   -2.4799    0.0956 N   0  0  0  0  0  0  0  0  0  0  0  0
    0.5117   -2.7383    0.6805 H   0  0  0  0  0  0  0  0  0  0  0  0
    2.2799   -3.5099   -0.2574 C   0  0  0  0  0  0  0  0  0  0  0  0
    3.2843   -3.0845   -0.2558 H   0  0  0  0  0  0  0  0  0  0  0  0
    2.2260   -4.3255    0.4632 H   0  0  0  0  0  0  0  0  0  0  0  0
    2.0544   -3.8899   -1.2540 H   0  0  0  0  0  0  0  0  0  0  0  0
  5  6  2  0  0  0  0
  5  7  1  0  0  0  0
  2  3  1  0  0  0  0
  2  4  1  0  0  0  0
  2  5  1  0  0  0  0
  1  2  1  0  0  0  0
 17 18  2  0  0  0  0
 17 19  1  0  0  0  0
 14 15  1  0  0  0  0
 14 16  2  0  0  0  0
 11 12  1  0  0  0  0
 11 13  1  0  0  0  0
 11 14  1  0  0  0  0
  9 10  1  0  0  0  0
  9 11  1  0  0  0  0
  9 17  1  0  0  0  0
  7  8  1  0  0  0  0
  7  9  1  0  0  0  0
 21 22  1  0  0  0  0
 21 23  1  0  0  0  0
 21 24  1  0  0  0  0
 19 20  1  0  0  0  0
 19 21  1  0  0  0  0
M  CHG  1  15  -1
M  END
$$$$
default_name
  -OEChem-01062215323D

 24 23  0     1  0  0  0  0  0999 V2000
   -2.8347   -3.7166    0.8034 H   0  0  0  0  0  0  0  0  0  0  0  0
   -2.7728   -2.7096    0.3954 C   0  0  0  0  0  0  0  0  0  0  0  0
   -3.4267   -2.0426    0.9524 H   0  0  0  0  0  0  0  0  0  0  0  0
   -3.0538   -2.7186   -0.6556 H   0  0  0  0  0  0  0  0  0  0  0  0
   -1.3498   -2.2206    0.5184 C   0  0  0  0  0  0  0  0  0  0  0  0
   -0.4997   -2.9426    1.0194 O   0  0  0  0  0  0  0  0  0  0  0  0
   -1.1198   -0.9926    0.0674 N   0  0  0  0  0  0  0  0  0  0  0  0
   -1.8978   -0.4486   -0.2716 H   0  0  0  0  0  0  0  0  0  0  0  0
    0.1693   -0.2866    0.0854 C   0  0  1  0  0  0  0  0  0  0  0  0
    0.1220    0.5602   -0.6015 H   0  0  0  0  0  0  0  0  0  0  0  0
    0.4329    0.2566    1.5066 C   0  0  0  0  0  0  0  0  0  0  0  0
    0.3060   -0.5578    2.2220 H   0  0  0  0  0  0  0  0  0  0  0  0
    1.4696    0.5947    1.5674 H   0  0  0  0  0  0  0  0  0  0  0  0
   -0.4992    1.4008    1.9349 C   0  0  0  0  0  0  0  0  0  0  0  0
   -0.9652    2.1570    1.0502 O   0  5  0  0  0  0  0  0  0  0  0  0
   -0.7241    1.5214    3.1585 O   0  0  0  0  0  0  0  0  0  0  0  0
    1.2912   -1.2364   -0.3945 C   0  0  0  0  0  0  0  0  0  0  0  0
    2.2926   -0.7861   -0.9636 O   0  0  0  0  0  0  0  0  0  0  0  0
    1.1457   -2.5440   -0.1585 N   0  0  0  0  0  0  0  0  0  0  0  0
    0.2473   -2.8269    0.2377 H   0  0  0  0  0  0  0  0  0  0  0  0
    2.0930   -3.5809   -0.5537 C   0  0  0  0  0  0  0  0  0  0  0  0
    3.1086   -3.2608   -0.3176 H   0  0  0  0  0  0  0  0  0  0  0  0
    1.8667   -4.5048   -0.0219 H   0  0  0  0  0  0  0  0  0  0  0  0
    2.0125   -3.7507   -1.6276 H   0  0  0  0  0  0  0  0  0  0  0  0
  5  6  2  0  0  0  0
  5  7  1  0  0  0  0
  2  3  1  0  0  0  0
  2  4  1  0  0  0  0
  2  5  1  0  0  0  0
  1  2  1  0  0  0  0
 17 18  2  0  0  0  0
 17 19  1  0  0  0  0
 14 15  1  0  0  0  0
 14 16  2  0  0  0  0
 11 12  1  0  0  0  0
 11 13  1  0  0  0  0
 11 14  1  0  0  0  0
  9 10  1  0  0  0  0
  9 11  1  0  0  0  0
  9 17  1  0  0  0  0
  7  8  1  0  0  0  0
  7  9  1  0  0  0  0
 21 22  1  0  0  0  0
 21 23  1  0  0  0  0
 21 24  1  0  0  0  0
 19 20  1  0  0  0  0
 19 21  1  0  0  0  0
M  CHG  1  15  -1
M  END
$$$$
default_name
  -OEChem-01062215323D

 24 23  0     1  0  0  0  0  0999 V2000
   -2.8347   -3.7166    0.8034 H   0  0  0  0  0  0  0  0  0  0  0  0
   -2.7728   -2.7096    0.3954 C   0  0  0  0  0  0  0  0  0  0  0  0
   -3.4267   -2.0426    0.9524 H   0  0  0  0  0  0  0  0  0  0  0  0
   -3.0538   -2.7186   -0.6556 H   0  0  0  0  0  0  0  0  0  0  0  0
   -1.3498   -2.2206    0.5184 C   0  0  0  0  0  0  0  0  0  0  0  0
   -0.4997   -2.9426    1.0194 O   0  0  0  0  0  0  0  0  0  0  0  0
   -1.1198   -0.9926    0.0674 N   0  0  0  0  0  0  0  0  0  0  0  0
   -1.8978   -0.4486   -0.2716 H   0  0  0  0  0  0  0  0  0  0  0  0
    0.1693   -0.2866    0.0854 C   0  0  1  0  0  0  0  0  0  0  0  0
    0.1220    0.5602   -0.6015 H   0  0  0  0  0  0  0  0  0  0  0  0
    0.4329    0.2566    1.5066 C   0  0  0  0  0  0  0  0  0  0  0  0
    0.3060   -0.5578    2.2220 H   0  0  0  0  0  0  0  0  0  0  0  0
    1.4696    0.5947    1.5674 H   0  0  0  0  0  0  0  0  0  0  0  0
   -0.4992    1.4008    1.9349 C   0  0  0  0  0  0  0  0  0  0  0  0
   -0.9652    2.1570    1.0502 O   0  5  0  0  0  0  0  0  0  0  0  0
   -0.7241    1.5214    3.1585 O   0  0  0  0  0  0  0  0  0  0  0  0
    1.2912   -1.2364   -0.3945 C   0  0  0  0  0  0  0  0  0  0  0  0
    2.4006   -0.7881   -0.7071 O   0  0  0  0  0  0  0  0  0  0  0  0
    1.0235   -2.5452   -0.4418 N   0  0  0  0  0  0  0  0  0  0  0  0
    0.0552   -2.8080   -0.2487 H   0  0  0  0  0  0  0  0  0  0  0  0
    1.9539   -3.5789   -0.8830 C   0  0  0  0  0  0  0  0  0  0  0  0
    2.9346   -3.4054   -0.4383 H   0  0  0  0  0  0  0  0  0  0  0  0
    1.5825   -4.5579   -0.5813 H   0  0  0  0  0  0  0  0  0  0  0  0
    2.0426   -3.5427   -1.9690 H   0  0  0  0  0  0  0  0  0  0  0  0
  5  6  2  0  0  0  0
  5  7  1  0  0  0  0
  2  3  1  0  0  0  0
  2  4  1  0  0  0  0
  2  5  1  0  0  0  0
  1  2  1  0  0  0  0
 17 18  2  0  0  0  0
 17 19  1  0  0  0  0
 14 15  1  0  0  0  0
 14 16  2  0  0  0  0
 11 12  1  0  0  0  0
 11 13  1  0  0  0  0
 11 14  1  0  0  0  0
  9 10  1  0  0  0  0
  9 11  1  0  0  0  0
  9 17  1  0  0  0  0
  7  8  1  0  0  0  0
  7  9  1  0  0  0  0
 21 22  1  0  0  0  0
 21 23  1  0  0  0  0
 21 24  1  0  0  0  0
 19 20  1  0  0  0  0
 19 21  1  0  0  0  0
M  CHG  1  15  -1
M  END
$$$$
default_name
  -OEChem-01062215323D

 24 23  0     1  0  0  0  0  0999 V2000
   -2.8347   -3.7166    0.8034 H   0  0  0  0  0  0  0  0  0  0  0  0
   -2.7728   -2.7096    0.3954 C   0  0  0  0  0  0  0  0  0  0  0  0
   -3.4267   -2.0426    0.9524 H   0  0  0  0  0  0  0  0  0  0  0  0
   -3.0538   -2.7186   -0.6556 H   0  0  0  0  0  0  0  0  0  0  0  0
   -1.3498   -2.2206    0.5184 C   0  0  0  0  0  0  0  0  0  0  0  0
   -0.4997   -2.9426    1.0194 O   0  0  0  0  0  0  0  0  0  0  0  0
   -1.1198   -0.9926    0.0674 N   0  0  0  0  0  0  0  0  0  0  0  0
   -1.8978   -0.4486   -0.2716 H   0  0  0  0  0  0  0  0  0  0  0  0
    0.1693   -0.2866    0.0854 C   0  0  1  0  0  0  0  0  0  0  0  0
    0.1220    0.5602   -0.6015 H   0  0  0  0  0  0  0  0  0  0  0  0
    0.4329    0.2566    1.5066 C   0  0  0  0  0  0  0  0  0  0  0  0
    0.3060   -0.5578    2.2220 H   0  0  0  0  0  0  0  0  0  0  0  0
    1.4696    0.5947    1.5674 H   0  0  0  0  0  0  0  0  0  0  0  0
   -0.4992    1.4008    1.9349 C   0  0  0  0  0  0  0  0  0  0  0  0
   -0.9652    2.1570    1.0502 O   0  5  0  0  0  0  0  0  0  0  0  0
   -0.7241    1.5214    3.1585 O   0  0  0  0  0  0  0  0  0  0  0  0
    1.2912   -1.2364   -0.3945 C   0  0  0  0  0  0  0  0  0  0  0  0
    2.4640   -0.8469   -0.4425 O   0  0  0  0  0  0  0  0  0  0  0  0
    0.9505   -2.4833   -0.7351 N   0  0  0  0  0  0  0  0  0  0  0  0
   -0.0515   -2.6831   -0.7456 H   0  0  0  0  0  0  0  0  0  0  0  0
    1.8720   -3.5039   -1.2228 C   0  0  0  0  0  0  0  0  0  0  0  0
    2.7741   -3.5084   -0.6097 H   0  0  0  0  0  0  0  0  0  0  0  0
    1.3926   -4.4814   -1.1768 H   0  0  0  0  0  0  0  0  0  0  0  0
    2.1426   -3.2800   -2.2549 H   0  0  0  0  0  0  0  0  0  0  0  0
  5  6  2  0  0  0  0
  5  7  1  0  0  0  0
  2  3  1  0  0  0  0
  2  4  1  0  0  0  0
  2  5  1  0  0  0  0
  1  2  1  0  0  0  0
 17 18  2  0  0  0  0
 17 19  1  0  0  0  0
 14 15  1  0  0  0  0
 14 16  2  0  0  0  0
 11 12  1  0  0  0  0
 11 13  1  0  0  0  0
 11 14  1  0  0  0  0
  9 10  1  0  0  0  0
  9 11  1  0  0  0  0
  9 17  1  0  0  0  0
  7  8  1  0  0  0  0
  7  9  1  0  0  0  0
 21 22  1  0  0  0  0
 21 23  1  0  0  0  0
 21 24  1  0  0  0  0
 19 20  1  0  0  0  0
 19 21  1  0  0  0  0
M  CHG  1  15  -1
M  END
$$$$
default_name
  -OEChem-01062215323D

 24 23  0     1  0  0  0  0  0999 V2000
   -2.8347   -3.7166    0.8034 H   0  0  0  0  0  0  0  0  0  0  0  0
   -2.7728   -2.7096    0.3954 C   0  0  0  0  0  0  0  0  0  0  0  0
   -3.4267   -2.0426    0.9524 H   0  0  0  0  0  0  0  0  0  0  0  0
   -3.0538   -2.7186   -0.6556 H   0  0  0  0  0  0  0  0  0  0  0  0
   -1.3498   -2.2206    0.5184 C   0  0  0  0  0  0  0  0  0  0  0  0
   -0.4997   -2.9426    1.0194 O   0  0  0  0  0  0  0  0  0  0  0  0
   -1.1198   -0.9926    0.0674 N   0  0  0  0  0  0  0  0  0  0  0  0
   -1.8978   -0.4486   -0.2716 H   0  0  0  0  0  0  0  0  0  0  0  0
    0.1693   -0.2866    0.0854 C   0  0  1  0  0  0  0  0  0  0  0  0
    0.1220    0.5602   -0.6015 H   0  0  0  0  0  0  0  0  0  0  0  0
    0.4329    0.2566    1.5066 C   0  0  0  0  0  0  0  0  0  0  0  0
    0.3060   -0.5578    2.2220 H   0  0  0  0  0  0  0  0  0  0  0  0
    1.4696    0.5947    1.5674 H   0  0  0  0  0  0  0  0  0  0  0  0
   -0.4992    1.4008    1.9349 C   0  0  0  0  0  0  0  0  0  0  0  0
   -0.9652    2.1570    1.0502 O   0  5  0  0  0  0  0  0  0  0  0  0
   -0.7241    1.5214    3.1585 O   0  0  0  0  0  0  0  0  0  0  0  0
    1.2912   -1.2364   -0.3945 C   0  0  0  0  0  0  0  0  0  0  0  0
    2.4785   -0.9585   -0.1879 O   0  0  0  0  0  0  0  0  0  0  0  0
    0.9315   -2.3625   -1.0184 N   0  0  0  0  0  0  0  0  0  0  0  0
   -0.0656   -2.4605   -1.2190 H   0  0  0  0  0  0  0  0  0  0  0  0
    1.8530   -3.3611   -1.5500 C   0  0  0  0  0  0  0  0  0  0  0  0
    2.6381   -3.5628   -0.8201 H   0  0  0  0  0  0  0  0  0  0  0  0
    1.3100   -4.2804   -1.7678 H   0  0  0  0  0  0  0  0  0  0  0  0
    2.3058   -2.9807   -2.4658 H   0  0  0  0  0  0  0  0  0  0  0  0
  5  6  2  0  0  0  0
  5  7  1  0  0  0  0
  2  3  1  0  0  0  0
  2  4  1  0  0  0  0
  2  5  1  0  0  0  0
  1  2  1  0  0  0  0
 17 18  2  0  0  0  0
 17 19  1  0  0  0  0
 14 15  1  0  0  0  0
 14 16  2  0  0  0  0
 11 12  1  0  0  0  0
 11 13  1  0  0  0  0
 11 14  1  0  0  0  0
  9 10  1  0  0  0  0
  9 11  1  0  0  0  0
  9 17  1  0  0  0  0
  7  8  1  0  0  0  0
  7  9  1  0  0  0  0
 21 22  1  0  0  0  0
 21 23  1  0  0  0  0
 21 24  1  0  0  0  0
 19 20  1  0  0  0  0
 19 21  1  0  0  0  0
M  CHG  1  15  -1
M  END
$$$$
default_name
  -OEChem-01062215323D

 24 23  0     1  0  0  0  0  0999 V2000
   -2.8347   -3.7166    0.8034 H   0  0  0  0  0  0  0  0  0  0  0  0
   -2.7728   -2.7096    0.3954 C   0  0  0  0  0  0  0  0  0  0  0  0
   -3.4267   -2.0426    0.9524 H   0  0  0  0  0  0  0  0  0  0  0  0
   -3.0538   -2.7186   -0.6556 H   0  0  0  0  0  0  0  0  0  0  0  0
   -1.3498   -2.2206    0.5184 C   0  0  0  0  0  0  0  0  0  0  0  0
   -0.4997   -2.9426    1.0194 O   0  0  0  0  0  0  0  0  0  0  0  0
   -1.1198   -0.9926    0.0674 N   0  0  0  0  0  0  0  0  0  0  0  0
   -1.8978   -0.4486   -0.2716 H   0  0  0  0  0  0  0  0  0  0  0  0
    0.1693   -0.2866    0.0854 C   0  0  1  0  0  0  0  0  0  0  0  0
    0.1220    0.5602   -0.6015 H   0  0  0  0  0  0  0  0  0  0  0  0
    0.4329    0.2566    1.5066 C   0  0  0  0  0  0  0  0  0  0  0  0
    0.3060   -0.5578    2.2220 H   0  0  0  0  0  0  0  0  0  0  0  0
    1.4696    0.5947    1.5674 H   0  0  0  0  0  0  0  0  0  0  0  0
   -0.4992    1.4008    1.9349 C   0  0  0  0  0  0  0  0  0  0  0  0
   -0.9652    2.1570    1.0502 O   0  5  0  0  0  0  0  0  0  0  0  0
   -0.7241    1.5214    3.1585 O   0  0  0  0  0  0  0  0  0  0  0  0
    1.2912   -1.2364   -0.3945 C   0  0  0  0  0  0  0  0  0  0  0  0
    2.4430   -1.1152    0.0393 O   0  0  0  0  0  0  0  0  0  0  0  0
    0.9680   -2.1912   -1.2724 N   0  0  0  0  0  0  0  0  0  0  0  0
    0.0140   -2.1554   -1.6367 H   0  0  0  0  0  0  0  0  0  0  0  0
    1.8981   -3.1602   -1.8422 C   0  0  0  0  0  0  0  0  0  0  0  0
    2.5358   -3.5649   -1.0552 H   0  0  0  0  0  0  0  0  0  0  0  0
    1.3402   -3.9686   -2.3141 H   0  0  0  0  0  0  0  0  0  0  0  0
    2.5210   -2.6651   -2.5874 H   0  0  0  0  0  0  0  0  0  0  0  0
  5  6  2  0  0  0  0
  5  7  1  0  0  0  0
  2  3  1  0  0  0  0
  2  4  1  0  0  0  0
  2  5  1  0  0  0  0
  1  2  1  0  0  0  0
 17 18  2  0  0  0  0
 17 19  1  0  0  0  0
 14 15  1  0  0  0  0
 14 16  2  0  0  0  0
 11 12  1  0  0  0  0
 11 13  1  0  0  0  0
 11 14  1  0  0  0  0
  9 10  1  0  0  0  0
  9 11  1  0  0  0  0
  9 17  1  0  0  0  0
  7  8  1  0  0  0  0
  7  9  1  0  0  0  0
 21 22  1  0  0  0  0
 21 23  1  0  0  0  0
 21 24  1  0  0  0  0
 19 20  1  0  0  0  0
 19 21  1  0  0  0  0
M  CHG  1  15  -1
M  END
$$$$
default_name
  -OEChem-01062215323D

 24 23  0     1  0  0  0  0  0999 V2000
   -2.8347   -3.7166    0.8034 H   0  0  0  0  0  0  0  0  0  0  0  0
   -2.7728   -2.7096    0.3954 C   0  0  0  0  0  0  0  0  0  0  0  0
   -3.4267   -2.0426    0.9524 H   0  0  0  0  0  0  0  0  0  0  0  0
   -3.0538   -2.7186   -0.6556 H   0  0  0  0  0  0  0  0  0  0  0  0
   -1.3498   -2.2206    0.5184 C   0  0  0  0  0  0  0  0  0  0  0  0
   -0.4997   -2.9426    1.0194 O   0  0  0  0  0  0  0  0  0  0  0  0
   -1.1198   -0.9926    0.0674 N   0  0  0  0  0  0  0  0  0  0  0  0
   -1.8978   -0.4486   -0.2716 H   0  0  0  0  0  0  0  0  0  0  0  0
    0.1693   -0.2866    0.0854 C   0  0  1  0  0  0  0  0  0  0  0  0
    0.1220    0.5602   -0.6015 H   0  0  0  0  0  0  0  0  0  0  0  0
    0.4329    0.2566    1.5066 C   0  0  0  0  0  0  0  0  0  0  0  0
    0.3060   -0.5578    2.2220 H   0  0  0  0  0  0  0  0  0  0  0  0
    1.4696    0.5947    1.5674 H   0  0  0  0  0  0  0  0  0  0  0  0
   -0.4992    1.4008    1.9349 C   0  0  0  0  0  0  0  0  0  0  0  0
   -0.9652    2.1570    1.0502 O   0  5  0  0  0  0  0  0  0  0  0  0
   -0.7241    1.5214    3.1585 O   0  0  0  0  0  0  0  0  0  0  0  0
    1.2912   -1.2364   -0.3945 C   0  0  0  0  0  0  0  0  0  0  0  0
    2.3600   -1.3064    0.2238 O   0  0  0  0  0  0  0  0  0  0  0  0
    1.0573   -1.9809   -1.4797 N   0  0  0  0  0  0  0  0  0  0  0  0
    0.1818   -1.7888   -1.9702 H   0  0  0  0  0  0  0  0  0  0  0  0
    2.0042   -2.9149   -2.0795 C   0  0  0  0  0  0  0  0  0  0  0  0
    2.4741   -3.5145   -1.2989 H   0  0  0  0  0  0  0  0  0  0  0  0
    1.4814   -3.5673   -2.7784 H   0  0  0  0  0  0  0  0  0  0  0  0
    2.7735   -2.3546   -2.6114 H   0  0  0  0  0  0  0  0  0  0  0  0
  5  6  2  0  0  0  0
  5  7  1  0  0  0  0
  2  3  1  0  0  0  0
  2  4  1  0  0  0  0
  2  5  1  0  0  0  0
  1  2  1  0  0  0  0
 17 18  2  0  0  0  0
 17 19  1  0  0  0  0
 14 15  1  0  0  0  0
 14 16  2  0  0  0  0
 11 12  1  0  0  0  0
 11 13  1  0  0  0  0
 11 14  1  0  0  0  0
  9 10  1  0  0  0  0
  9 11  1  0  0  0  0
  9 17  1  0  0  0  0
  7  8  1  0  0  0  0
  7  9  1  0  0  0  0
 21 22  1  0  0  0  0
 21 23  1  0  0  0  0
 21 24  1  0  0  0  0
 19 20  1  0  0  0  0
 19 21  1  0  0  0  0
M  CHG  1  15  -1
M  END
$$$$
default_name
  -OEChem-01062215323D

 24 23  0     1  0  0  0  0  0999 V2000
   -2.8347   -3.7166    0.8034 H   0  0  0  0  0  0  0  0  0  0  0  0
   -2.7728   -2.7096    0.3954 C   0  0  0  0  0  0  0  0  0  0  0  0
   -3.4267   -2.0426    0.9524 H   0  0  0  0  0  0  0  0  0  0  0  0
   -3.0538   -2.7186   -0.6556 H   0  0  0  0  0  0  0  0  0  0  0  0
   -1.3498   -2.2206    0.5184 C   0  0  0  0  0  0  0  0  0  0  0  0
   -0.4997   -2.9426    1.0194 O   0  0  0  0  0  0  0  0  0  0  0  0
   -1.1198   -0.9926    0.0674 N   0  0  0  0  0  0  0  0  0  0  0  0
   -1.8978   -0.4486   -0.2716 H   0  0  0  0  0  0  0  0  0  0  0  0
    0.1693   -0.2866    0.0854 C   0  0  1  0  0  0  0  0  0  0  0  0
    0.1220    0.5602   -0.6015 H   0  0  0  0  0  0  0  0  0  0  0  0
    0.4329    0.2566    1.5066 C   0  0  0  0  0  0  0  0  0  0  0  0
    0.3060   -0.5578    2.2220 H   0  0  0  0  0  0  0  0  0  0  0  0
    1.4696    0.5947    1.5674 H   0  0  0  0  0  0  0  0  0  0  0  0
   -0.4992    1.4008    1.9349 C   0  0  0  0  0  0  0  0  0  0  0  0
   -0.9652    2.1570    1.0502 O   0  5  0  0  0  0  0  0  0  0  0  0
   -0.7241    1.5214    3.1585 O   0  0  0  0  0  0  0  0  0  0  0  0
    1.2912   -1.2364   -0.3945 C   0  0  0  0  0  0  0  0  0  0  0  0
    2.2352   -1.5191    0.3529 O   0  0  0  0  0  0  0  0  0  0  0  0
    1.1934   -1.7460   -1.6264 N   0  0  0  0  0  0  0  0  0  0  0  0
    0.4263   -1.3854   -2.1969 H   0  0  0  0  0  0  0  0  0  0  0  0
    2.1642   -2.6418   -2.2459 C   0  0  0  0  0  0  0  0  0  0  0  0
    2.4574   -3.4152   -1.5347 H   0  0  0  0  0  0  0  0  0  0  0  0
    1.7237   -3.1038   -3.1290 H   0  0  0  0  0  0  0  0  0  0  0  0
    3.0462   -2.0706   -2.5361 H   0  0  0  0  0  0  0  0  0  0  0  0
  5  6  2  0  0  0  0
  5  7  1  0  0  0  0
  2  3  1  0  0  0  0
  2  4  1  0  0  0  0
  2  5  1  0  0  0  0
  1  2  1  0  0  0  0
 17 18  2  0  0  0  0
 17 19  1  0  0  0  0
 14 15  1  0  0  0  0
 14 16  2  0  0  0  0
 11 12  1  0  0  0  0
 11 13  1  0  0  0  0
 11 14  1  0  0  0  0
  9 10  1  0  0  0  0
  9 11  1  0  0  0  0
  9 17  1  0  0  0  0
  7  8  1  0  0  0  0
  7  9  1  0  0  0  0
 21 22  1  0  0  0  0
 21 23  1  0  0  0  0
 21 24  1  0  0  0  0
 19 20  1  0  0  0  0
 19 21  1  0  0  0  0
M  CHG  1  15  -1
M  END
$$$$
default_name
  -OEChem-01062215323D

 24 23  0     1  0  0  0  0  0999 V2000
   -2.8347   -3.7166    0.8034 H   0  0  0  0  0  0  0  0  0  0  0  0
   -2.7728   -2.7096    0.3954 C   0  0  0  0  0  0  0  0  0  0  0  0
   -3.4267   -2.0426    0.9524 H   0  0  0  0  0  0  0  0  0  0  0  0
   -3.0538   -2.7186   -0.6556 H   0  0  0  0  0  0  0  0  0  0  0  0
   -1.3498   -2.2206    0.5184 C   0  0  0  0  0  0  0  0  0  0  0  0
   -0.4997   -2.9426    1.0194 O   0  0  0  0  0  0  0  0  0  0  0  0
   -1.1198   -0.9926    0.0674 N   0  0  0  0  0  0  0  0  0  0  0  0
   -1.8978   -0.4486   -0.2716 H   0  0  0  0  0  0  0  0  0  0  0  0
    0.1693   -0.2866    0.0854 C   0  0  1  0  0  0  0  0  0  0  0  0
    0.1220    0.5602   -0.6015 H   0  0  0  0  0  0  0  0  0  0  0  0
    0.4329    0.2566    1.5066 C   0  0  0  0  0  0  0  0  0  0  0  0
    0.3060   -0.5578    2.2220 H   0  0  0  0  0  0  0  0  0  0  0  0
    1.4696    0.5947    1.5674 H   0  0  0  0  0  0  0  0  0  0  0  0
   -0.4992    1.4008    1.9349 C   0  0  0  0  0  0  0  0  0  0  0  0
   -0.9652    2.1570    1.0502 O   0  5  0  0  0  0  0  0  0  0  0  0
   -0.7241    1.5214    3.1585 O   0  0  0  0  0  0  0  0  0  0  0  0
    1.2912   -1.2364   -0.3945 C   0  0  0  0  0  0  0  0  0  0  0  0
    2.0770   -1.7388    0.4177 O   0  0  0  0  0  0  0  0  0  0  0  0
    1.3671   -1.5025   -1.7022 N   0  0  0  0  0  0  0  0  0  0  0  0
    0.7309   -0.9729   -2.3012 H   0  0  0  0  0  0  0  0  0  0  0  0
    2.3671   -2.3598   -2.3298 C   0  0  0  0  0  0  0  0  0  0  0  0
    2.4866   -3.2736   -1.7464 H   0  0  0  0  0  0  0  0  0  0  0  0
    2.0508   -2.6097   -3.3422 H   0  0  0  0  0  0  0  0  0  0  0  0
    3.3204   -1.8322   -2.3667 H   0  0  0  0  0  0  0  0  0  0  0  0
  5  6  2  0  0  0  0
  5  7  1  0  0  0  0
  2  3  1  0  0  0  0
  2  4  1  0  0  0  0
  2  5  1  0  0  0  0
  1  2  1  0  0  0  0
 17 18  2  0  0  0  0
 17 19  1  0  0  0  0
 14 15  1  0  0  0  0
 14 16  2  0  0  0  0
 11 12  1  0  0  0  0
 11 13  1  0  0  0  0
 11 14  1  0  0  0  0
  9 10  1  0  0  0  0
  9 11  1  0  0  0  0
  9 17  1  0  0  0  0
  7  8  1  0  0  0  0
  7  9  1  0  0  0  0
 21 22  1  0  0  0  0
 21 23  1  0  0  0  0
 21 24  1  0  0  0  0
 19 20  1  0  0  0  0
 19 21  1  0  0  0  0
M  CHG  1  15  -1
M  END
$$$$
default_name
  -OEChem-01062215323D

 24 23  0     1  0  0  0  0  0999 V2000
   -2.8347   -3.7166    0.8034 H   0  0  0  0  0  0  0  0  0  0  0  0
   -2.7728   -2.7096    0.3954 C   0  0  0  0  0  0  0  0  0  0  0  0
   -3.4267   -2.0426    0.9524 H   0  0  0  0  0  0  0  0  0  0  0  0
   -3.0538   -2.7186   -0.6556 H   0  0  0  0  0  0  0  0  0  0  0  0
   -1.3498   -2.2206    0.5184 C   0  0  0  0  0  0  0  0  0  0  0  0
   -0.4997   -2.9426    1.0194 O   0  0  0  0  0  0  0  0  0  0  0  0
   -1.1198   -0.9926    0.0674 N   0  0  0  0  0  0  0  0  0  0  0  0
   -1.8978   -0.4486   -0.2716 H   0  0  0  0  0  0  0  0  0  0  0  0
    0.1693   -0.2866    0.0854 C   0  0  1  0  0  0  0  0  0  0  0  0
    0.1220    0.5602   -0.6015 H   0  0  0  0  0  0  0  0  0  0  0  0
    0.4329    0.2566    1.5066 C   0  0  0  0  0  0  0  0  0  0  0  0
    0.3060   -0.5578    2.2220 H   0  0  0  0  0  0  0  0  0  0  0  0
    1.4696    0.5947    1.5674 H   0  0  0  0  0  0  0  0  0  0  0  0
   -0.4992    1.4008    1.9349 C   0  0  0  0  0  0  0  0  0  0  0  0
   -0.9652    2.1570    1.0502 O   0  5  0  0  0  0  0  0  0  0  0  0
   -0.7241    1.5214    3.1585 O   0  0  0  0  0  0  0  0  0  0  0  0
    1.2912   -1.2364   -0.3945 C   0  0  0  0  0  0  0  0  0  0  0  0
    1.8962   -1.9504    0.4140 O   0  0  0  0  0  0  0  0  0  0  0  0
    1.5665   -1.2670   -1.7022 N   0  0  0  0  0  0  0  0  0  0  0  0
    1.0748   -0.5793   -2.2760 H   0  0  0  0  0  0  0  0  0  0  0  0
    2.5991   -2.0878   -2.3257 C   0  0  0  0  0  0  0  0  0  0  0  0
    2.5599   -3.0995   -1.9197 H   0  0  0  0  0  0  0  0  0  0  0  0
    2.4403   -2.1187   -3.4033 H   0  0  0  0  0  0  0  0  0  0  0  0
    3.5775   -1.6558   -2.1147 H   0  0  0  0  0  0  0  0  0  0  0  0
  5  6  2  0  0  0  0
  5  7  1  0  0  0  0
  2  3  1  0  0  0  0
  2  4  1  0  0  0  0
  2  5  1  0  0  0  0
  1  2  1  0  0  0  0
 17 18  2  0  0  0  0
 17 19  1  0  0  0  0
 14 15  1  0  0  0  0
 14 16  2  0  0  0  0
 11 12  1  0  0  0  0
 11 13  1  0  0  0  0
 11 14  1  0  0  0  0
  9 10  1  0  0  0  0
  9 11  1  0  0  0  0
  9 17  1  0  0  0  0
  7  8  1  0  0  0  0
  7  9  1  0  0  0  0
 21 22  1  0  0  0  0
 21 23  1  0  0  0  0
 21 24  1  0  0  0  0
 19 20  1  0  0  0  0
 19 21  1  0  0  0  0
M  CHG  1  15  -1
M  END
$$$$
default_name
  -OEChem-01062215323D

 24 23  0     1  0  0  0  0  0999 V2000
   -2.8347   -3.7166    0.8034 H   0  0  0  0  0  0  0  0  0  0  0  0
   -2.7728   -2.7096    0.3954 C   0  0  0  0  0  0  0  0  0  0  0  0
   -3.4267   -2.0426    0.9524 H   0  0  0  0  0  0  0  0  0  0  0  0
   -3.0538   -2.7186   -0.6556 H   0  0  0  0  0  0  0  0  0  0  0  0
   -1.3498   -2.2206    0.5184 C   0  0  0  0  0  0  0  0  0  0  0  0
   -0.4997   -2.9426    1.0194 O   0  0  0  0  0  0  0  0  0  0  0  0
   -1.1198   -0.9926    0.0674 N   0  0  0  0  0  0  0  0  0  0  0  0
   -1.8978   -0.4486   -0.2716 H   0  0  0  0  0  0  0  0  0  0  0  0
    0.1693   -0.2866    0.0854 C   0  0  1  0  0  0  0  0  0  0  0  0
    0.1220    0.5602   -0.6015 H   0  0  0  0  0  0  0  0  0  0  0  0
    0.4329    0.2566    1.5066 C   0  0  0  0  0  0  0  0  0  0  0  0
    0.3060   -0.5578    2.2220 H   0  0  0  0  0  0  0  0  0  0  0  0
    1.4696    0.5947    1.5674 H   0  0  0  0  0  0  0  0  0  0  0  0
   -0.4992    1.4008    1.9349 C   0  0  0  0  0  0  0  0  0  0  0  0
   -0.9652    2.1570    1.0502 O   0  5  0  0  0  0  0  0  0  0  0  0
   -0.7241    1.5214    3.1585 O   0  0  0  0  0  0  0  0  0  0  0  0
    1.2912   -1.2364   -0.3945 C   0  0  0  0  0  0  0  0  0  0  0  0
    1.7052   -2.1396    0.3420 O   0  0  0  0  0  0  0  0  0  0  0  0
    1.7780   -1.0556   -1.6262 N   0  0  0  0  0  0  0  0  0  0  0  0
    1.4347   -0.2314   -2.1232 H   0  0  0  0  0  0  0  0  0  0  0  0
    2.8443   -1.8445   -2.2338 C   0  0  0  0  0  0  0  0  0  0  0  0
    2.6723   -2.9046   -2.0428 H   0  0  0  0  0  0  0  0  0  0  0  0
    2.8657   -1.6643   -3.3082 H   0  0  0  0  0  0  0  0  0  0  0  0
    3.8000   -1.5534   -1.7973 H   0  0  0  0  0  0  0  0  0  0  0  0
  5  6  2  0  0  0  0
  5  7  1  0  0  0  0
  2  3  1  0  0  0  0
  2  4  1  0  0  0  0
  2  5  1  0  0  0  0
  1  2  1  0  0  0  0
 17 18  2  0  0  0  0
 17 19  1  0  0  0  0
 14 15  1  0  0  0  0
 14 16  2  0  0  0  0
 11 12  1  0  0  0  0
 11 13  1  0  0  0  0
 11 14  1  0  0  0  0
  9 10  1  0  0  0  0
  9 11  1  0  0  0  0
  9 17  1  0  0  0  0
  7  8  1  0  0  0  0
  7  9  1  0  0  0  0
 21 22  1  0  0  0  0
 21 23  1  0  0  0  0
 21 24  1  0  0  0  0
 19 20  1  0  0  0  0
 19 21  1  0  0  0  0
M  CHG  1  15  -1
M  END
$$$$
default_name
  -OEChem-01062215323D

 24 23  0     1  0  0  0  0  0999 V2000
   -2.8347   -3.7166    0.8034 H   0  0  0  0  0  0  0  0  0  0  0  0
   -2.7728   -2.7096    0.3954 C   0  0  0  0  0  0  0  0  0  0  0  0
   -3.4267   -2.0426    0.9524 H   0  0  0  0  0  0  0  0  0  0  0  0
   -3.0538   -2.7186   -0.6556 H   0  0  0  0  0  0  0  0  0  0  0  0
   -1.3498   -2.2206    0.5184 C   0  0  0  0  0  0  0  0  0  0  0  0
   -0.4997   -2.9426    1.0194 O   0  0  0  0  0  0  0  0  0  0  0  0
   -1.1198   -0.9926    0.0674 N   0  0  0  0  0  0  0  0  0  0  0  0
   -1.8978   -0.4486   -0.2716 H   0  0  0  0  0  0  0  0  0  0  0  0
    0.1693   -0.2866    0.0854 C   0  0  1  0  0  0  0  0  0  0  0  0
    0.1220    0.5602   -0.6015 H   0  0  0  0  0  0  0  0  0  0  0  0
    0.4329    0.2566    1.5066 C   0  0  0  0  0  0  0  0  0  0  0  0
    0.3060   -0.5578    2.2220 H   0  0  0  0  0  0  0  0  0  0  0  0
    1.4696    0.5947    1.5674 H   0  0  0  0  0  0  0  0  0  0  0  0
   -0.4992    1.4008    1.9349 C   0  0  0  0  0  0  0  0  0  0  0  0
   -0.9652    2.1570    1.0502 O   0  5  0  0  0  0  0  0  0  0  0  0
   -0.7241    1.5214    3.1585 O   0  0  0  0  0  0  0  0  0  0  0  0
    1.2912   -1.2364   -0.3945 C   0  0  0  0  0  0  0  0  0  0  0  0
    1.5170   -2.2935    0.2065 O   0  0  0  0  0  0  0  0  0  0  0  0
    1.9871   -0.8826   -1.4795 N   0  0  0  0  0  0  0  0  0  0  0  0
    1.7859    0.0469   -1.8530 H   0  0  0  0  0  0  0  0  0  0  0  0
    3.0862   -1.6465   -2.0603 C   0  0  0  0  0  0  0  0  0  0  0  0
    2.8160   -2.7023   -2.1072 H   0  0  0  0  0  0  0  0  0  0  0  0
    3.2980   -1.2773   -3.0634 H   0  0  0  0  0  0  0  0  0  0  0  0
    3.9726   -1.5319   -1.4361 H   0  0  0  0  0  0  0  0  0  0  0  0
  5  6  2  0  0  0  0
  5  7  1  0  0  0  0
  2  3  1  0  0  0  0
  2  4  1  0  0  0  0
  2  5  1  0  0  0  0
  1  2  1  0  0  0  0
 17 18  2  0  0  0  0
 17 19  1  0  0  0  0
 14 15  1  0  0  0  0
 14 16  2  0  0  0  0
 11 12  1  0  0  0  0
 11 13  1  0  0  0  0
 11 14  1  0  0  0  0
  9 10  1  0  0  0  0
  9 11  1  0  0  0  0
  9 17  1  0  0  0  0
  7  8  1  0  0  0  0
  7  9  1  0  0  0  0
 21 22  1  0  0  0  0
 21 23  1  0  0  0  0
 21 24  1  0  0  0  0
 19 20  1  0  0  0  0
 19 21  1  0  0  0  0
M  CHG  1  15  -1
M  END
$$$$
default_name
  -OEChem-01062215323D

 24 23  0     1  0  0  0  0  0999 V2000
   -2.8347   -3.7166    0.8034 H   0  0  0  0  0  0  0  0  0  0  0  0
   -2.7728   -2.7096    0.3954 C   0  0  0  0  0  0  0  0  0  0  0  0
   -3.4267   -2.0426    0.9524 H   0  0  0  0  0  0  0  0  0  0  0  0
   -3.0538   -2.7186   -0.6556 H   0  0  0  0  0  0  0  0  0  0  0  0
   -1.3498   -2.2206    0.5184 C   0  0  0  0  0  0  0  0  0  0  0  0
   -0.4997   -2.9426    1.0194 O   0  0  0  0  0  0  0  0  0  0  0  0
   -1.1198   -0.9926    0.0674 N   0  0  0  0  0  0  0  0  0  0  0  0
   -1.8978   -0.4486   -0.2716 H   0  0  0  0  0  0  0  0  0  0  0  0
    0.1693   -0.2866    0.0854 C   0  0  1  0  0  0  0  0  0  0  0  0
    0.1220    0.5602   -0.6015 H   0  0  0  0  0  0  0  0  0  0  0  0
    0.4329    0.2566    1.5066 C   0  0  0  0  0  0  0  0  0  0  0  0
    0.3060   -0.5578    2.2220 H   0  0  0  0  0  0  0  0  0  0  0  0
    1.4696    0.5947    1.5674 H   0  0  0  0  0  0  0  0  0  0  0  0
   -0.4992    1.4008    1.9349 C   0  0  0  0  0  0  0  0  0  0  0  0
   -0.9652    2.1570    1.0502 O   0  5  0  0  0  0  0  0  0  0  0  0
   -0.7241    1.5214    3.1585 O   0  0  0  0  0  0  0  0  0  0  0  0
    1.2912   -1.2364   -0.3945 C   0  0  0  0  0  0  0  0  0  0  0  0
    1.3444   -2.4016    0.0167 O   0  0  0  0  0  0  0  0  0  0  0  0
    2.1798   -0.7599   -1.2720 N   0  0  0  0  0  0  0  0  0  0  0  0
    2.1045    0.2369   -1.4839 H   0  0  0  0  0  0  0  0  0  0  0  0
    3.3081   -1.5072   -1.8171 C   0  0  0  0  0  0  0  0  0  0  0  0
    2.9814   -2.5063   -2.1085 H   0  0  0  0  0  0  0  0  0  0  0  0
    3.7077   -0.9843   -2.6855 H   0  0  0  0  0  0  0  0  0  0  0  0
    4.0837   -1.5929   -1.0558 H   0  0  0  0  0  0  0  0  0  0  0  0
  5  6  2  0  0  0  0
  5  7  1  0  0  0  0
  2  3  1  0  0  0  0
  2  4  1  0  0  0  0
  2  5  1  0  0  0  0
  1  2  1  0  0  0  0
 17 18  2  0  0  0  0
 17 19  1  0  0  0  0
 14 15  1  0  0  0  0
 14 16  2  0  0  0  0
 11 12  1  0  0  0  0
 11 13  1  0  0  0  0
 11 14  1  0  0  0  0
  9 10  1  0  0  0  0
  9 11  1  0  0  0  0
  9 17  1  0  0  0  0
  7  8  1  0  0  0  0
  7  9  1  0  0  0  0
 21 22  1  0  0  0  0
 21 23  1  0  0  0  0
 21 24  1  0  0  0  0
 19 20  1  0  0  0  0
 19 21  1  0  0  0  0
M  CHG  1  15  -1
M  END
$$$$
default_name
  -OEChem-01062215323D

 24 23  0     1  0  0  0  0  0999 V2000
   -2.8347   -3.7166    0.8034 H   0  0  0  0  0  0  0  0  0  0  0  0
   -2.7728   -2.7096    0.3954 C   0  0  0  0  0  0  0  0  0  0  0  0
   -3.4267   -2.0426    0.9524 H   0  0  0  0  0  0  0  0  0  0  0  0
   -3.0538   -2.7186   -0.6556 H   0  0  0  0  0  0  0  0  0  0  0  0
   -1.3498   -2.2206    0.5184 C   0  0  0  0  0  0  0  0  0  0  0  0
   -0.4997   -2.9426    1.0194 O   0  0  0  0  0  0  0  0  0  0  0  0
   -1.1198   -0.9926    0.0674 N   0  0  0  0  0  0  0  0  0  0  0  0
   -1.8978   -0.4486   -0.2716 H   0  0  0  0  0  0  0  0  0  0  0  0
    0.1693   -0.2866    0.0854 C   0  0  1  0  0  0  0  0  0  0  0  0
    0.1220    0.5602   -0.6015 H   0  0  0  0  0  0  0  0  0  0  0  0
    0.4329    0.2566    1.5066 C   0  0  0  0  0  0  0  0  0  0  0  0
    0.3060   -0.5578    2.2220 H   0  0  0  0  0  0  0  0  0  0  0  0
    1.4696    0.5947    1.5674 H   0  0  0  0  0  0  0  0  0  0  0  0
   -0.4992    1.4008    1.9349 C   0  0  0  0  0  0  0  0  0  0  0  0
   -0.9652    2.1570    1.0502 O   0  5  0  0  0  0  0  0  0  0  0  0
   -0.7241    1.5214    3.1585 O   0  0  0  0  0  0  0  0  0  0  0  0
    1.2912   -1.2364   -0.3945 C   0  0  0  0  0  0  0  0  0  0  0  0
    1.1991   -2.4565   -0.2142 O   0  0  0  0  0  0  0  0  0  0  0  0
    2.3427   -0.6957   -1.0180 N   0  0  0  0  0  0  0  0  0  0  0  0
    2.3689    0.3254   -1.0411 H   0  0  0  0  0  0  0  0  0  0  0  0
    3.4950   -1.4362   -1.5207 C   0  0  0  0  0  0  0  0  0  0  0  0
    3.1570   -2.3300   -2.0467 H   0  0  0  0  0  0  0  0  0  0  0  0
    4.0669   -0.8050   -2.2004 H   0  0  0  0  0  0  0  0  0  0  0  0
    4.1256   -1.7322   -0.6822 H   0  0  0  0  0  0  0  0  0  0  0  0
  5  6  2  0  0  0  0
  5  7  1  0  0  0  0
  2  3  1  0  0  0  0
  2  4  1  0  0  0  0
  2  5  1  0  0  0  0
  1  2  1  0  0  0  0
 17 18  2  0  0  0  0
 17 19  1  0  0  0  0
 14 15  1  0  0  0  0
 14 16  2  0  0  0  0
 11 12  1  0  0  0  0
 11 13  1  0  0  0  0
 11 14  1  0  0  0  0
  9 10  1  0  0  0  0
  9 11  1  0  0  0  0
  9 17  1  0  0  0  0
  7  8  1  0  0  0  0
  7  9  1  0  0  0  0
 21 22  1  0  0  0  0
 21 23  1  0  0  0  0
 21 24  1  0  0  0  0
 19 20  1  0  0  0  0
 19 21  1  0  0  0  0
M  CHG  1  15  -1
M  END
$$$$
default_name
  -OEChem-01062215323D

 24 23  0     1  0  0  0  0  0999 V2000
   -2.8347   -3.7166    0.8034 H   0  0  0  0  0  0  0  0  0  0  0  0
   -2.7728   -2.7096    0.3954 C   0  0  0  0  0  0  0  0  0  0  0  0
   -3.4267   -2.0426    0.9524 H   0  0  0  0  0  0  0  0  0  0  0  0
   -3.0538   -2.7186   -0.6556 H   0  0  0  0  0  0  0  0  0  0  0  0
   -1.3498   -2.2206    0.5184 C   0  0  0  0  0  0  0  0  0  0  0  0
   -0.4997   -2.9426    1.0194 O   0  0  0  0  0  0  0  0  0  0  0  0
   -1.1198   -0.9926    0.0674 N   0  0  0  0  0  0  0  0  0  0  0  0
   -1.8978   -0.4486   -0.2716 H   0  0  0  0  0  0  0  0  0  0  0  0
    0.1693   -0.2866    0.0854 C   0  0  1  0  0  0  0  0  0  0  0  0
    0.1220    0.5602   -0.6015 H   0  0  0  0  0  0  0  0  0  0  0  0
    0.4329    0.2566    1.5066 C   0  0  0  0  0  0  0  0  0  0  0  0
    0.3060   -0.5578    2.2220 H   0  0  0  0  0  0  0  0  0  0  0  0
    1.4696    0.5947    1.5674 H   0  0  0  0  0  0  0  0  0  0  0  0
   -0.4992    1.4008    1.9349 C   0  0  0  0  0  0  0  0  0  0  0  0
   -0.9652    2.1570    1.0502 O   0  5  0  0  0  0  0  0  0  0  0  0
   -0.7241    1.5214    3.1585 O   0  0  0  0  0  0  0  0  0  0  0  0
    1.2912   -1.2364   -0.3945 C   0  0  0  0  0  0  0  0  0  0  0  0
    1.0911   -2.4545   -0.4708 O   0  0  0  0  0  0  0  0  0  0  0  0
    2.4649   -0.6946   -0.7347 N   0  0  0  0  0  0  0  0  0  0  0  0
    2.5610    0.3066   -0.5546 H   0  0  0  0  0  0  0  0  0  0  0  0
    3.6341   -1.4382   -1.1915 C   0  0  0  0  0  0  0  0  0  0  0  0
    3.3310   -2.1855   -1.9260 H   0  0  0  0  0  0  0  0  0  0  0  0
    4.3512   -0.7519   -1.6410 H   0  0  0  0  0  0  0  0  0  0  0  0
    4.0955   -1.9402   -0.3408 H   0  0  0  0  0  0  0  0  0  0  0  0
  5  6  2  0  0  0  0
  5  7  1  0  0  0  0
  2  3  1  0  0  0  0
  2  4  1  0  0  0  0
  2  5  1  0  0  0  0
  1  2  1  0  0  0  0
 17 18  2  0  0  0  0
 17 19  1  0  0  0  0
 14 15  1  0  0  0  0
 14 16  2  0  0  0  0
 11 12  1  0  0  0  0
 11 13  1  0  0  0  0
 11 14  1  0  0  0  0
  9 10  1  0  0  0  0
  9 11  1  0  0  0  0
  9 17  1  0  0  0  0
  7  8  1  0  0  0  0
  7  9  1  0  0  0  0
 21 22  1  0  0  0  0
 21 23  1  0  0  0  0
 21 24  1  0  0  0  0
 19 20  1  0  0  0  0
 19 21  1  0  0  0  0
M  CHG  1  15  -1
M  END
$$$$
default_name
  -OEChem-01062215323D

 24 23  0     1  0  0  0  0  0999 V2000
   -2.8347   -3.7166    0.8034 H   0  0  0  0  0  0  0  0  0  0  0  0
   -2.7728   -2.7096    0.3954 C   0  0  0  0  0  0  0  0  0  0  0  0
   -3.4267   -2.0426    0.9524 H   0  0  0  0  0  0  0  0  0  0  0  0
   -3.0538   -2.7186   -0.6556 H   0  0  0  0  0  0  0  0  0  0  0  0
   -1.3498   -2.2206    0.5184 C   0  0  0  0  0  0  0  0  0  0  0  0
   -0.4997   -2.9426    1.0194 O   0  0  0  0  0  0  0  0  0  0  0  0
   -1.1198   -0.9926    0.0674 N   0  0  0  0  0  0  0  0  0  0  0  0
   -1.8978   -0.4486   -0.2716 H   0  0  0  0  0  0  0  0  0  0  0  0
    0.1693   -0.2866    0.0854 C   0  0  1  0  0  0  0  0  0  0  0  0
    0.0462    0.6929   -0.3799 H   0  0  0  0  0  0  0  0  0  0  0  0
    0.6141   -0.0753    1.5489 C   0  0  0  0  0  0  0  0  0  0  0  0
    0.5683   -1.0329    2.0707 H   0  0  0  0  0  0  0  0  0  0  0  0
    1.6540    0.2583    1.5559 H   0  0  0  0  0  0  0  0  0  0  0  0
   -0.2445    0.9254    2.3381 C   0  0  0  0  0  0  0  0  0  0  0  0
   -0.8086    1.8543    1.7131 O   0  5  0  0  0  0  0  0  0  0  0  0
   -0.3137    0.7615    3.5753 O   0  0  0  0  0  0  0  0  0  0  0  0
    1.2119   -1.0830   -0.7330 C   0  0  0  0  0  0  0  0  0  0  0  0
    0.8950   -2.1392   -1.2929 O   0  0  0  0  0  0  0  0  0  0  0  0
    2.4483   -0.5832   -0.8238 N   0  0  0  0  0  0  0  0  0  0  0  0
    2.6355    0.2456   -0.2563 H   0  0  0  0  0  0  0  0  0  0  0  0
    3.5575   -1.2064   -1.5380 C   0  0  0  0  0  0  0  0  0  0  0  0
    3.2158   -1.5599   -2.5117 H   0  0  0  0  0  0  0  0  0  0  0  0
    4.3596   -0.4811   -1.6720 H   0  0  0  0  0  0  0  0  0  0  0  0
    3.9265   -2.0537   -0.9597 H   0  0  0  0  0  0  0  0  0  0  0  0
  5  6  2  0  0  0  0
  5  7  1  0  0  0  0
  2  3  1  0  0  0  0
  2  4  1  0  0  0  0
  2  5  1  0  0  0  0
  1  2  1  0  0  0  0
 17 18  2  0  0  0  0
 17 19  1  0  0  0  0
 14 15  1  0  0  0  0
 14 16  2  0  0  0  0
 11 12  1  0  0  0  0
 11 13  1  0  0  0  0
 11 14  1  0  0  0  0
  9 10  1  0  0  0  0
  9 11  1  0  0  0  0
  9 17  1  0  0  0  0
  7  8  1  0  0  0  0
  7  9  1  0  0  0  0
 21 22  1  0  0  0  0
 21 23  1  0  0  0  0
 21 24  1  0  0  0  0
 19 20  1  0  0  0  0
 19 21  1  0  0  0  0
M  CHG  1  15  -1
M  END
$$$$
default_name
  -OEChem-01062215323D

 24 23  0     1  0  0  0  0  0999 V2000
   -2.8347   -3.7166    0.8034 H   0  0  0  0  0  0  0  0  0  0  0  0
   -2.7728   -2.7096    0.3954 C   0  0  0  0  0  0  0  0  0  0  0  0
   -3.4267   -2.0426    0.9524 H   0  0  0  0  0  0  0  0  0  0  0  0
   -3.0538   -2.7186   -0.6556 H   0  0  0  0  0  0  0  0  0  0  0  0
   -1.3498   -2.2206    0.5184 C   0  0  0  0  0  0  0  0  0  0  0  0
   -0.4997   -2.9426    1.0194 O   0  0  0  0  0  0  0  0  0  0  0  0
   -1.1198   -0.9926    0.0674 N   0  0  0  0  0  0  0  0  0  0  0  0
   -1.8978   -0.4486   -0.2716 H   0  0  0  0  0  0  0  0  0  0  0  0
    0.1693   -0.2866    0.0854 C   0  0  1  0  0  0  0  0  0  0  0  0
    0.0462    0.6929   -0.3799 H   0  0  0  0  0  0  0  0  0  0  0  0
    0.6141   -0.0753    1.5489 C   0  0  0  0  0  0  0  0  0  0  0  0
    0.5683   -1.0329    2.0707 H   0  0  0  0  0  0  0  0  0  0  0  0
    1.6540    0.2583    1.5559 H   0  0  0  0  0  0  0  0  0  0  0  0
   -0.2445    0.9254    2.3381 C   0  0  0  0  0  0  0  0  0  0  0  0
   -0.8086    1.8543    1.7131 O   0  5  0  0  0  0  0  0  0  0  0  0
   -0.3137    0.7615    3.5753 O   0  0  0  0  0  0  0  0  0  0  0  0
    1.2119   -1.0830   -0.7330 C   0  0  0  0  0  0  0  0  0  0  0  0
    0.8502   -1.9731   -1.5117 O   0  0  0  0  0  0  0  0  0  0  0  0
    2.5011   -0.7647   -0.5799 N   0  0  0  0  0  0  0  0  0  0  0  0
    2.7059   -0.0783    0.1487 H   0  0  0  0  0  0  0  0  0  0  0  0
    3.6156   -1.4193   -1.2568 C   0  0  0  0  0  0  0  0  0  0  0  0
    3.3777   -1.5522   -2.3130 H   0  0  0  0  0  0  0  0  0  0  0  0
    4.5130   -0.8095   -1.1570 H   0  0  0  0  0  0  0  0  0  0  0  0
    3.7875   -2.3959   -0.8037 H   0  0  0  0  0  0  0  0  0  0  0  0
  5  6  2  0  0  0  0
  5  7  1  0  0  0  0
  2  3  1  0  0  0  0
  2  4  1  0  0  0  0
  2  5  1  0  0  0  0
  1  2  1  0  0  0  0
 17 18  2  0  0  0  0
 17 19  1  0  0  0  0
 14 15  1  0  0  0  0
 14 16  2  0  0  0  0
 11 12  1  0  0  0  0
 11 13  1  0  0  0  0
 11 14  1  0  0  0  0
  9 10  1  0  0  0  0
  9 11  1  0  0  0  0
  9 17  1  0  0  0  0
  7  8  1  0  0  0  0
  7  9  1  0  0  0  0
 21 22  1  0  0  0  0
 21 23  1  0  0  0  0
 21 24  1  0  0  0  0
 19 20  1  0  0  0  0
 19 21  1  0  0  0  0
M  CHG  1  15  -1
M  END
$$$$
default_name
  -OEChem-01062215323D

 24 23  0     1  0  0  0  0  0999 V2000
   -2.8347   -3.7166    0.8034 H   0  0  0  0  0  0  0  0  0  0  0  0
   -2.7728   -2.7096    0.3954 C   0  0  0  0  0  0  0  0  0  0  0  0
   -3.4267   -2.0426    0.9524 H   0  0  0  0  0  0  0  0  0  0  0  0
   -3.0538   -2.7186   -0.6556 H   0  0  0  0  0  0  0  0  0  0  0  0
   -1.3498   -2.2206    0.5184 C   0  0  0  0  0  0  0  0  0  0  0  0
   -0.4997   -2.9426    1.0194 O   0  0  0  0  0  0  0  0  0  0  0  0
   -1.1198   -0.9926    0.0674 N   0  0  0  0  0  0  0  0  0  0  0  0
   -1.8978   -0.4486   -0.2716 H   0  0  0  0  0  0  0  0  0  0  0  0
    0.1693   -0.2866    0.0854 C   0  0  1  0  0  0  0  0  0  0  0  0
    0.0462    0.6929   -0.3799 H   0  0  0  0  0  0  0  0  0  0  0  0
    0.6141   -0.0753    1.5489 C   0  0  0  0  0  0  0  0  0  0  0  0
    0.5683   -1.0329    2.0707 H   0  0  0  0  0  0  0  0  0  0  0  0
    1.6540    0.2583    1.5559 H   0  0  0  0  0  0  0  0  0  0  0  0
   -0.2445    0.9254    2.3381 C   0  0  0  0  0  0  0  0  0  0  0  0
   -0.8086    1.8543    1.7131 O   0  5  0  0  0  0  0  0  0  0  0  0
   -0.3137    0.7615    3.5753 O   0  0  0  0  0  0  0  0  0  0  0  0
    1.2119   -1.0830   -0.7330 C   0  0  0  0  0  0  0  0  0  0  0  0
    0.8588   -1.7683   -1.7000 O   0  0  0  0  0  0  0  0  0  0  0  0
    2.4947   -0.9898   -0.3690 N   0  0  0  0  0  0  0  0  0  0  0  0
    2.6757   -0.4714    0.4927 H   0  0  0  0  0  0  0  0  0  0  0  0
    3.6050   -1.6821   -1.0146 C   0  0  0  0  0  0  0  0  0  0  0  0
    3.5085   -1.6017   -2.0981 H   0  0  0  0  0  0  0  0  0  0  0  0
    4.5476   -1.2375   -0.6965 H   0  0  0  0  0  0  0  0  0  0  0  0
    3.5857   -2.7346   -0.7313 H   0  0  0  0  0  0  0  0  0  0  0  0
  5  6  2  0  0  0  0
  5  7  1  0  0  0  0
  2  3  1  0  0  0  0
  2  4  1  0  0  0  0
  2  5  1  0  0  0  0
  1  2  1  0  0  0  0
 17 18  2  0  0  0  0
 17 19  1  0  0  0  0
 14 15  1  0  0  0  0
 14 16  2  0  0  0  0
 11 12  1  0  0  0  0
 11 13  1  0  0  0  0
 11 14  1  0  0  0  0
  9 10  1  0  0  0  0
  9 11  1  0  0  0  0
  9 17  1  0  0  0  0
  7  8  1  0  0  0  0
  7  9  1  0  0  0  0
 21 22  1  0  0  0  0
 21 23  1  0  0  0  0
 21 24  1  0  0  0  0
 19 20  1  0  0  0  0
 19 21  1  0  0  0  0
M  CHG  1  15  -1
M  END
$$$$
default_name
  -OEChem-01062215323D

 24 23  0     1  0  0  0  0  0999 V2000
   -2.8347   -3.7166    0.8034 H   0  0  0  0  0  0  0  0  0  0  0  0
   -2.7728   -2.7096    0.3954 C   0  0  0  0  0  0  0  0  0  0  0  0
   -3.4267   -2.0426    0.9524 H   0  0  0  0  0  0  0  0  0  0  0  0
   -3.0538   -2.7186   -0.6556 H   0  0  0  0  0  0  0  0  0  0  0  0
   -1.3498   -2.2206    0.5184 C   0  0  0  0  0  0  0  0  0  0  0  0
   -0.4997   -2.9426    1.0194 O   0  0  0  0  0  0  0  0  0  0  0  0
   -1.1198   -0.9926    0.0674 N   0  0  0  0  0  0  0  0  0  0  0  0
   -1.8978   -0.4486   -0.2716 H   0  0  0  0  0  0  0  0  0  0  0  0
    0.1693   -0.2866    0.0854 C   0  0  1  0  0  0  0  0  0  0  0  0
    0.0462    0.6929   -0.3799 H   0  0  0  0  0  0  0  0  0  0  0  0
    0.6141   -0.0753    1.5489 C   0  0  0  0  0  0  0  0  0  0  0  0
    0.5683   -1.0329    2.0707 H   0  0  0  0  0  0  0  0  0  0  0  0
    1.6540    0.2583    1.5559 H   0  0  0  0  0  0  0  0  0  0  0  0
   -0.2445    0.9254    2.3381 C   0  0  0  0  0  0  0  0  0  0  0  0
   -0.8086    1.8543    1.7131 O   0  5  0  0  0  0  0  0  0  0  0  0
   -0.3137    0.7615    3.5753 O   0  0  0  0  0  0  0  0  0  0  0  0
    1.2119   -1.0830   -0.7330 C   0  0  0  0  0  0  0  0  0  0  0  0
    0.9203   -1.5388   -1.8450 O   0  0  0  0  0  0  0  0  0  0  0  0
    2.4296   -1.2432   -0.2054 N   0  0  0  0  0  0  0  0  0  0  0  0
    2.5467   -0.9071    0.7524 H   0  0  0  0  0  0  0  0  0  0  0  0
    3.5265   -1.9766   -0.8279 C   0  0  0  0  0  0  0  0  0  0  0  0
    3.5995   -1.7049   -1.8818 H   0  0  0  0  0  0  0  0  0  0  0  0
    4.4610   -1.7360   -0.3217 H   0  0  0  0  0  0  0  0  0  0  0  0
    3.3346   -3.0468   -0.7474 H   0  0  0  0  0  0  0  0  0  0  0  0
  5  6  2  0  0  0  0
  5  7  1  0  0  0  0
  2  3  1  0  0  0  0
  2  4  1  0  0  0  0
  2  5  1  0  0  0  0
  1  2  1  0  0  0  0
 17 18  2  0  0  0  0
 17 19  1  0  0  0  0
 14 15  1  0  0  0  0
 14 16  2  0  0  0  0
 11 12  1  0  0  0  0
 11 13  1  0  0  0  0
 11 14  1  0  0  0  0
  9 10  1  0  0  0  0
  9 11  1  0  0  0  0
  9 17  1  0  0  0  0
  7  8  1  0  0  0  0
  7  9  1  0  0  0  0
 21 22  1  0  0  0  0
 21 23  1  0  0  0  0
 21 24  1  0  0  0  0
 19 20  1  0  0  0  0
 19 21  1  0  0  0  0
M  CHG  1  15  -1
M  END
$$$$
default_name
  -OEChem-01062215323D

 24 23  0     1  0  0  0  0  0999 V2000
   -2.8347   -3.7166    0.8034 H   0  0  0  0  0  0  0  0  0  0  0  0
   -2.7728   -2.7096    0.3954 C   0  0  0  0  0  0  0  0  0  0  0  0
   -3.4267   -2.0426    0.9524 H   0  0  0  0  0  0  0  0  0  0  0  0
   -3.0538   -2.7186   -0.6556 H   0  0  0  0  0  0  0  0  0  0  0  0
   -1.3498   -2.2206    0.5184 C   0  0  0  0  0  0  0  0  0  0  0  0
   -0.4997   -2.9426    1.0194 O   0  0  0  0  0  0  0  0  0  0  0  0
   -1.1198   -0.9926    0.0674 N   0  0  0  0  0  0  0  0  0  0  0  0
   -1.8978   -0.4486   -0.2716 H   0  0  0  0  0  0  0  0  0  0  0  0
    0.1693   -0.2866    0.0854 C   0  0  1  0  0  0  0  0  0  0  0  0
    0.0462    0.6929   -0.3799 H   0  0  0  0  0  0  0  0  0  0  0  0
    0.6141   -0.0753    1.5489 C   0  0  0  0  0  0  0  0  0  0  0  0
    0.5683   -1.0329    2.0707 H   0  0  0  0  0  0  0  0  0  0  0  0
    1.6540    0.2583    1.5559 H   0  0  0  0  0  0  0  0  0  0  0  0
   -0.2445    0.9254    2.3381 C   0  0  0  0  0  0  0  0  0  0  0  0
   -0.8086    1.8543    1.7131 O   0  5  0  0  0  0  0  0  0  0  0  0
   -0.3137    0.7615    3.5753 O   0  0  0  0  0  0  0  0  0  0  0  0
    1.2119   -1.0830   -0.7330 C   0  0  0  0  0  0  0  0  0  0  0  0
    1.0304   -1.3002   -1.9369 O   0  0  0  0  0  0  0  0  0  0  0  0
    2.3102   -1.5076   -0.1003 N   0  0  0  0  0  0  0  0  0  0  0  0
    2.3279   -1.3555    0.9100 H   0  0  0  0  0  0  0  0  0  0  0  0
    3.3855   -2.2830   -0.7094 C   0  0  0  0  0  0  0  0  0  0  0  0
    3.6444   -1.8548   -1.6787 H   0  0  0  0  0  0  0  0  0  0  0  0
    4.2591   -2.2711   -0.0582 H   0  0  0  0  0  0  0  0  0  0  0  0
    3.0515   -3.3111   -0.8508 H   0  0  0  0  0  0  0  0  0  0  0  0
  5  6  2  0  0  0  0
  5  7  1  0  0  0  0
  2  3  1  0  0  0  0
  2  4  1  0  0  0  0
  2  5  1  0  0  0  0
  1  2  1  0  0  0  0
 17 18  2  0  0  0  0
 17 19  1  0  0  0  0
 14 15  1  0  0  0  0
 14 16  2  0  0  0  0
 11 12  1  0  0  0  0
 11 13  1  0  0  0  0
 11 14  1  0  0  0  0
  9 10  1  0  0  0  0
  9 11  1  0  0  0  0
  9 17  1  0  0  0  0
  7  8  1  0  0  0  0
  7  9  1  0  0  0  0
 21 22  1  0  0  0  0
 21 23  1  0  0  0  0
 21 24  1  0  0  0  0
 19 20  1  0  0  0  0
 19 21  1  0  0  0  0
M  CHG  1  15  -1
M  END
$$$$
default_name
  -OEChem-01062215323D

 24 23  0     1  0  0  0  0  0999 V2000
   -2.8347   -3.7166    0.8034 H   0  0  0  0  0  0  0  0  0  0  0  0
   -2.7728   -2.7096    0.3954 C   0  0  0  0  0  0  0  0  0  0  0  0
   -3.4267   -2.0426    0.9524 H   0  0  0  0  0  0  0  0  0  0  0  0
   -3.0538   -2.7186   -0.6556 H   0  0  0  0  0  0  0  0  0  0  0  0
   -1.3498   -2.2206    0.5184 C   0  0  0  0  0  0  0  0  0  0  0  0
   -0.4997   -2.9426    1.0194 O   0  0  0  0  0  0  0  0  0  0  0  0
   -1.1198   -0.9926    0.0674 N   0  0  0  0  0  0  0  0  0  0  0  0
   -1.8978   -0.4486   -0.2716 H   0  0  0  0  0  0  0  0  0  0  0  0
    0.1693   -0.2866    0.0854 C   0  0  1  0  0  0  0  0  0  0  0  0
    0.0462    0.6929   -0.3799 H   0  0  0  0  0  0  0  0  0  0  0  0
    0.6141   -0.0753    1.5489 C   0  0  0  0  0  0  0  0  0  0  0  0
    0.5683   -1.0329    2.0707 H   0  0  0  0  0  0  0  0  0  0  0  0
    1.6540    0.2583    1.5559 H   0  0  0  0  0  0  0  0  0  0  0  0
   -0.2445    0.9254    2.3381 C   0  0  0  0  0  0  0  0  0  0  0  0
   -0.8086    1.8543    1.7131 O   0  5  0  0  0  0  0  0  0  0  0  0
   -0.3137    0.7615    3.5753 O   0  0  0  0  0  0  0  0  0  0  0  0
    1.2119   -1.0830   -0.7330 C   0  0  0  0  0  0  0  0  0  0  0  0
    1.1817   -1.0689   -1.9692 O   0  0  0  0  0  0  0  0  0  0  0  0
    2.1446   -1.7649   -0.0608 N   0  0  0  0  0  0  0  0  0  0  0  0
    2.0341   -1.7862    0.9548 H   0  0  0  0  0  0  0  0  0  0  0  0
    3.1915   -2.5803   -0.6673 C   0  0  0  0  0  0  0  0  0  0  0  0
    3.6402   -2.0412   -1.5027 H   0  0  0  0  0  0  0  0  0  0  0  0
    3.9556   -2.8063    0.0760 H   0  0  0  0  0  0  0  0  0  0  0  0
    2.7557   -3.5096   -1.0346 H   0  0  0  0  0  0  0  0  0  0  0  0
  5  6  2  0  0  0  0
  5  7  1  0  0  0  0
  2  3  1  0  0  0  0
  2  4  1  0  0  0  0
  2  5  1  0  0  0  0
  1  2  1  0  0  0  0
 17 18  2  0  0  0  0
 17 19  1  0  0  0  0
 14 15  1  0  0  0  0
 14 16  2  0  0  0  0
 11 12  1  0  0  0  0
 11 13  1  0  0  0  0
 11 14  1  0  0  0  0
  9 10  1  0  0  0  0
  9 11  1  0  0  0  0
  9 17  1  0  0  0  0
  7  8  1  0  0  0  0
  7  9  1  0  0  0  0
 21 22  1  0  0  0  0
 21 23  1  0  0  0  0
 21 24  1  0  0  0  0
 19 20  1  0  0  0  0
 19 21  1  0  0  0  0
M  CHG  1  15  -1
M  END
$$$$
default_name
  -OEChem-01062215323D

 24 23  0     1  0  0  0  0  0999 V2000
   -2.8347   -3.7166    0.8034 H   0  0  0  0  0  0  0  0  0  0  0  0
   -2.7728   -2.7096    0.3954 C   0  0  0  0  0  0  0  0  0  0  0  0
   -3.4267   -2.0426    0.9524 H   0  0  0  0  0  0  0  0  0  0  0  0
   -3.0538   -2.7186   -0.6556 H   0  0  0  0  0  0  0  0  0  0  0  0
   -1.3498   -2.2206    0.5184 C   0  0  0  0  0  0  0  0  0  0  0  0
   -0.4997   -2.9426    1.0194 O   0  0  0  0  0  0  0  0  0  0  0  0
   -1.1198   -0.9926    0.0674 N   0  0  0  0  0  0  0  0  0  0  0  0
   -1.8978   -0.4486   -0.2716 H   0  0  0  0  0  0  0  0  0  0  0  0
    0.1693   -0.2866    0.0854 C   0  0  1  0  0  0  0  0  0  0  0  0
    0.0462    0.6929   -0.3799 H   0  0  0  0  0  0  0  0  0  0  0  0
    0.6141   -0.0753    1.5489 C   0  0  0  0  0  0  0  0  0  0  0  0
    0.5683   -1.0329    2.0707 H   0  0  0  0  0  0  0  0  0  0  0  0
    1.6540    0.2583    1.5559 H   0  0  0  0  0  0  0  0  0  0  0  0
   -0.2445    0.9254    2.3381 C   0  0  0  0  0  0  0  0  0  0  0  0
   -0.8086    1.8543    1.7131 O   0  5  0  0  0  0  0  0  0  0  0  0
   -0.3137    0.7615    3.5753 O   0  0  0  0  0  0  0  0  0  0  0  0
    1.2119   -1.0830   -0.7330 C   0  0  0  0  0  0  0  0  0  0  0  0
    1.3639   -0.8605   -1.9400 O   0  0  0  0  0  0  0  0  0  0  0  0
    1.9442   -1.9977   -0.0896 N   0  0  0  0  0  0  0  0  0  0  0  0
    1.6853   -2.1698    0.8837 H   0  0  0  0  0  0  0  0  0  0  0  0
    2.9578   -2.8483   -0.7043 C   0  0  0  0  0  0  0  0  0  0  0  0
    3.5871   -2.2514   -1.3658 H   0  0  0  0  0  0  0  0  0  0  0  0
    3.5713   -3.3051    0.0718 H   0  0  0  0  0  0  0  0  0  0  0  0
    2.4672   -3.6287   -1.2862 H   0  0  0  0  0  0  0  0  0  0  0  0
  5  6  2  0  0  0  0
  5  7  1  0  0  0  0
  2  3  1  0  0  0  0
  2  4  1  0  0  0  0
  2  5  1  0  0  0  0
  1  2  1  0  0  0  0
 17 18  2  0  0  0  0
 17 19  1  0  0  0  0
 14 15  1  0  0  0  0
 14 16  2  0  0  0  0
 11 12  1  0  0  0  0
 11 13  1  0  0  0  0
 11 14  1  0  0  0  0
  9 10  1  0  0  0  0
  9 11  1  0  0  0  0
  9 17  1  0  0  0  0
  7  8  1  0  0  0  0
  7  9  1  0  0  0  0
 21 22  1  0  0  0  0
 21 23  1  0  0  0  0
 21 24  1  0  0  0  0
 19 20  1  0  0  0  0
 19 21  1  0  0  0  0
M  CHG  1  15  -1
M  END
$$$$
default_name
  -OEChem-01062215323D

 24 23  0     1  0  0  0  0  0999 V2000
   -2.8347   -3.7166    0.8034 H   0  0  0  0  0  0  0  0  0  0  0  0
   -2.7728   -2.7096    0.3954 C   0  0  0  0  0  0  0  0  0  0  0  0
   -3.4267   -2.0426    0.9524 H   0  0  0  0  0  0  0  0  0  0  0  0
   -3.0538   -2.7186   -0.6556 H   0  0  0  0  0  0  0  0  0  0  0  0
   -1.3498   -2.2206    0.5184 C   0  0  0  0  0  0  0  0  0  0  0  0
   -0.4997   -2.9426    1.0194 O   0  0  0  0  0  0  0  0  0  0  0  0
   -1.1198   -0.9926    0.0674 N   0  0  0  0  0  0  0  0  0  0  0  0
   -1.8978   -0.4486   -0.2716 H   0  0  0  0  0  0  0  0  0  0  0  0
    0.1693   -0.2866    0.0854 C   0  0  1  0  0  0  0  0  0  0  0  0
    0.0462    0.6929   -0.3799 H   0  0  0  0  0  0  0  0  0  0  0  0
    0.6141   -0.0753    1.5489 C   0  0  0  0  0  0  0  0  0  0  0  0
    0.5683   -1.0329    2.0707 H   0  0  0  0  0  0  0  0  0  0  0  0
    1.6540    0.2583    1.5559 H   0  0  0  0  0  0  0  0  0  0  0  0
   -0.2445    0.9254    2.3381 C   0  0  0  0  0  0  0  0  0  0  0  0
   -0.8086    1.8543    1.7131 O   0  5  0  0  0  0  0  0  0  0  0  0
   -0.3137    0.7615    3.5753 O   0  0  0  0  0  0  0  0  0  0  0  0
    1.2119   -1.0830   -0.7330 C   0  0  0  0  0  0  0  0  0  0  0  0
    1.5645   -0.6892   -1.8511 O   0  0  0  0  0  0  0  0  0  0  0  0
    1.7225   -2.1901   -0.1848 N   0  0  0  0  0  0  0  0  0  0  0  0
    1.3053   -2.4802    0.7016 H   0  0  0  0  0  0  0  0  0  0  0  0
    2.7003   -3.0686   -0.8180 C   0  0  0  0  0  0  0  0  0  0  0  0
    3.4888   -2.4710   -1.2773 H   0  0  0  0  0  0  0  0  0  0  0  0
    3.1323   -3.7336   -0.0706 H   0  0  0  0  0  0  0  0  0  0  0  0
    2.2058   -3.6604   -1.5885 H   0  0  0  0  0  0  0  0  0  0  0  0
  5  6  2  0  0  0  0
  5  7  1  0  0  0  0
  2  3  1  0  0  0  0
  2  4  1  0  0  0  0
  2  5  1  0  0  0  0
  1  2  1  0  0  0  0
 17 18  2  0  0  0  0
 17 19  1  0  0  0  0
 14 15  1  0  0  0  0
 14 16  2  0  0  0  0
 11 12  1  0  0  0  0
 11 13  1  0  0  0  0
 11 14  1  0  0  0  0
  9 10  1  0  0  0  0
  9 11  1  0  0  0  0
  9 17  1  0  0  0  0
  7  8  1  0  0  0  0
  7  9  1  0  0  0  0
 21 22  1  0  0  0  0
 21 23  1  0  0  0  0
 21 24  1  0  0  0  0
 19 20  1  0  0  0  0
 19 21  1  0  0  0  0
M  CHG  1  15  -1
M  END
$$$$
default_name
  -OEChem-01062215323D

 24 23  0     1  0  0  0  0  0999 V2000
   -2.8347   -3.7166    0.8034 H   0  0  0  0  0  0  0  0  0  0  0  0
   -2.7728   -2.7096    0.3954 C   0  0  0  0  0  0  0  0  0  0  0  0
   -3.4267   -2.0426    0.9524 H   0  0  0  0  0  0  0  0  0  0  0  0
   -3.0538   -2.7186   -0.6556 H   0  0  0  0  0  0  0  0  0  0  0  0
   -1.3498   -2.2206    0.5184 C   0  0  0  0  0  0  0  0  0  0  0  0
   -0.4997   -2.9426    1.0194 O   0  0  0  0  0  0  0  0  0  0  0  0
   -1.1198   -0.9926    0.0674 N   0  0  0  0  0  0  0  0  0  0  0  0
   -1.8978   -0.4486   -0.2716 H   0  0  0  0  0  0  0  0  0  0  0  0
    0.1693   -0.2866    0.0854 C   0  0  1  0  0  0  0  0  0  0  0  0
    0.0462    0.6929   -0.3799 H   0  0  0  0  0  0  0  0  0  0  0  0
    0.6141   -0.0753    1.5489 C   0  0  0  0  0  0  0  0  0  0  0  0
    0.5683   -1.0329    2.0707 H   0  0  0  0  0  0  0  0  0  0  0  0
    1.6540    0.2583    1.5559 H   0  0  0  0  0  0  0  0  0  0  0  0
   -0.2445    0.9254    2.3381 C   0  0  0  0  0  0  0  0  0  0  0  0
   -0.8086    1.8543    1.7131 O   0  5  0  0  0  0  0  0  0  0  0  0
   -0.3137    0.7615    3.5753 O   0  0  0  0  0  0  0  0  0  0  0  0
    1.2119   -1.0830   -0.7330 C   0  0  0  0  0  0  0  0  0  0  0  0
    1.7698   -0.5668   -1.7085 O   0  0  0  0  0  0  0  0  0  0  0  0
    1.4948   -2.3289   -0.3399 N   0  0  0  0  0  0  0  0  0  0  0  0
    0.9201   -2.6962    0.4210 H   0  0  0  0  0  0  0  0  0  0  0  0
    2.4365   -3.2263   -1.0005 C   0  0  0  0  0  0  0  0  0  0  0  0
    3.3520   -2.6852   -1.2432 H   0  0  0  0  0  0  0  0  0  0  0  0
    2.6686   -4.0624   -0.3414 H   0  0  0  0  0  0  0  0  0  0  0  0
    1.9892   -3.6024   -1.9209 H   0  0  0  0  0  0  0  0  0  0  0  0
  5  6  2  0  0  0  0
  5  7  1  0  0  0  0
  2  3  1  0  0  0  0
  2  4  1  0  0  0  0
  2  5  1  0  0  0  0
  1  2  1  0  0  0  0
 17 18  2  0  0  0  0
 17 19  1  0  0  0  0
 14 15  1  0  0  0  0
 14 16  2  0  0  0  0
 11 12  1  0  0  0  0
 11 13  1  0  0  0  0
 11 14  1  0  0  0  0
  9 10  1  0  0  0  0
  9 11  1  0  0  0  0
  9 17  1  0  0  0  0
  7  8  1  0  0  0  0
  7  9  1  0  0  0  0
 21 22  1  0  0  0  0
 21 23  1  0  0  0  0
 21 24  1  0  0  0  0
 19 20  1  0  0  0  0
 19 21  1  0  0  0  0
M  CHG  1  15  -1
M  END
$$$$
default_name
  -OEChem-01062215323D

 24 23  0     1  0  0  0  0  0999 V2000
   -2.8347   -3.7166    0.8034 H   0  0  0  0  0  0  0  0  0  0  0  0
   -2.7728   -2.7096    0.3954 C   0  0  0  0  0  0  0  0  0  0  0  0
   -3.4267   -2.0426    0.9524 H   0  0  0  0  0  0  0  0  0  0  0  0
   -3.0538   -2.7186   -0.6556 H   0  0  0  0  0  0  0  0  0  0  0  0
   -1.3498   -2.2206    0.5184 C   0  0  0  0  0  0  0  0  0  0  0  0
   -0.4997   -2.9426    1.0194 O   0  0  0  0  0  0  0  0  0  0  0  0
   -1.1198   -0.9926    0.0674 N   0  0  0  0  0  0  0  0  0  0  0  0
   -1.8978   -0.4486   -0.2716 H   0  0  0  0  0  0  0  0  0  0  0  0
    0.1693   -0.2866    0.0854 C   0  0  1  0  0  0  0  0  0  0  0  0
    0.0462    0.6929   -0.3799 H   0  0  0  0  0  0  0  0  0  0  0  0
    0.6141   -0.0753    1.5489 C   0  0  0  0  0  0  0  0  0  0  0  0
    0.5683   -1.0329    2.0707 H   0  0  0  0  0  0  0  0  0  0  0  0
    1.6540    0.2583    1.5559 H   0  0  0  0  0  0  0  0  0  0  0  0
   -0.2445    0.9254    2.3381 C   0  0  0  0  0  0  0  0  0  0  0  0
   -0.8086    1.8543    1.7131 O   0  5  0  0  0  0  0  0  0  0  0  0
   -0.3137    0.7615    3.5753 O   0  0  0  0  0  0  0  0  0  0  0  0
    1.2119   -1.0830   -0.7330 C   0  0  0  0  0  0  0  0  0  0  0  0
    1.9660   -0.5015   -1.5221 O   0  0  0  0  0  0  0  0  0  0  0  0
    1.2764   -2.4048   -0.5443 N   0  0  0  0  0  0  0  0  0  0  0  0
    0.5558   -2.8030    0.0608 H   0  0  0  0  0  0  0  0  0  0  0  0
    2.1845   -3.3107   -1.2396 C   0  0  0  0  0  0  0  0  0  0  0  0
    3.1859   -2.8792   -1.2659 H   0  0  0  0  0  0  0  0  0  0  0  0
    2.2117   -4.2693   -0.7222 H   0  0  0  0  0  0  0  0  0  0  0  0
    1.8323   -3.4587   -2.2606 H   0  0  0  0  0  0  0  0  0  0  0  0
  5  6  2  0  0  0  0
  5  7  1  0  0  0  0
  2  3  1  0  0  0  0
  2  4  1  0  0  0  0
  2  5  1  0  0  0  0
  1  2  1  0  0  0  0
 17 18  2  0  0  0  0
 17 19  1  0  0  0  0
 14 15  1  0  0  0  0
 14 16  2  0  0  0  0
 11 12  1  0  0  0  0
 11 13  1  0  0  0  0
 11 14  1  0  0  0  0
  9 10  1  0  0  0  0
  9 11  1  0  0  0  0
  9 17  1  0  0  0  0
  7  8  1  0  0  0  0
  7  9  1  0  0  0  0
 21 22  1  0  0  0  0
 21 23  1  0  0  0  0
 21 24  1  0  0  0  0
 19 20  1  0  0  0  0
 19 21  1  0  0  0  0
M  CHG  1  15  -1
M  END
$$$$
default_name
  -OEChem-01062215323D

 24 23  0     1  0  0  0  0  0999 V2000
   -2.8347   -3.7166    0.8034 H   0  0  0  0  0  0  0  0  0  0  0  0
   -2.7728   -2.7096    0.3954 C   0  0  0  0  0  0  0  0  0  0  0  0
   -3.4267   -2.0426    0.9524 H   0  0  0  0  0  0  0  0  0  0  0  0
   -3.0538   -2.7186   -0.6556 H   0  0  0  0  0  0  0  0  0  0  0  0
   -1.3498   -2.2206    0.5184 C   0  0  0  0  0  0  0  0  0  0  0  0
   -0.4997   -2.9426    1.0194 O   0  0  0  0  0  0  0  0  0  0  0  0
   -1.1198   -0.9926    0.0674 N   0  0  0  0  0  0  0  0  0  0  0  0
   -1.8978   -0.4486   -0.2716 H   0  0  0  0  0  0  0  0  0  0  0  0
    0.1693   -0.2866    0.0854 C   0  0  1  0  0  0  0  0  0  0  0  0
    0.0462    0.6929   -0.3799 H   0  0  0  0  0  0  0  0  0  0  0  0
    0.6141   -0.0753    1.5489 C   0  0  0  0  0  0  0  0  0  0  0  0
    0.5683   -1.0329    2.0707 H   0  0  0  0  0  0  0  0  0  0  0  0
    1.6540    0.2583    1.5559 H   0  0  0  0  0  0  0  0  0  0  0  0
   -0.2445    0.9254    2.3381 C   0  0  0  0  0  0  0  0  0  0  0  0
   -0.8086    1.8543    1.7131 O   0  5  0  0  0  0  0  0  0  0  0  0
   -0.3137    0.7615    3.5753 O   0  0  0  0  0  0  0  0  0  0  0  0
    1.2119   -1.0830   -0.7330 C   0  0  0  0  0  0  0  0  0  0  0  0
    2.1395   -0.4979   -1.3045 O   0  0  0  0  0  0  0  0  0  0  0  0
    1.0824   -2.4124   -0.7840 N   0  0  0  0  0  0  0  0  0  0  0  0
    0.2372   -2.7935   -0.3543 H   0  0  0  0  0  0  0  0  0  0  0  0
    1.9613   -3.3159   -1.5188 C   0  0  0  0  0  0  0  0  0  0  0  0
    3.0020   -3.0399   -1.3439 H   0  0  0  0  0  0  0  0  0  0  0  0
    1.7928   -4.3401   -1.1870 H   0  0  0  0  0  0  0  0  0  0  0  0
    1.7456   -3.2391   -2.5847 H   0  0  0  0  0  0  0  0  0  0  0  0
  5  6  2  0  0  0  0
  5  7  1  0  0  0  0
  2  3  1  0  0  0  0
  2  4  1  0  0  0  0
  2  5  1  0  0  0  0
  1  2  1  0  0  0  0
 17 18  2  0  0  0  0
 17 19  1  0  0  0  0
 14 15  1  0  0  0  0
 14 16  2  0  0  0  0
 11 12  1  0  0  0  0
 11 13  1  0  0  0  0
 11 14  1  0  0  0  0
  9 10  1  0  0  0  0
  9 11  1  0  0  0  0
  9 17  1  0  0  0  0
  7  8  1  0  0  0  0
  7  9  1  0  0  0  0
 21 22  1  0  0  0  0
 21 23  1  0  0  0  0
 21 24  1  0  0  0  0
 19 20  1  0  0  0  0
 19 21  1  0  0  0  0
M  CHG  1  15  -1
M  END
$$$$
default_name
  -OEChem-01062215323D

 24 23  0     1  0  0  0  0  0999 V2000
   -2.8347   -3.7166    0.8034 H   0  0  0  0  0  0  0  0  0  0  0  0
   -2.7728   -2.7096    0.3954 C   0  0  0  0  0  0  0  0  0  0  0  0
   -3.4267   -2.0426    0.9524 H   0  0  0  0  0  0  0  0  0  0  0  0
   -3.0538   -2.7186   -0.6556 H   0  0  0  0  0  0  0  0  0  0  0  0
   -1.3498   -2.2206    0.5184 C   0  0  0  0  0  0  0  0  0  0  0  0
   -0.4997   -2.9426    1.0194 O   0  0  0  0  0  0  0  0  0  0  0  0
   -1.1198   -0.9926    0.0674 N   0  0  0  0  0  0  0  0  0  0  0  0
   -1.8978   -0.4486   -0.2716 H   0  0  0  0  0  0  0  0  0  0  0  0
    0.1693   -0.2866    0.0854 C   0  0  1  0  0  0  0  0  0  0  0  0
    0.0462    0.6929   -0.3799 H   0  0  0  0  0  0  0  0  0  0  0  0
    0.6141   -0.0753    1.5489 C   0  0  0  0  0  0  0  0  0  0  0  0
    0.5683   -1.0329    2.0707 H   0  0  0  0  0  0  0  0  0  0  0  0
    1.6540    0.2583    1.5559 H   0  0  0  0  0  0  0  0  0  0  0  0
   -0.2445    0.9254    2.3381 C   0  0  0  0  0  0  0  0  0  0  0  0
   -0.8086    1.8543    1.7131 O   0  5  0  0  0  0  0  0  0  0  0  0
   -0.3137    0.7615    3.5753 O   0  0  0  0  0  0  0  0  0  0  0  0
    1.2119   -1.0830   -0.7330 C   0  0  0  0  0  0  0  0  0  0  0  0
    2.2787   -0.5562   -1.0706 O   0  0  0  0  0  0  0  0  0  0  0  0
    0.9258   -2.3514   -1.0428 N   0  0  0  0  0  0  0  0  0  0  0  0
   -0.0138   -2.6682   -0.7960 H   0  0  0  0  0  0  0  0  0  0  0  0
    1.7823   -3.2417   -1.8192 C   0  0  0  0  0  0  0  0  0  0  0  0
    2.8127   -3.1564   -1.4718 H   0  0  0  0  0  0  0  0  0  0  0  0
    1.4405   -4.2700   -1.7041 H   0  0  0  0  0  0  0  0  0  0  0  0
    1.7353   -2.9586   -2.8709 H   0  0  0  0  0  0  0  0  0  0  0  0
  5  6  2  0  0  0  0
  5  7  1  0  0  0  0
  2  3  1  0  0  0  0
  2  4  1  0  0  0  0
  2  5  1  0  0  0  0
  1  2  1  0  0  0  0
 17 18  2  0  0  0  0
 17 19  1  0  0  0  0
 14 15  1  0  0  0  0
 14 16  2  0  0  0  0
 11 12  1  0  0  0  0
 11 13  1  0  0  0  0
 11 14  1  0  0  0  0
  9 10  1  0  0  0  0
  9 11  1  0  0  0  0
  9 17  1  0  0  0  0
  7  8  1  0  0  0  0
  7  9  1  0  0  0  0
 21 22  1  0  0  0  0
 21 23  1  0  0  0  0
 21 24  1  0  0  0  0
 19 20  1  0  0  0  0
 19 21  1  0  0  0  0
M  CHG  1  15  -1
M  END
$$$$
default_name
  -OEChem-01062215323D

 24 23  0     1  0  0  0  0  0999 V2000
   -2.8347   -3.7166    0.8034 H   0  0  0  0  0  0  0  0  0  0  0  0
   -2.7728   -2.7096    0.3954 C   0  0  0  0  0  0  0  0  0  0  0  0
   -3.4267   -2.0426    0.9524 H   0  0  0  0  0  0  0  0  0  0  0  0
   -3.0538   -2.7186   -0.6556 H   0  0  0  0  0  0  0  0  0  0  0  0
   -1.3498   -2.2206    0.5184 C   0  0  0  0  0  0  0  0  0  0  0  0
   -0.4997   -2.9426    1.0194 O   0  0  0  0  0  0  0  0  0  0  0  0
   -1.1198   -0.9926    0.0674 N   0  0  0  0  0  0  0  0  0  0  0  0
   -1.8978   -0.4486   -0.2716 H   0  0  0  0  0  0  0  0  0  0  0  0
    0.1693   -0.2866    0.0854 C   0  0  1  0  0  0  0  0  0  0  0  0
    0.0462    0.6929   -0.3799 H   0  0  0  0  0  0  0  0  0  0  0  0
    0.6141   -0.0753    1.5489 C   0  0  0  0  0  0  0  0  0  0  0  0
    0.5683   -1.0329    2.0707 H   0  0  0  0  0  0  0  0  0  0  0  0
    1.6540    0.2583    1.5559 H   0  0  0  0  0  0  0  0  0  0  0  0
   -0.2445    0.9254    2.3381 C   0  0  0  0  0  0  0  0  0  0  0  0
   -0.8086    1.8543    1.7131 O   0  5  0  0  0  0  0  0  0  0  0  0
   -0.3137    0.7615    3.5753 O   0  0  0  0  0  0  0  0  0  0  0  0
    1.2119   -1.0830   -0.7330 C   0  0  0  0  0  0  0  0  0  0  0  0
    2.3739   -0.6723   -0.8363 O   0  0  0  0  0  0  0  0  0  0  0  0
    0.8175   -2.2259   -1.3030 N   0  0  0  0  0  0  0  0  0  0  0  0
   -0.1802   -2.4356   -1.2343 H   0  0  0  0  0  0  0  0  0  0  0  0
    1.6595   -3.0931   -2.1202 C   0  0  0  0  0  0  0  0  0  0  0  0
    2.6309   -3.2206   -1.6408 H   0  0  0  0  0  0  0  0  0  0  0  0
    1.1787   -4.0637   -2.2384 H   0  0  0  0  0  0  0  0  0  0  0  0
    1.8018   -2.6363   -3.0998 H   0  0  0  0  0  0  0  0  0  0  0  0
  5  6  2  0  0  0  0
  5  7  1  0  0  0  0
  2  3  1  0  0  0  0
  2  4  1  0  0  0  0
  2  5  1  0  0  0  0
  1  2  1  0  0  0  0
 17 18  2  0  0  0  0
 17 19  1  0  0  0  0
 14 15  1  0  0  0  0
 14 16  2  0  0  0  0
 11 12  1  0  0  0  0
 11 13  1  0  0  0  0
 11 14  1  0  0  0  0
  9 10  1  0  0  0  0
  9 11  1  0  0  0  0
  9 17  1  0  0  0  0
  7  8  1  0  0  0  0
  7  9  1  0  0  0  0
 21 22  1  0  0  0  0
 21 23  1  0  0  0  0
 21 24  1  0  0  0  0
 19 20  1  0  0  0  0
 19 21  1  0  0  0  0
M  CHG  1  15  -1
M  END
$$$$
default_name
  -OEChem-01062215323D

 24 23  0     1  0  0  0  0  0999 V2000
   -2.8347   -3.7166    0.8034 H   0  0  0  0  0  0  0  0  0  0  0  0
   -2.7728   -2.7096    0.3954 C   0  0  0  0  0  0  0  0  0  0  0  0
   -3.4267   -2.0426    0.9524 H   0  0  0  0  0  0  0  0  0  0  0  0
   -3.0538   -2.7186   -0.6556 H   0  0  0  0  0  0  0  0  0  0  0  0
   -1.3498   -2.2206    0.5184 C   0  0  0  0  0  0  0  0  0  0  0  0
   -0.4997   -2.9426    1.0194 O   0  0  0  0  0  0  0  0  0  0  0  0
   -1.1198   -0.9926    0.0674 N   0  0  0  0  0  0  0  0  0  0  0  0
   -1.8978   -0.4486   -0.2716 H   0  0  0  0  0  0  0  0  0  0  0  0
    0.1693   -0.2866    0.0854 C   0  0  1  0  0  0  0  0  0  0  0  0
    0.0462    0.6929   -0.3799 H   0  0  0  0  0  0  0  0  0  0  0  0
    0.6141   -0.0753    1.5489 C   0  0  0  0  0  0  0  0  0  0  0  0
    0.5683   -1.0329    2.0707 H   0  0  0  0  0  0  0  0  0  0  0  0
    1.6540    0.2583    1.5559 H   0  0  0  0  0  0  0  0  0  0  0  0
   -0.2445    0.9254    2.3381 C   0  0  0  0  0  0  0  0  0  0  0  0
   -0.8086    1.8543    1.7131 O   0  5  0  0  0  0  0  0  0  0  0  0
   -0.3137    0.7615    3.5753 O   0  0  0  0  0  0  0  0  0  0  0  0
    1.2119   -1.0830   -0.7330 C   0  0  0  0  0  0  0  0  0  0  0  0
    2.4187   -0.8384   -0.6175 O   0  0  0  0  0  0  0  0  0  0  0  0
    0.7647   -2.0444   -1.5469 N   0  0  0  0  0  0  0  0  0  0  0  0
   -0.2507   -2.1118   -1.6393 H   0  0  0  0  0  0  0  0  0  0  0  0
    1.6014   -2.8801   -2.4014 C   0  0  0  0  0  0  0  0  0  0  0  0
    2.4691   -3.2283   -1.8395 H   0  0  0  0  0  0  0  0  0  0  0  0
    1.0252   -3.7354   -2.7534 H   0  0  0  0  0  0  0  0  0  0  0  0
    1.9407   -2.2941   -3.2558 H   0  0  0  0  0  0  0  0  0  0  0  0
  5  6  2  0  0  0  0
  5  7  1  0  0  0  0
  2  3  1  0  0  0  0
  2  4  1  0  0  0  0
  2  5  1  0  0  0  0
  1  2  1  0  0  0  0
 17 18  2  0  0  0  0
 17 19  1  0  0  0  0
 14 15  1  0  0  0  0
 14 16  2  0  0  0  0
 11 12  1  0  0  0  0
 11 13  1  0  0  0  0
 11 14  1  0  0  0  0
  9 10  1  0  0  0  0
  9 11  1  0  0  0  0
  9 17  1  0  0  0  0
  7  8  1  0  0  0  0
  7  9  1  0  0  0  0
 21 22  1  0  0  0  0
 21 23  1  0  0  0  0
 21 24  1  0  0  0  0
 19 20  1  0  0  0  0
 19 21  1  0  0  0  0
M  CHG  1  15  -1
M  END
$$$$
default_name
  -OEChem-01062215323D

 24 23  0     1  0  0  0  0  0999 V2000
   -2.8347   -3.7166    0.8034 H   0  0  0  0  0  0  0  0  0  0  0  0
   -2.7728   -2.7096    0.3954 C   0  0  0  0  0  0  0  0  0  0  0  0
   -3.4267   -2.0426    0.9524 H   0  0  0  0  0  0  0  0  0  0  0  0
   -3.0538   -2.7186   -0.6556 H   0  0  0  0  0  0  0  0  0  0  0  0
   -1.3498   -2.2206    0.5184 C   0  0  0  0  0  0  0  0  0  0  0  0
   -0.4997   -2.9426    1.0194 O   0  0  0  0  0  0  0  0  0  0  0  0
   -1.1198   -0.9926    0.0674 N   0  0  0  0  0  0  0  0  0  0  0  0
   -1.8978   -0.4486   -0.2716 H   0  0  0  0  0  0  0  0  0  0  0  0
    0.1693   -0.2866    0.0854 C   0  0  1  0  0  0  0  0  0  0  0  0
    0.0462    0.6929   -0.3799 H   0  0  0  0  0  0  0  0  0  0  0  0
    0.6141   -0.0753    1.5489 C   0  0  0  0  0  0  0  0  0  0  0  0
    0.5683   -1.0329    2.0707 H   0  0  0  0  0  0  0  0  0  0  0  0
    1.6540    0.2583    1.5559 H   0  0  0  0  0  0  0  0  0  0  0  0
   -0.2445    0.9254    2.3381 C   0  0  0  0  0  0  0  0  0  0  0  0
   -0.8086    1.8543    1.7131 O   0  5  0  0  0  0  0  0  0  0  0  0
   -0.3137    0.7615    3.5753 O   0  0  0  0  0  0  0  0  0  0  0  0
    1.2119   -1.0830   -0.7330 C   0  0  0  0  0  0  0  0  0  0  0  0
    2.4101   -1.0432   -0.4292 O   0  0  0  0  0  0  0  0  0  0  0  0
    0.7711   -1.8193   -1.7578 N   0  0  0  0  0  0  0  0  0  0  0  0
   -0.2204   -1.7186   -1.9833 H   0  0  0  0  0  0  0  0  0  0  0  0
    1.6120   -2.6174   -2.6436 C   0  0  0  0  0  0  0  0  0  0  0  0
    2.3383   -3.1788   -2.0544 H   0  0  0  0  0  0  0  0  0  0  0  0
    0.9907   -3.3074   -3.2140 H   0  0  0  0  0  0  0  0  0  0  0  0
    2.1426   -1.9554   -3.3282 H   0  0  0  0  0  0  0  0  0  0  0  0
  5  6  2  0  0  0  0
  5  7  1  0  0  0  0
  2  3  1  0  0  0  0
  2  4  1  0  0  0  0
  2  5  1  0  0  0  0
  1  2  1  0  0  0  0
 17 18  2  0  0  0  0
 17 19  1  0  0  0  0
 14 15  1  0  0  0  0
 14 16  2  0  0  0  0
 11 12  1  0  0  0  0
 11 13  1  0  0  0  0
 11 14  1  0  0  0  0
  9 10  1  0  0  0  0
  9 11  1  0  0  0  0
  9 17  1  0  0  0  0
  7  8  1  0  0  0  0
  7  9  1  0  0  0  0
 21 22  1  0  0  0  0
 21 23  1  0  0  0  0
 21 24  1  0  0  0  0
 19 20  1  0  0  0  0
 19 21  1  0  0  0  0
M  CHG  1  15  -1
M  END
$$$$
default_name
  -OEChem-01062215323D

 24 23  0     1  0  0  0  0  0999 V2000
   -2.8347   -3.7166    0.8034 H   0  0  0  0  0  0  0  0  0  0  0  0
   -2.7728   -2.7096    0.3954 C   0  0  0  0  0  0  0  0  0  0  0  0
   -3.4267   -2.0426    0.9524 H   0  0  0  0  0  0  0  0  0  0  0  0
   -3.0538   -2.7186   -0.6556 H   0  0  0  0  0  0  0  0  0  0  0  0
   -1.3498   -2.2206    0.5184 C   0  0  0  0  0  0  0  0  0  0  0  0
   -0.4997   -2.9426    1.0194 O   0  0  0  0  0  0  0  0  0  0  0  0
   -1.1198   -0.9926    0.0674 N   0  0  0  0  0  0  0  0  0  0  0  0
   -1.8978   -0.4486   -0.2716 H   0  0  0  0  0  0  0  0  0  0  0  0
    0.1693   -0.2866    0.0854 C   0  0  1  0  0  0  0  0  0  0  0  0
    0.0462    0.6929   -0.3799 H   0  0  0  0  0  0  0  0  0  0  0  0
    0.6141   -0.0753    1.5489 C   0  0  0  0  0  0  0  0  0  0  0  0
    0.5683   -1.0329    2.0707 H   0  0  0  0  0  0  0  0  0  0  0  0
    1.6540    0.2583    1.5559 H   0  0  0  0  0  0  0  0  0  0  0  0
   -0.2445    0.9254    2.3381 C   0  0  0  0  0  0  0  0  0  0  0  0
   -0.8086    1.8543    1.7131 O   0  5  0  0  0  0  0  0  0  0  0  0
   -0.3137    0.7615    3.5753 O   0  0  0  0  0  0  0  0  0  0  0  0
    1.2119   -1.0830   -0.7330 C   0  0  0  0  0  0  0  0  0  0  0  0
    2.3486   -1.2727   -0.2842 O   0  0  0  0  0  0  0  0  0  0  0  0
    0.8362   -1.5659   -1.9214 N   0  0  0  0  0  0  0  0  0  0  0  0
   -0.0915   -1.2830   -2.2430 H   0  0  0  0  0  0  0  0  0  0  0  0
    1.6904   -2.3228   -2.8303 C   0  0  0  0  0  0  0  0  0  0  0  0
    2.2473   -3.0756   -2.2708 H   0  0  0  0  0  0  0  0  0  0  0  0
    1.0773   -2.8088   -3.5888 H   0  0  0  0  0  0  0  0  0  0  0  0
    2.3936   -1.6432   -3.3121 H   0  0  0  0  0  0  0  0  0  0  0  0
  5  6  2  0  0  0  0
  5  7  1  0  0  0  0
  2  3  1  0  0  0  0
  2  4  1  0  0  0  0
  2  5  1  0  0  0  0
  1  2  1  0  0  0  0
 17 18  2  0  0  0  0
 17 19  1  0  0  0  0
 14 15  1  0  0  0  0
 14 16  2  0  0  0  0
 11 12  1  0  0  0  0
 11 13  1  0  0  0  0
 11 14  1  0  0  0  0
  9 10  1  0  0  0  0
  9 11  1  0  0  0  0
  9 17  1  0  0  0  0
  7  8  1  0  0  0  0
  7  9  1  0  0  0  0
 21 22  1  0  0  0  0
 21 23  1  0  0  0  0
 21 24  1  0  0  0  0
 19 20  1  0  0  0  0
 19 21  1  0  0  0  0
M  CHG  1  15  -1
M  END
$$$$
default_name
  -OEChem-01062215323D

 24 23  0     1  0  0  0  0  0999 V2000
   -2.8347   -3.7166    0.8034 H   0  0  0  0  0  0  0  0  0  0  0  0
   -2.7728   -2.7096    0.3954 C   0  0  0  0  0  0  0  0  0  0  0  0
   -3.4267   -2.0426    0.9524 H   0  0  0  0  0  0  0  0  0  0  0  0
   -3.0538   -2.7186   -0.6556 H   0  0  0  0  0  0  0  0  0  0  0  0
   -1.3498   -2.2206    0.5184 C   0  0  0  0  0  0  0  0  0  0  0  0
   -0.4997   -2.9426    1.0194 O   0  0  0  0  0  0  0  0  0  0  0  0
   -1.1198   -0.9926    0.0674 N   0  0  0  0  0  0  0  0  0  0  0  0
   -1.8978   -0.4486   -0.2716 H   0  0  0  0  0  0  0  0  0  0  0  0
    0.1693   -0.2866    0.0854 C   0  0  1  0  0  0  0  0  0  0  0  0
    0.0462    0.6929   -0.3799 H   0  0  0  0  0  0  0  0  0  0  0  0
    0.6141   -0.0753    1.5489 C   0  0  0  0  0  0  0  0  0  0  0  0
    0.5683   -1.0329    2.0707 H   0  0  0  0  0  0  0  0  0  0  0  0
    1.6540    0.2583    1.5559 H   0  0  0  0  0  0  0  0  0  0  0  0
   -0.2445    0.9254    2.3381 C   0  0  0  0  0  0  0  0  0  0  0  0
   -0.8086    1.8543    1.7131 O   0  5  0  0  0  0  0  0  0  0  0  0
   -0.3137    0.7615    3.5753 O   0  0  0  0  0  0  0  0  0  0  0  0
    1.2119   -1.0830   -0.7330 C   0  0  0  0  0  0  0  0  0  0  0  0
    2.2385   -1.5113   -0.1923 O   0  0  0  0  0  0  0  0  0  0  0  0
    0.9556   -1.3016   -2.0265 N   0  0  0  0  0  0  0  0  0  0  0  0
    0.1274   -0.8345   -2.4006 H   0  0  0  0  0  0  0  0  0  0  0  0
    1.8315   -2.0165   -2.9488 C   0  0  0  0  0  0  0  0  0  0  0  0
    2.2024   -2.9257   -2.4739 H   0  0  0  0  0  0  0  0  0  0  0  0
    1.2792   -2.2737   -3.8522 H   0  0  0  0  0  0  0  0  0  0  0  0
    2.6767   -1.3789   -3.2087 H   0  0  0  0  0  0  0  0  0  0  0  0
  5  6  2  0  0  0  0
  5  7  1  0  0  0  0
  2  3  1  0  0  0  0
  2  4  1  0  0  0  0
  2  5  1  0  0  0  0
  1  2  1  0  0  0  0
 17 18  2  0  0  0  0
 17 19  1  0  0  0  0
 14 15  1  0  0  0  0
 14 16  2  0  0  0  0
 11 12  1  0  0  0  0
 11 13  1  0  0  0  0
 11 14  1  0  0  0  0
  9 10  1  0  0  0  0
  9 11  1  0  0  0  0
  9 17  1  0  0  0  0
  7  8  1  0  0  0  0
  7  9  1  0  0  0  0
 21 22  1  0  0  0  0
 21 23  1  0  0  0  0
 21 24  1  0  0  0  0
 19 20  1  0  0  0  0
 19 21  1  0  0  0  0
M  CHG  1  15  -1
M  END
$$$$
default_name
  -OEChem-01062215323D

 24 23  0     1  0  0  0  0  0999 V2000
   -2.8347   -3.7166    0.8034 H   0  0  0  0  0  0  0  0  0  0  0  0
   -2.7728   -2.7096    0.3954 C   0  0  0  0  0  0  0  0  0  0  0  0
   -3.4267   -2.0426    0.9524 H   0  0  0  0  0  0  0  0  0  0  0  0
   -3.0538   -2.7186   -0.6556 H   0  0  0  0  0  0  0  0  0  0  0  0
   -1.3498   -2.2206    0.5184 C   0  0  0  0  0  0  0  0  0  0  0  0
   -0.4997   -2.9426    1.0194 O   0  0  0  0  0  0  0  0  0  0  0  0
   -1.1198   -0.9926    0.0674 N   0  0  0  0  0  0  0  0  0  0  0  0
   -1.8978   -0.4486   -0.2716 H   0  0  0  0  0  0  0  0  0  0  0  0
    0.1693   -0.2866    0.0854 C   0  0  1  0  0  0  0  0  0  0  0  0
    0.0462    0.6929   -0.3799 H   0  0  0  0  0  0  0  0  0  0  0  0
    0.6141   -0.0753    1.5489 C   0  0  0  0  0  0  0  0  0  0  0  0
    0.5683   -1.0329    2.0707 H   0  0  0  0  0  0  0  0  0  0  0  0
    1.6540    0.2583    1.5559 H   0  0  0  0  0  0  0  0  0  0  0  0
   -0.2445    0.9254    2.3381 C   0  0  0  0  0  0  0  0  0  0  0  0
   -0.8086    1.8543    1.7131 O   0  5  0  0  0  0  0  0  0  0  0  0
   -0.3137    0.7615    3.5753 O   0  0  0  0  0  0  0  0  0  0  0  0
    1.2119   -1.0830   -0.7330 C   0  0  0  0  0  0  0  0  0  0  0  0
    2.0872   -1.7426   -0.1599 O   0  0  0  0  0  0  0  0  0  0  0  0
    1.1212   -1.0442   -2.0660 N   0  0  0  0  0  0  0  0  0  0  0  0
    0.4212   -0.4038   -2.4454 H   0  0  0  0  0  0  0  0  0  0  0  0
    2.0255   -1.7192   -2.9910 C   0  0  0  0  0  0  0  0  0  0  0  0
    2.2066   -2.7393   -2.6499 H   0  0  0  0  0  0  0  0  0  0  0  0
    1.5827   -1.7385   -3.9864 H   0  0  0  0  0  0  0  0  0  0  0  0
    2.9726   -1.1804   -3.0249 H   0  0  0  0  0  0  0  0  0  0  0  0
  5  6  2  0  0  0  0
  5  7  1  0  0  0  0
  2  3  1  0  0  0  0
  2  4  1  0  0  0  0
  2  5  1  0  0  0  0
  1  2  1  0  0  0  0
 17 18  2  0  0  0  0
 17 19  1  0  0  0  0
 14 15  1  0  0  0  0
 14 16  2  0  0  0  0
 11 12  1  0  0  0  0
 11 13  1  0  0  0  0
 11 14  1  0  0  0  0
  9 10  1  0  0  0  0
  9 11  1  0  0  0  0
  9 17  1  0  0  0  0
  7  8  1  0  0  0  0
  7  9  1  0  0  0  0
 21 22  1  0  0  0  0
 21 23  1  0  0  0  0
 21 24  1  0  0  0  0
 19 20  1  0  0  0  0
 19 21  1  0  0  0  0
M  CHG  1  15  -1
M  END
$$$$
default_name
  -OEChem-01062215323D

 24 23  0     1  0  0  0  0  0999 V2000
   -2.8347   -3.7166    0.8034 H   0  0  0  0  0  0  0  0  0  0  0  0
   -2.7728   -2.7096    0.3954 C   0  0  0  0  0  0  0  0  0  0  0  0
   -3.4267   -2.0426    0.9524 H   0  0  0  0  0  0  0  0  0  0  0  0
   -3.0538   -2.7186   -0.6556 H   0  0  0  0  0  0  0  0  0  0  0  0
   -1.3498   -2.2206    0.5184 C   0  0  0  0  0  0  0  0  0  0  0  0
   -0.4997   -2.9426    1.0194 O   0  0  0  0  0  0  0  0  0  0  0  0
   -1.1198   -0.9926    0.0674 N   0  0  0  0  0  0  0  0  0  0  0  0
   -1.8978   -0.4486   -0.2716 H   0  0  0  0  0  0  0  0  0  0  0  0
    0.1693   -0.2866    0.0854 C   0  0  1  0  0  0  0  0  0  0  0  0
    0.0462    0.6929   -0.3799 H   0  0  0  0  0  0  0  0  0  0  0  0
    0.6141   -0.0753    1.5489 C   0  0  0  0  0  0  0  0  0  0  0  0
    0.5683   -1.0329    2.0707 H   0  0  0  0  0  0  0  0  0  0  0  0
    1.6540    0.2583    1.5559 H   0  0  0  0  0  0  0  0  0  0  0  0
   -0.2445    0.9254    2.3381 C   0  0  0  0  0  0  0  0  0  0  0  0
   -0.8086    1.8543    1.7131 O   0  5  0  0  0  0  0  0  0  0  0  0
   -0.3137    0.7615    3.5753 O   0  0  0  0  0  0  0  0  0  0  0  0
    1.2119   -1.0830   -0.7330 C   0  0  0  0  0  0  0  0  0  0  0  0
    1.9050   -1.9510   -0.1892 O   0  0  0  0  0  0  0  0  0  0  0  0
    1.3216   -0.8114   -2.0372 N   0  0  0  0  0  0  0  0  0  0  0  0
    0.7700   -0.0202   -2.3743 H   0  0  0  0  0  0  0  0  0  0  0  0
    2.2592   -1.4512   -2.9539 C   0  0  0  0  0  0  0  0  0  0  0  0
    2.2597   -2.5291   -2.7868 H   0  0  0  0  0  0  0  0  0  0  0  0
    1.9670   -1.2397   -3.9822 H   0  0  0  0  0  0  0  0  0  0  0  0
    3.2611   -1.0612   -2.7733 H   0  0  0  0  0  0  0  0  0  0  0  0
  5  6  2  0  0  0  0
  5  7  1  0  0  0  0
  2  3  1  0  0  0  0
  2  4  1  0  0  0  0
  2  5  1  0  0  0  0
  1  2  1  0  0  0  0
 17 18  2  0  0  0  0
 17 19  1  0  0  0  0
 14 15  1  0  0  0  0
 14 16  2  0  0  0  0
 11 12  1  0  0  0  0
 11 13  1  0  0  0  0
 11 14  1  0  0  0  0
  9 10  1  0  0  0  0
  9 11  1  0  0  0  0
  9 17  1  0  0  0  0
  7  8  1  0  0  0  0
  7  9  1  0  0  0  0
 21 22  1  0  0  0  0
 21 23  1  0  0  0  0
 21 24  1  0  0  0  0
 19 20  1  0  0  0  0
 19 21  1  0  0  0  0
M  CHG  1  15  -1
M  END
$$$$
default_name
  -OEChem-01062215323D

 24 23  0     1  0  0  0  0  0999 V2000
   -2.8347   -3.7166    0.8034 H   0  0  0  0  0  0  0  0  0  0  0  0
   -2.7728   -2.7096    0.3954 C   0  0  0  0  0  0  0  0  0  0  0  0
   -3.4267   -2.0426    0.9524 H   0  0  0  0  0  0  0  0  0  0  0  0
   -3.0538   -2.7186   -0.6556 H   0  0  0  0  0  0  0  0  0  0  0  0
   -1.3498   -2.2206    0.5184 C   0  0  0  0  0  0  0  0  0  0  0  0
   -0.4997   -2.9426    1.0194 O   0  0  0  0  0  0  0  0  0  0  0  0
   -1.1198   -0.9926    0.0674 N   0  0  0  0  0  0  0  0  0  0  0  0
   -1.8978   -0.4486   -0.2716 H   0  0  0  0  0  0  0  0  0  0  0  0
    0.1693   -0.2866    0.0854 C   0  0  1  0  0  0  0  0  0  0  0  0
    0.0462    0.6929   -0.3799 H   0  0  0  0  0  0  0  0  0  0  0  0
    0.6141   -0.0753    1.5489 C   0  0  0  0  0  0  0  0  0  0  0  0
    0.5683   -1.0329    2.0707 H   0  0  0  0  0  0  0  0  0  0  0  0
    1.6540    0.2583    1.5559 H   0  0  0  0  0  0  0  0  0  0  0  0
   -0.2445    0.9254    2.3381 C   0  0  0  0  0  0  0  0  0  0  0  0
   -0.8086    1.8543    1.7131 O   0  5  0  0  0  0  0  0  0  0  0  0
   -0.3137    0.7615    3.5753 O   0  0  0  0  0  0  0  0  0  0  0  0
    1.2119   -1.0830   -0.7330 C   0  0  0  0  0  0  0  0  0  0  0  0
    1.7044   -2.1223   -0.2781 O   0  0  0  0  0  0  0  0  0  0  0  0
    1.5433   -0.6191   -1.9420 N   0  0  0  0  0  0  0  0  0  0  0  0
    1.1500    0.2902   -2.1922 H   0  0  0  0  0  0  0  0  0  0  0  0
    2.5167   -1.2309   -2.8403 C   0  0  0  0  0  0  0  0  0  0  0  0
    2.3580   -2.3095   -2.8753 H   0  0  0  0  0  0  0  0  0  0  0  0
    2.4060   -0.8113   -3.8398 H   0  0  0  0  0  0  0  0  0  0  0  0
    3.5225   -1.0296   -2.4710 H   0  0  0  0  0  0  0  0  0  0  0  0
  5  6  2  0  0  0  0
  5  7  1  0  0  0  0
  2  3  1  0  0  0  0
  2  4  1  0  0  0  0
  2  5  1  0  0  0  0
  1  2  1  0  0  0  0
 17 18  2  0  0  0  0
 17 19  1  0  0  0  0
 14 15  1  0  0  0  0
 14 16  2  0  0  0  0
 11 12  1  0  0  0  0
 11 13  1  0  0  0  0
 11 14  1  0  0  0  0
  9 10  1  0  0  0  0
  9 11  1  0  0  0  0
  9 17  1  0  0  0  0
  7  8  1  0  0  0  0
  7  9  1  0  0  0  0
 21 22  1  0  0  0  0
 21 23  1  0  0  0  0
 21 24  1  0  0  0  0
 19 20  1  0  0  0  0
 19 21  1  0  0  0  0
M  CHG  1  15  -1
M  END
$$$$
default_name
  -OEChem-01062215323D

 24 23  0     1  0  0  0  0  0999 V2000
   -2.8347   -3.7166    0.8034 H   0  0  0  0  0  0  0  0  0  0  0  0
   -2.7728   -2.7096    0.3954 C   0  0  0  0  0  0  0  0  0  0  0  0
   -3.4267   -2.0426    0.9524 H   0  0  0  0  0  0  0  0  0  0  0  0
   -3.0538   -2.7186   -0.6556 H   0  0  0  0  0  0  0  0  0  0  0  0
   -1.3498   -2.2206    0.5184 C   0  0  0  0  0  0  0  0  0  0  0  0
   -0.4997   -2.9426    1.0194 O   0  0  0  0  0  0  0  0  0  0  0  0
   -1.1198   -0.9926    0.0674 N   0  0  0  0  0  0  0  0  0  0  0  0
   -1.8978   -0.4486   -0.2716 H   0  0  0  0  0  0  0  0  0  0  0  0
    0.1693   -0.2866    0.0854 C   0  0  1  0  0  0  0  0  0  0  0  0
    0.0462    0.6929   -0.3799 H   0  0  0  0  0  0  0  0  0  0  0  0
    0.6141   -0.0753    1.5489 C   0  0  0  0  0  0  0  0  0  0  0  0
    0.5683   -1.0329    2.0707 H   0  0  0  0  0  0  0  0  0  0  0  0
    1.6540    0.2583    1.5559 H   0  0  0  0  0  0  0  0  0  0  0  0
   -0.2445    0.9254    2.3381 C   0  0  0  0  0  0  0  0  0  0  0  0
   -0.8086    1.8543    1.7131 O   0  5  0  0  0  0  0  0  0  0  0  0
   -0.3137    0.7615    3.5753 O   0  0  0  0  0  0  0  0  0  0  0  0
    1.2119   -1.0830   -0.7330 C   0  0  0  0  0  0  0  0  0  0  0  0
    1.4991   -2.2447   -0.4207 O   0  0  0  0  0  0  0  0  0  0  0  0
    1.7711   -0.4802   -1.7869 N   0  0  0  0  0  0  0  0  0  0  0  0
    1.5352    0.5061   -1.9116 H   0  0  0  0  0  0  0  0  0  0  0  0
    2.7805   -1.0731   -2.6577 C   0  0  0  0  0  0  0  0  0  0  0  0
    2.4948   -2.0953   -2.9093 H   0  0  0  0  0  0  0  0  0  0  0  0
    2.8697   -0.4824   -3.5690 H   0  0  0  0  0  0  0  0  0  0  0  0
    3.7391   -1.0876   -2.1387 H   0  0  0  0  0  0  0  0  0  0  0  0
  5  6  2  0  0  0  0
  5  7  1  0  0  0  0
  2  3  1  0  0  0  0
  2  4  1  0  0  0  0
  2  5  1  0  0  0  0
  1  2  1  0  0  0  0
 17 18  2  0  0  0  0
 17 19  1  0  0  0  0
 14 15  1  0  0  0  0
 14 16  2  0  0  0  0
 11 12  1  0  0  0  0
 11 13  1  0  0  0  0
 11 14  1  0  0  0  0
  9 10  1  0  0  0  0
  9 11  1  0  0  0  0
  9 17  1  0  0  0  0
  7  8  1  0  0  0  0
  7  9  1  0  0  0  0
 21 22  1  0  0  0  0
 21 23  1  0  0  0  0
 21 24  1  0  0  0  0
 19 20  1  0  0  0  0
 19 21  1  0  0  0  0
M  CHG  1  15  -1
M  END
$$$$
default_name
  -OEChem-01062215323D

 24 23  0     1  0  0  0  0  0999 V2000
   -2.8347   -3.7166    0.8034 H   0  0  0  0  0  0  0  0  0  0  0  0
   -2.7728   -2.7096    0.3954 C   0  0  0  0  0  0  0  0  0  0  0  0
   -3.4267   -2.0426    0.9524 H   0  0  0  0  0  0  0  0  0  0  0  0
   -3.0538   -2.7186   -0.6556 H   0  0  0  0  0  0  0  0  0  0  0  0
   -1.3498   -2.2206    0.5184 C   0  0  0  0  0  0  0  0  0  0  0  0
   -0.4997   -2.9426    1.0194 O   0  0  0  0  0  0  0  0  0  0  0  0
   -1.1198   -0.9926    0.0674 N   0  0  0  0  0  0  0  0  0  0  0  0
   -1.8978   -0.4486   -0.2716 H   0  0  0  0  0  0  0  0  0  0  0  0
    0.1693   -0.2866    0.0854 C   0  0  1  0  0  0  0  0  0  0  0  0
    0.0462    0.6929   -0.3799 H   0  0  0  0  0  0  0  0  0  0  0  0
    0.6141   -0.0753    1.5489 C   0  0  0  0  0  0  0  0  0  0  0  0
    0.5683   -1.0329    2.0707 H   0  0  0  0  0  0  0  0  0  0  0  0
    1.6540    0.2583    1.5559 H   0  0  0  0  0  0  0  0  0  0  0  0
   -0.2445    0.9254    2.3381 C   0  0  0  0  0  0  0  0  0  0  0  0
   -0.8086    1.8543    1.7131 O   0  5  0  0  0  0  0  0  0  0  0  0
   -0.3137    0.7615    3.5753 O   0  0  0  0  0  0  0  0  0  0  0  0
    1.2119   -1.0830   -0.7330 C   0  0  0  0  0  0  0  0  0  0  0  0
    1.3029   -2.3100   -0.6071 O   0  0  0  0  0  0  0  0  0  0  0  0
    1.9894   -0.4044   -1.5825 N   0  0  0  0  0  0  0  0  0  0  0  0
    1.8995    0.6130   -1.5514 H   0  0  0  0  0  0  0  0  0  0  0  0
    3.0325   -0.9888   -2.4187 C   0  0  0  0  0  0  0  0  0  0  0  0
    2.6609   -1.9013   -2.8866 H   0  0  0  0  0  0  0  0  0  0  0  0
    3.3266   -0.2756   -3.1882 H   0  0  0  0  0  0  0  0  0  0  0  0
    3.8960   -1.2313   -1.7989 H   0  0  0  0  0  0  0  0  0  0  0  0
  5  6  2  0  0  0  0
  5  7  1  0  0  0  0
  2  3  1  0  0  0  0
  2  4  1  0  0  0  0
  2  5  1  0  0  0  0
  1  2  1  0  0  0  0
 17 18  2  0  0  0  0
 17 19  1  0  0  0  0
 14 15  1  0  0  0  0
 14 16  2  0  0  0  0
 11 12  1  0  0  0  0
 11 13  1  0  0  0  0
 11 14  1  0  0  0  0
  9 10  1  0  0  0  0
  9 11  1  0  0  0  0
  9 17  1  0  0  0  0
  7  8  1  0  0  0  0
  7  9  1  0  0  0  0
 21 22  1  0  0  0  0
 21 23  1  0  0  0  0
 21 24  1  0  0  0  0
 19 20  1  0  0  0  0
 19 21  1  0  0  0  0
M  CHG  1  15  -1
M  END
$$$$
default_name
  -OEChem-01062215323D

 24 23  0     1  0  0  0  0  0999 V2000
   -2.8347   -3.7166    0.8034 H   0  0  0  0  0  0  0  0  0  0  0  0
   -2.7728   -2.7096    0.3954 C   0  0  0  0  0  0  0  0  0  0  0  0
   -3.4267   -2.0426    0.9524 H   0  0  0  0  0  0  0  0  0  0  0  0
   -3.0538   -2.7186   -0.6556 H   0  0  0  0  0  0  0  0  0  0  0  0
   -1.3498   -2.2206    0.5184 C   0  0  0  0  0  0  0  0  0  0  0  0
   -0.4997   -2.9426    1.0194 O   0  0  0  0  0  0  0  0  0  0  0  0
   -1.1198   -0.9926    0.0674 N   0  0  0  0  0  0  0  0  0  0  0  0
   -1.8978   -0.4486   -0.2716 H   0  0  0  0  0  0  0  0  0  0  0  0
    0.1693   -0.2866    0.0854 C   0  0  1  0  0  0  0  0  0  0  0  0
    0.0462    0.6929   -0.3799 H   0  0  0  0  0  0  0  0  0  0  0  0
    0.6141   -0.0753    1.5489 C   0  0  0  0  0  0  0  0  0  0  0  0
    0.5683   -1.0329    2.0707 H   0  0  0  0  0  0  0  0  0  0  0  0
    1.6540    0.2583    1.5559 H   0  0  0  0  0  0  0  0  0  0  0  0
   -0.2445    0.9254    2.3381 C   0  0  0  0  0  0  0  0  0  0  0  0
   -0.8086    1.8543    1.7131 O   0  5  0  0  0  0  0  0  0  0  0  0
   -0.3137    0.7615    3.5753 O   0  0  0  0  0  0  0  0  0  0  0  0
    1.2119   -1.0830   -0.7330 C   0  0  0  0  0  0  0  0  0  0  0  0
    1.1294   -2.3136   -0.8246 O   0  0  0  0  0  0  0  0  0  0  0  0
    2.1835   -0.3967   -1.3428 N   0  0  0  0  0  0  0  0  0  0  0  0
    2.2180    0.6034   -1.1363 H   0  0  0  0  0  0  0  0  0  0  0  0
    3.2557   -0.9835   -2.1394 C   0  0  0  0  0  0  0  0  0  0  0  0
    2.8448   -1.7406   -2.8087 H   0  0  0  0  0  0  0  0  0  0  0  0
    3.7455   -0.2048   -2.7234 H   0  0  0  0  0  0  0  0  0  0  0  0
    3.9826   -1.4509   -1.4748 H   0  0  0  0  0  0  0  0  0  0  0  0
  5  6  2  0  0  0  0
  5  7  1  0  0  0  0
  2  3  1  0  0  0  0
  2  4  1  0  0  0  0
  2  5  1  0  0  0  0
  1  2  1  0  0  0  0
 17 18  2  0  0  0  0
 17 19  1  0  0  0  0
 14 15  1  0  0  0  0
 14 16  2  0  0  0  0
 11 12  1  0  0  0  0
 11 13  1  0  0  0  0
 11 14  1  0  0  0  0
  9 10  1  0  0  0  0
  9 11  1  0  0  0  0
  9 17  1  0  0  0  0
  7  8  1  0  0  0  0
  7  9  1  0  0  0  0
 21 22  1  0  0  0  0
 21 23  1  0  0  0  0
 21 24  1  0  0  0  0
 19 20  1  0  0  0  0
 19 21  1  0  0  0  0
M  CHG  1  15  -1
M  END
$$$$
default_name
  -OEChem-01062215323D

 24 23  0     1  0  0  0  0  0999 V2000
   -2.8347   -3.7166    0.8034 H   0  0  0  0  0  0  0  0  0  0  0  0
   -2.7728   -2.7096    0.3954 C   0  0  0  0  0  0  0  0  0  0  0  0
   -3.4267   -2.0426    0.9524 H   0  0  0  0  0  0  0  0  0  0  0  0
   -3.0538   -2.7186   -0.6556 H   0  0  0  0  0  0  0  0  0  0  0  0
   -1.3498   -2.2206    0.5184 C   0  0  0  0  0  0  0  0  0  0  0  0
   -0.4997   -2.9426    1.0194 O   0  0  0  0  0  0  0  0  0  0  0  0
   -1.1198   -0.9926    0.0674 N   0  0  0  0  0  0  0  0  0  0  0  0
   -1.8978   -0.4486   -0.2716 H   0  0  0  0  0  0  0  0  0  0  0  0
    0.1693   -0.2866    0.0854 C   0  0  1  0  0  0  0  0  0  0  0  0
    0.0462    0.6929   -0.3799 H   0  0  0  0  0  0  0  0  0  0  0  0
    0.6141   -0.0753    1.5489 C   0  0  0  0  0  0  0  0  0  0  0  0
    0.5683   -1.0329    2.0707 H   0  0  0  0  0  0  0  0  0  0  0  0
    1.6540    0.2583    1.5559 H   0  0  0  0  0  0  0  0  0  0  0  0
   -0.2445    0.9254    2.3381 C   0  0  0  0  0  0  0  0  0  0  0  0
   -0.8086    1.8543    1.7131 O   0  5  0  0  0  0  0  0  0  0  0  0
   -0.3137    0.7615    3.5753 O   0  0  0  0  0  0  0  0  0  0  0  0
    1.2119   -1.0830   -0.7330 C   0  0  0  0  0  0  0  0  0  0  0  0
    0.9902   -2.2553   -1.0586 O   0  0  0  0  0  0  0  0  0  0  0  0
    2.3400   -0.4577   -1.0840 N   0  0  0  0  0  0  0  0  0  0  0  0
    2.4690    0.4781   -0.6945 H   0  0  0  0  0  0  0  0  0  0  0  0
    3.4347   -1.0578   -1.8391 C   0  0  0  0  0  0  0  0  0  0  0  0
    3.0341   -1.6241   -2.6808 H   0  0  0  0  0  0  0  0  0  0  0  0
    4.0978   -0.2749   -2.2063 H   0  0  0  0  0  0  0  0  0  0  0  0
    3.9930   -1.7314   -1.1886 H   0  0  0  0  0  0  0  0  0  0  0  0
  5  6  2  0  0  0  0
  5  7  1  0  0  0  0
  2  3  1  0  0  0  0
  2  4  1  0  0  0  0
  2  5  1  0  0  0  0
  1  2  1  0  0  0  0
 17 18  2  0  0  0  0
 17 19  1  0  0  0  0
 14 15  1  0  0  0  0
 14 16  2  0  0  0  0
 11 12  1  0  0  0  0
 11 13  1  0  0  0  0
 11 14  1  0  0  0  0
  9 10  1  0  0  0  0
  9 11  1  0  0  0  0
  9 17  1  0  0  0  0
  7  8  1  0  0  0  0
  7  9  1  0  0  0  0
 21 22  1  0  0  0  0
 21 23  1  0  0  0  0
 21 24  1  0  0  0  0
 19 20  1  0  0  0  0
 19 21  1  0  0  0  0
M  CHG  1  15  -1
M  END
$$$$
default_name
  -OEChem-01062215323D

 24 23  0     1  0  0  0  0  0999 V2000
   -2.8347   -3.7166    0.8034 H   0  0  0  0  0  0  0  0  0  0  0  0
   -2.7728   -2.7096    0.3954 C   0  0  0  0  0  0  0  0  0  0  0  0
   -3.4267   -2.0426    0.9524 H   0  0  0  0  0  0  0  0  0  0  0  0
   -3.0538   -2.7186   -0.6556 H   0  0  0  0  0  0  0  0  0  0  0  0
   -1.3498   -2.2206    0.5184 C   0  0  0  0  0  0  0  0  0  0  0  0
   -0.4997   -2.9426    1.0194 O   0  0  0  0  0  0  0  0  0  0  0  0
   -1.1198   -0.9926    0.0674 N   0  0  0  0  0  0  0  0  0  0  0  0
   -1.8978   -0.4486   -0.2716 H   0  0  0  0  0  0  0  0  0  0  0  0
    0.1693   -0.2866    0.0854 C   0  0  1  0  0  0  0  0  0  0  0  0
    0.0001    0.7706   -0.1262 H   0  0  0  0  0  0  0  0  0  0  0  0
    0.7954   -0.4050    1.4919 C   0  0  0  0  0  0  0  0  0  0  0  0
    0.8043   -1.4565    1.7840 H   0  0  0  0  0  0  0  0  0  0  0  0
    1.8318   -0.0635    1.4456 H   0  0  0  0  0  0  0  0  0  0  0  0
    0.0532    0.3755    2.5880 C   0  0  0  0  0  0  0  0  0  0  0  0
   -0.5740    1.4119    2.2653 O   0  5  0  0  0  0  0  0  0  0  0  0
    0.1370   -0.0659    3.7544 O   0  0  0  0  0  0  0  0  0  0  0  0
    1.0928   -0.8583   -1.0153 C   0  0  0  0  0  0  0  0  0  0  0  0
    0.6967   -1.7653   -1.7568 O   0  0  0  0  0  0  0  0  0  0  0  0
    2.3137   -0.3293   -1.1427 N   0  0  0  0  0  0  0  0  0  0  0  0
    2.5794    0.3524   -0.4294 H   0  0  0  0  0  0  0  0  0  0  0  0
    3.3181   -0.7548   -2.1117 C   0  0  0  0  0  0  0  0  0  0  0  0
    2.8538   -0.8841   -3.0902 H   0  0  0  0  0  0  0  0  0  0  0  0
    4.1054   -0.0041   -2.1757 H   0  0  0  0  0  0  0  0  0  0  0  0
    3.7468   -1.7045   -1.7913 H   0  0  0  0  0  0  0  0  0  0  0  0
  5  6  2  0  0  0  0
  5  7  1  0  0  0  0
  2  3  1  0  0  0  0
  2  4  1  0  0  0  0
  2  5  1  0  0  0  0
  1  2  1  0  0  0  0
 17 18  2  0  0  0  0
 17 19  1  0  0  0  0
 14 15  1  0  0  0  0
 14 16  2  0  0  0  0
 11 12  1  0  0  0  0
 11 13  1  0  0  0  0
 11 14  1  0  0  0  0
  9 10  1  0  0  0  0
  9 11  1  0  0  0  0
  9 17  1  0  0  0  0
  7  8  1  0  0  0  0
  7  9  1  0  0  0  0
 21 22  1  0  0  0  0
 21 23  1  0  0  0  0
 21 24  1  0  0  0  0
 19 20  1  0  0  0  0
 19 21  1  0  0  0  0
M  CHG  1  15  -1
M  END
$$$$
default_name
  -OEChem-01062215323D

 24 23  0     1  0  0  0  0  0999 V2000
   -2.8347   -3.7166    0.8034 H   0  0  0  0  0  0  0  0  0  0  0  0
   -2.7728   -2.7096    0.3954 C   0  0  0  0  0  0  0  0  0  0  0  0
   -3.4267   -2.0426    0.9524 H   0  0  0  0  0  0  0  0  0  0  0  0
   -3.0538   -2.7186   -0.6556 H   0  0  0  0  0  0  0  0  0  0  0  0
   -1.3498   -2.2206    0.5184 C   0  0  0  0  0  0  0  0  0  0  0  0
   -0.4997   -2.9426    1.0194 O   0  0  0  0  0  0  0  0  0  0  0  0
   -1.1198   -0.9926    0.0674 N   0  0  0  0  0  0  0  0  0  0  0  0
   -1.8978   -0.4486   -0.2716 H   0  0  0  0  0  0  0  0  0  0  0  0
    0.1693   -0.2866    0.0854 C   0  0  1  0  0  0  0  0  0  0  0  0
    0.0001    0.7706   -0.1262 H   0  0  0  0  0  0  0  0  0  0  0  0
    0.7954   -0.4050    1.4919 C   0  0  0  0  0  0  0  0  0  0  0  0
    0.8043   -1.4565    1.7840 H   0  0  0  0  0  0  0  0  0  0  0  0
    1.8318   -0.0635    1.4456 H   0  0  0  0  0  0  0  0  0  0  0  0
    0.0532    0.3755    2.5880 C   0  0  0  0  0  0  0  0  0  0  0  0
   -0.5740    1.4119    2.2653 O   0  5  0  0  0  0  0  0  0  0  0  0
    0.1370   -0.0659    3.7544 O   0  0  0  0  0  0  0  0  0  0  0  0
    1.0928   -0.8583   -1.0153 C   0  0  0  0  0  0  0  0  0  0  0  0
    0.6268   -1.5547   -1.9248 O   0  0  0  0  0  0  0  0  0  0  0  0
    2.3945   -0.5605   -0.9549 N   0  0  0  0  0  0  0  0  0  0  0  0
    2.6962   -0.0536   -0.1206 H   0  0  0  0  0  0  0  0  0  0  0  0
    3.4084   -1.0249   -1.8956 C   0  0  0  0  0  0  0  0  0  0  0  0
    3.0392   -0.9189   -2.9165 H   0  0  0  0  0  0  0  0  0  0  0  0
    4.3181   -0.4379   -1.7719 H   0  0  0  0  0  0  0  0  0  0  0  0
    3.6246   -2.0755   -1.7011 H   0  0  0  0  0  0  0  0  0  0  0  0
  5  6  2  0  0  0  0
  5  7  1  0  0  0  0
  2  3  1  0  0  0  0
  2  4  1  0  0  0  0
  2  5  1  0  0  0  0
  1  2  1  0  0  0  0
 17 18  2  0  0  0  0
 17 19  1  0  0  0  0
 14 15  1  0  0  0  0
 14 16  2  0  0  0  0
 11 12  1  0  0  0  0
 11 13  1  0  0  0  0
 11 14  1  0  0  0  0
  9 10  1  0  0  0  0
  9 11  1  0  0  0  0
  9 17  1  0  0  0  0
  7  8  1  0  0  0  0
  7  9  1  0  0  0  0
 21 22  1  0  0  0  0
 21 23  1  0  0  0  0
 21 24  1  0  0  0  0
 19 20  1  0  0  0  0
 19 21  1  0  0  0  0
M  CHG  1  15  -1
M  END
$$$$
default_name
  -OEChem-01062215323D

 24 23  0     1  0  0  0  0  0999 V2000
   -2.8347   -3.7166    0.8034 H   0  0  0  0  0  0  0  0  0  0  0  0
   -2.7728   -2.7096    0.3954 C   0  0  0  0  0  0  0  0  0  0  0  0
   -3.4267   -2.0426    0.9524 H   0  0  0  0  0  0  0  0  0  0  0  0
   -3.0538   -2.7186   -0.6556 H   0  0  0  0  0  0  0  0  0  0  0  0
   -1.3498   -2.2206    0.5184 C   0  0  0  0  0  0  0  0  0  0  0  0
   -0.4997   -2.9426    1.0194 O   0  0  0  0  0  0  0  0  0  0  0  0
   -1.1198   -0.9926    0.0674 N   0  0  0  0  0  0  0  0  0  0  0  0
   -1.8978   -0.4486   -0.2716 H   0  0  0  0  0  0  0  0  0  0  0  0
    0.1693   -0.2866    0.0854 C   0  0  1  0  0  0  0  0  0  0  0  0
    0.0001    0.7706   -0.1262 H   0  0  0  0  0  0  0  0  0  0  0  0
    0.7954   -0.4050    1.4919 C   0  0  0  0  0  0  0  0  0  0  0  0
    0.8043   -1.4565    1.7840 H   0  0  0  0  0  0  0  0  0  0  0  0
    1.8318   -0.0635    1.4456 H   0  0  0  0  0  0  0  0  0  0  0  0
    0.0532    0.3755    2.5880 C   0  0  0  0  0  0  0  0  0  0  0  0
   -0.5740    1.4119    2.2653 O   0  5  0  0  0  0  0  0  0  0  0  0
    0.1370   -0.0659    3.7544 O   0  0  0  0  0  0  0  0  0  0  0  0
    1.0928   -0.8583   -1.0153 C   0  0  0  0  0  0  0  0  0  0  0  0
    0.6142   -1.3125   -2.0613 O   0  0  0  0  0  0  0  0  0  0  0  0
    2.4119   -0.8276   -0.8015 N   0  0  0  0  0  0  0  0  0  0  0  0
    2.7047   -0.5150    0.1262 H   0  0  0  0  0  0  0  0  0  0  0  0
    3.4252   -1.3358   -1.7200 C   0  0  0  0  0  0  0  0  0  0  0  0
    3.1953   -1.0135   -2.7364 H   0  0  0  0  0  0  0  0  0  0  0  0
    4.4051   -0.9585   -1.4286 H   0  0  0  0  0  0  0  0  0  0  0  0
    3.4296   -2.4253   -1.6831 H   0  0  0  0  0  0  0  0  0  0  0  0
  5  6  2  0  0  0  0
  5  7  1  0  0  0  0
  2  3  1  0  0  0  0
  2  4  1  0  0  0  0
  2  5  1  0  0  0  0
  1  2  1  0  0  0  0
 17 18  2  0  0  0  0
 17 19  1  0  0  0  0
 14 15  1  0  0  0  0
 14 16  2  0  0  0  0
 11 12  1  0  0  0  0
 11 13  1  0  0  0  0
 11 14  1  0  0  0  0
  9 10  1  0  0  0  0
  9 11  1  0  0  0  0
  9 17  1  0  0  0  0
  7  8  1  0  0  0  0
  7  9  1  0  0  0  0
 21 22  1  0  0  0  0
 21 23  1  0  0  0  0
 21 24  1  0  0  0  0
 19 20  1  0  0  0  0
 19 21  1  0  0  0  0
M  CHG  1  15  -1
M  END
$$$$
default_name
  -OEChem-01062215323D

 24 23  0     1  0  0  0  0  0999 V2000
   -2.8347   -3.7166    0.8034 H   0  0  0  0  0  0  0  0  0  0  0  0
   -2.7728   -2.7096    0.3954 C   0  0  0  0  0  0  0  0  0  0  0  0
   -3.4267   -2.0426    0.9524 H   0  0  0  0  0  0  0  0  0  0  0  0
   -3.0538   -2.7186   -0.6556 H   0  0  0  0  0  0  0  0  0  0  0  0
   -1.3498   -2.2206    0.5184 C   0  0  0  0  0  0  0  0  0  0  0  0
   -0.4997   -2.9426    1.0194 O   0  0  0  0  0  0  0  0  0  0  0  0
   -1.1198   -0.9926    0.0674 N   0  0  0  0  0  0  0  0  0  0  0  0
   -1.8978   -0.4486   -0.2716 H   0  0  0  0  0  0  0  0  0  0  0  0
    0.1693   -0.2866    0.0854 C   0  0  1  0  0  0  0  0  0  0  0  0
    0.0001    0.7706   -0.1262 H   0  0  0  0  0  0  0  0  0  0  0  0
    0.7954   -0.4050    1.4919 C   0  0  0  0  0  0  0  0  0  0  0  0
    0.8043   -1.4565    1.7840 H   0  0  0  0  0  0  0  0  0  0  0  0
    1.8318   -0.0635    1.4456 H   0  0  0  0  0  0  0  0  0  0  0  0
    0.0532    0.3755    2.5880 C   0  0  0  0  0  0  0  0  0  0  0  0
   -0.5740    1.4119    2.2653 O   0  5  0  0  0  0  0  0  0  0  0  0
    0.1370   -0.0659    3.7544 O   0  0  0  0  0  0  0  0  0  0  0  0
    1.0928   -0.8583   -1.0153 C   0  0  0  0  0  0  0  0  0  0  0  0
    0.6596   -1.0550   -2.1568 O   0  0  0  0  0  0  0  0  0  0  0  0
    2.3649   -1.1126   -0.6930 N   0  0  0  0  0  0  0  0  0  0  0  0
    2.6042   -1.0004    0.2940 H   0  0  0  0  0  0  0  0  0  0  0  0
    3.3674   -1.6664   -1.5969 C   0  0  0  0  0  0  0  0  0  0  0  0
    3.3114   -1.1615   -2.5622 H   0  0  0  0  0  0  0  0  0  0  0  0
    4.3603   -1.5305   -1.1691 H   0  0  0  0  0  0  0  0  0  0  0  0
    3.1750   -2.7301   -1.7384 H   0  0  0  0  0  0  0  0  0  0  0  0
  5  6  2  0  0  0  0
  5  7  1  0  0  0  0
  2  3  1  0  0  0  0
  2  4  1  0  0  0  0
  2  5  1  0  0  0  0
  1  2  1  0  0  0  0
 17 18  2  0  0  0  0
 17 19  1  0  0  0  0
 14 15  1  0  0  0  0
 14 16  2  0  0  0  0
 11 12  1  0  0  0  0
 11 13  1  0  0  0  0
 11 14  1  0  0  0  0
  9 10  1  0  0  0  0
  9 11  1  0  0  0  0
  9 17  1  0  0  0  0
  7  8  1  0  0  0  0
  7  9  1  0  0  0  0
 21 22  1  0  0  0  0
 21 23  1  0  0  0  0
 21 24  1  0  0  0  0
 19 20  1  0  0  0  0
 19 21  1  0  0  0  0
M  CHG  1  15  -1
M  END
$$$$
default_name
  -OEChem-01062215323D

 24 23  0     1  0  0  0  0  0999 V2000
   -2.8347   -3.7166    0.8034 H   0  0  0  0  0  0  0  0  0  0  0  0
   -2.7728   -2.7096    0.3954 C   0  0  0  0  0  0  0  0  0  0  0  0
   -3.4267   -2.0426    0.9524 H   0  0  0  0  0  0  0  0  0  0  0  0
   -3.0538   -2.7186   -0.6556 H   0  0  0  0  0  0  0  0  0  0  0  0
   -1.3498   -2.2206    0.5184 C   0  0  0  0  0  0  0  0  0  0  0  0
   -0.4997   -2.9426    1.0194 O   0  0  0  0  0  0  0  0  0  0  0  0
   -1.1198   -0.9926    0.0674 N   0  0  0  0  0  0  0  0  0  0  0  0
   -1.8978   -0.4486   -0.2716 H   0  0  0  0  0  0  0  0  0  0  0  0
    0.1693   -0.2866    0.0854 C   0  0  1  0  0  0  0  0  0  0  0  0
    0.0001    0.7706   -0.1262 H   0  0  0  0  0  0  0  0  0  0  0  0
    0.7954   -0.4050    1.4919 C   0  0  0  0  0  0  0  0  0  0  0  0
    0.8043   -1.4565    1.7840 H   0  0  0  0  0  0  0  0  0  0  0  0
    1.8318   -0.0635    1.4456 H   0  0  0  0  0  0  0  0  0  0  0  0
    0.0532    0.3755    2.5880 C   0  0  0  0  0  0  0  0  0  0  0  0
   -0.5740    1.4119    2.2653 O   0  5  0  0  0  0  0  0  0  0  0  0
    0.1370   -0.0659    3.7544 O   0  0  0  0  0  0  0  0  0  0  0  0
    1.0928   -0.8583   -1.0153 C   0  0  0  0  0  0  0  0  0  0  0  0
    0.7601   -0.8000   -2.2050 O   0  0  0  0  0  0  0  0  0  0  0  0
    2.2565   -1.3959   -0.6367 N   0  0  0  0  0  0  0  0  0  0  0  0
    2.4018   -1.4767    0.3715 H   0  0  0  0  0  0  0  0  0  0  0  0
    3.2388   -1.9941   -1.5346 C   0  0  0  0  0  0  0  0  0  0  0  0
    3.3796   -1.3527   -2.4056 H   0  0  0  0  0  0  0  0  0  0  0  0
    4.1868   -2.1149   -1.0111 H   0  0  0  0  0  0  0  0  0  0  0  0
    2.8783   -2.9690   -1.8633 H   0  0  0  0  0  0  0  0  0  0  0  0
  5  6  2  0  0  0  0
  5  7  1  0  0  0  0
  2  3  1  0  0  0  0
  2  4  1  0  0  0  0
  2  5  1  0  0  0  0
  1  2  1  0  0  0  0
 17 18  2  0  0  0  0
 17 19  1  0  0  0  0
 14 15  1  0  0  0  0
 14 16  2  0  0  0  0
 11 12  1  0  0  0  0
 11 13  1  0  0  0  0
 11 14  1  0  0  0  0
  9 10  1  0  0  0  0
  9 11  1  0  0  0  0
  9 17  1  0  0  0  0
  7  8  1  0  0  0  0
  7  9  1  0  0  0  0
 21 22  1  0  0  0  0
 21 23  1  0  0  0  0
 21 24  1  0  0  0  0
 19 20  1  0  0  0  0
 19 21  1  0  0  0  0
M  CHG  1  15  -1
M  END
$$$$
default_name
  -OEChem-01062215323D

 24 23  0     1  0  0  0  0  0999 V2000
   -2.8347   -3.7166    0.8034 H   0  0  0  0  0  0  0  0  0  0  0  0
   -2.7728   -2.7096    0.3954 C   0  0  0  0  0  0  0  0  0  0  0  0
   -3.4267   -2.0426    0.9524 H   0  0  0  0  0  0  0  0  0  0  0  0
   -3.0538   -2.7186   -0.6556 H   0  0  0  0  0  0  0  0  0  0  0  0
   -1.3498   -2.2206    0.5184 C   0  0  0  0  0  0  0  0  0  0  0  0
   -0.4997   -2.9426    1.0194 O   0  0  0  0  0  0  0  0  0  0  0  0
   -1.1198   -0.9926    0.0674 N   0  0  0  0  0  0  0  0  0  0  0  0
   -1.8978   -0.4486   -0.2716 H   0  0  0  0  0  0  0  0  0  0  0  0
    0.1693   -0.2866    0.0854 C   0  0  1  0  0  0  0  0  0  0  0  0
    0.0001    0.7706   -0.1262 H   0  0  0  0  0  0  0  0  0  0  0  0
    0.7954   -0.4050    1.4919 C   0  0  0  0  0  0  0  0  0  0  0  0
    0.8043   -1.4565    1.7840 H   0  0  0  0  0  0  0  0  0  0  0  0
    1.8318   -0.0635    1.4456 H   0  0  0  0  0  0  0  0  0  0  0  0
    0.0532    0.3755    2.5880 C   0  0  0  0  0  0  0  0  0  0  0  0
   -0.5740    1.4119    2.2653 O   0  5  0  0  0  0  0  0  0  0  0  0
    0.1370   -0.0659    3.7544 O   0  0  0  0  0  0  0  0  0  0  0  0
    1.0928   -0.8583   -1.0153 C   0  0  0  0  0  0  0  0  0  0  0  0
    0.9088   -0.5647   -2.2025 O   0  0  0  0  0  0  0  0  0  0  0  0
    2.0943   -1.6584   -0.6365 N   0  0  0  0  0  0  0  0  0  0  0  0
    2.1110   -1.9114    0.3533 H   0  0  0  0  0  0  0  0  0  0  0  0
    3.0483   -2.2965   -1.5374 C   0  0  0  0  0  0  0  0  0  0  0  0
    3.3953   -1.5742   -2.2774 H   0  0  0  0  0  0  0  0  0  0  0  0
    3.8965   -2.6718   -0.9655 H   0  0  0  0  0  0  0  0  0  0  0  0
    2.5596   -3.1258   -2.0493 H   0  0  0  0  0  0  0  0  0  0  0  0
  5  6  2  0  0  0  0
  5  7  1  0  0  0  0
  2  3  1  0  0  0  0
  2  4  1  0  0  0  0
  2  5  1  0  0  0  0
  1  2  1  0  0  0  0
 17 18  2  0  0  0  0
 17 19  1  0  0  0  0
 14 15  1  0  0  0  0
 14 16  2  0  0  0  0
 11 12  1  0  0  0  0
 11 13  1  0  0  0  0
 11 14  1  0  0  0  0
  9 10  1  0  0  0  0
  9 11  1  0  0  0  0
  9 17  1  0  0  0  0
  7  8  1  0  0  0  0
  7  9  1  0  0  0  0
 21 22  1  0  0  0  0
 21 23  1  0  0  0  0
 21 24  1  0  0  0  0
 19 20  1  0  0  0  0
 19 21  1  0  0  0  0
M  CHG  1  15  -1
M  END
$$$$
default_name
  -OEChem-01062215323D

 24 23  0     1  0  0  0  0  0999 V2000
   -2.8347   -3.7166    0.8034 H   0  0  0  0  0  0  0  0  0  0  0  0
   -2.7728   -2.7096    0.3954 C   0  0  0  0  0  0  0  0  0  0  0  0
   -3.4267   -2.0426    0.9524 H   0  0  0  0  0  0  0  0  0  0  0  0
   -3.0538   -2.7186   -0.6556 H   0  0  0  0  0  0  0  0  0  0  0  0
   -1.3498   -2.2206    0.5184 C   0  0  0  0  0  0  0  0  0  0  0  0
   -0.4997   -2.9426    1.0194 O   0  0  0  0  0  0  0  0  0  0  0  0
   -1.1198   -0.9926    0.0674 N   0  0  0  0  0  0  0  0  0  0  0  0
   -1.8978   -0.4486   -0.2716 H   0  0  0  0  0  0  0  0  0  0  0  0
    0.1693   -0.2866    0.0854 C   0  0  1  0  0  0  0  0  0  0  0  0
    0.0001    0.7706   -0.1262 H   0  0  0  0  0  0  0  0  0  0  0  0
    0.7954   -0.4050    1.4919 C   0  0  0  0  0  0  0  0  0  0  0  0
    0.8043   -1.4565    1.7840 H   0  0  0  0  0  0  0  0  0  0  0  0
    1.8318   -0.0635    1.4456 H   0  0  0  0  0  0  0  0  0  0  0  0
    0.0532    0.3755    2.5880 C   0  0  0  0  0  0  0  0  0  0  0  0
   -0.5740    1.4119    2.2653 O   0  5  0  0  0  0  0  0  0  0  0  0
    0.1370   -0.0659    3.7544 O   0  0  0  0  0  0  0  0  0  0  0  0
    1.0928   -0.8583   -1.0153 C   0  0  0  0  0  0  0  0  0  0  0  0
    1.0955   -0.3652   -2.1494 O   0  0  0  0  0  0  0  0  0  0  0  0
    1.8893   -1.8821   -0.6924 N   0  0  0  0  0  0  0  0  0  0  0  0
    1.7518   -2.2750    0.2408 H   0  0  0  0  0  0  0  0  0  0  0  0
    2.8088   -2.5532   -1.6050 C   0  0  0  0  0  0  0  0  0  0  0  0
    3.3573   -1.8109   -2.1863 H   0  0  0  0  0  0  0  0  0  0  0  0
    3.5091   -3.1633   -1.0352 H   0  0  0  0  0  0  0  0  0  0  0  0
    2.2407   -3.1898   -2.2836 H   0  0  0  0  0  0  0  0  0  0  0  0
  5  6  2  0  0  0  0
  5  7  1  0  0  0  0
  2  3  1  0  0  0  0
  2  4  1  0  0  0  0
  2  5  1  0  0  0  0
  1  2  1  0  0  0  0
 17 18  2  0  0  0  0
 17 19  1  0  0  0  0
 14 15  1  0  0  0  0
 14 16  2  0  0  0  0
 11 12  1  0  0  0  0
 11 13  1  0  0  0  0
 11 14  1  0  0  0  0
  9 10  1  0  0  0  0
  9 11  1  0  0  0  0
  9 17  1  0  0  0  0
  7  8  1  0  0  0  0
  7  9  1  0  0  0  0
 21 22  1  0  0  0  0
 21 23  1  0  0  0  0
 21 24  1  0  0  0  0
 19 20  1  0  0  0  0
 19 21  1  0  0  0  0
M  CHG  1  15  -1
M  END
$$$$
default_name
  -OEChem-01062215323D

 24 23  0     1  0  0  0  0  0999 V2000
   -2.8347   -3.7166    0.8034 H   0  0  0  0  0  0  0  0  0  0  0  0
   -2.7728   -2.7096    0.3954 C   0  0  0  0  0  0  0  0  0  0  0  0
   -3.4267   -2.0426    0.9524 H   0  0  0  0  0  0  0  0  0  0  0  0
   -3.0538   -2.7186   -0.6556 H   0  0  0  0  0  0  0  0  0  0  0  0
   -1.3498   -2.2206    0.5184 C   0  0  0  0  0  0  0  0  0  0  0  0
   -0.4997   -2.9426    1.0194 O   0  0  0  0  0  0  0  0  0  0  0  0
   -1.1198   -0.9926    0.0674 N   0  0  0  0  0  0  0  0  0  0  0  0
   -1.8978   -0.4486   -0.2716 H   0  0  0  0  0  0  0  0  0  0  0  0
    0.1693   -0.2866    0.0854 C   0  0  1  0  0  0  0  0  0  0  0  0
    0.0001    0.7706   -0.1262 H   0  0  0  0  0  0  0  0  0  0  0  0
    0.7954   -0.4050    1.4919 C   0  0  0  0  0  0  0  0  0  0  0  0
    0.8043   -1.4565    1.7840 H   0  0  0  0  0  0  0  0  0  0  0  0
    1.8318   -0.0635    1.4456 H   0  0  0  0  0  0  0  0  0  0  0  0
    0.0532    0.3755    2.5880 C   0  0  0  0  0  0  0  0  0  0  0  0
   -0.5740    1.4119    2.2653 O   0  5  0  0  0  0  0  0  0  0  0  0
    0.1370   -0.0659    3.7544 O   0  0  0  0  0  0  0  0  0  0  0  0
    1.0928   -0.8583   -1.0153 C   0  0  0  0  0  0  0  0  0  0  0  0
    1.3075   -0.2150   -2.0495 O   0  0  0  0  0  0  0  0  0  0  0  0
    1.6553   -2.0517   -0.8006 N   0  0  0  0  0  0  0  0  0  0  0  0
    1.3487   -2.5425    0.0415 H   0  0  0  0  0  0  0  0  0  0  0  0
    2.5366   -2.7465   -1.7329 C   0  0  0  0  0  0  0  0  0  0  0  0
    3.2684   -2.0466   -2.1386 H   0  0  0  0  0  0  0  0  0  0  0  0
    3.0510   -3.5559   -1.2157 H   0  0  0  0  0  0  0  0  0  0  0  0
    1.9433   -3.1566   -2.5504 H   0  0  0  0  0  0  0  0  0  0  0  0
  5  6  2  0  0  0  0
  5  7  1  0  0  0  0
  2  3  1  0  0  0  0
  2  4  1  0  0  0  0
  2  5  1  0  0  0  0
  1  2  1  0  0  0  0
 17 18  2  0  0  0  0
 17 19  1  0  0  0  0
 14 15  1  0  0  0  0
 14 16  2  0  0  0  0
 11 12  1  0  0  0  0
 11 13  1  0  0  0  0
 11 14  1  0  0  0  0
  9 10  1  0  0  0  0
  9 11  1  0  0  0  0
  9 17  1  0  0  0  0
  7  8  1  0  0  0  0
  7  9  1  0  0  0  0
 21 22  1  0  0  0  0
 21 23  1  0  0  0  0
 21 24  1  0  0  0  0
 19 20  1  0  0  0  0
 19 21  1  0  0  0  0
M  CHG  1  15  -1
M  END
$$$$
default_name
  -OEChem-01062215323D

 24 23  0     1  0  0  0  0  0999 V2000
   -2.8347   -3.7166    0.8034 H   0  0  0  0  0  0  0  0  0  0  0  0
   -2.7728   -2.7096    0.3954 C   0  0  0  0  0  0  0  0  0  0  0  0
   -3.4267   -2.0426    0.9524 H   0  0  0  0  0  0  0  0  0  0  0  0
   -3.0538   -2.7186   -0.6556 H   0  0  0  0  0  0  0  0  0  0  0  0
   -1.3498   -2.2206    0.5184 C   0  0  0  0  0  0  0  0  0  0  0  0
   -0.4997   -2.9426    1.0194 O   0  0  0  0  0  0  0  0  0  0  0  0
   -1.1198   -0.9926    0.0674 N   0  0  0  0  0  0  0  0  0  0  0  0
   -1.8978   -0.4486   -0.2716 H   0  0  0  0  0  0  0  0  0  0  0  0
    0.1693   -0.2866    0.0854 C   0  0  1  0  0  0  0  0  0  0  0  0
    0.0001    0.7706   -0.1262 H   0  0  0  0  0  0  0  0  0  0  0  0
    0.7954   -0.4050    1.4919 C   0  0  0  0  0  0  0  0  0  0  0  0
    0.8043   -1.4565    1.7840 H   0  0  0  0  0  0  0  0  0  0  0  0
    1.8318   -0.0635    1.4456 H   0  0  0  0  0  0  0  0  0  0  0  0
    0.0532    0.3755    2.5880 C   0  0  0  0  0  0  0  0  0  0  0  0
   -0.5740    1.4119    2.2653 O   0  5  0  0  0  0  0  0  0  0  0  0
    0.1370   -0.0659    3.7544 O   0  0  0  0  0  0  0  0  0  0  0  0
    1.0928   -0.8583   -1.0153 C   0  0  0  0  0  0  0  0  0  0  0  0
    1.5304   -0.1246   -1.9095 O   0  0  0  0  0  0  0  0  0  0  0  0
    1.4085   -2.1557   -0.9537 N   0  0  0  0  0  0  0  0  0  0  0  0
    0.9290   -2.6959   -0.2309 H   0  0  0  0  0  0  0  0  0  0  0  0
    2.2504   -2.8633   -1.9124 C   0  0  0  0  0  0  0  0  0  0  0  0
    3.1345   -2.2652   -2.1374 H   0  0  0  0  0  0  0  0  0  0  0  0
    2.5535   -3.8229   -1.4945 H   0  0  0  0  0  0  0  0  0  0  0  0
    1.6876   -3.0286   -2.8314 H   0  0  0  0  0  0  0  0  0  0  0  0
  5  6  2  0  0  0  0
  5  7  1  0  0  0  0
  2  3  1  0  0  0  0
  2  4  1  0  0  0  0
  2  5  1  0  0  0  0
  1  2  1  0  0  0  0
 17 18  2  0  0  0  0
 17 19  1  0  0  0  0
 14 15  1  0  0  0  0
 14 16  2  0  0  0  0
 11 12  1  0  0  0  0
 11 13  1  0  0  0  0
 11 14  1  0  0  0  0
  9 10  1  0  0  0  0
  9 11  1  0  0  0  0
  9 17  1  0  0  0  0
  7  8  1  0  0  0  0
  7  9  1  0  0  0  0
 21 22  1  0  0  0  0
 21 23  1  0  0  0  0
 21 24  1  0  0  0  0
 19 20  1  0  0  0  0
 19 21  1  0  0  0  0
M  CHG  1  15  -1
M  END
$$$$
default_name
  -OEChem-01062215323D

 24 23  0     1  0  0  0  0  0999 V2000
   -2.8347   -3.7166    0.8034 H   0  0  0  0  0  0  0  0  0  0  0  0
   -2.7728   -2.7096    0.3954 C   0  0  0  0  0  0  0  0  0  0  0  0
   -3.4267   -2.0426    0.9524 H   0  0  0  0  0  0  0  0  0  0  0  0
   -3.0538   -2.7186   -0.6556 H   0  0  0  0  0  0  0  0  0  0  0  0
   -1.3498   -2.2206    0.5184 C   0  0  0  0  0  0  0  0  0  0  0  0
   -0.4997   -2.9426    1.0194 O   0  0  0  0  0  0  0  0  0  0  0  0
   -1.1198   -0.9926    0.0674 N   0  0  0  0  0  0  0  0  0  0  0  0
   -1.8978   -0.4486   -0.2716 H   0  0  0  0  0  0  0  0  0  0  0  0
    0.1693   -0.2866    0.0854 C   0  0  1  0  0  0  0  0  0  0  0  0
    0.0001    0.7706   -0.1262 H   0  0  0  0  0  0  0  0  0  0  0  0
    0.7954   -0.4050    1.4919 C   0  0  0  0  0  0  0  0  0  0  0  0
    0.8043   -1.4565    1.7840 H   0  0  0  0  0  0  0  0  0  0  0  0
    1.8318   -0.0635    1.4456 H   0  0  0  0  0  0  0  0  0  0  0  0
    0.0532    0.3755    2.5880 C   0  0  0  0  0  0  0  0  0  0  0  0
   -0.5740    1.4119    2.2653 O   0  5  0  0  0  0  0  0  0  0  0  0
    0.1370   -0.0659    3.7544 O   0  0  0  0  0  0  0  0  0  0  0  0
    1.0928   -0.8583   -1.0153 C   0  0  0  0  0  0  0  0  0  0  0  0
    1.7490   -0.0999   -1.7389 O   0  0  0  0  0  0  0  0  0  0  0  0
    1.1655   -2.1870   -1.1413 N   0  0  0  0  0  0  0  0  0  0  0  0
    0.5215   -2.7247   -0.5580 H   0  0  0  0  0  0  0  0  0  0  0  0
    1.9696   -2.8956   -2.1313 C   0  0  0  0  0  0  0  0  0  0  0  0
    2.9647   -2.4519   -2.1828 H   0  0  0  0  0  0  0  0  0  0  0  0
    2.0504   -3.9460   -1.8526 H   0  0  0  0  0  0  0  0  0  0  0  0
    1.4912   -2.8144   -3.1075 H   0  0  0  0  0  0  0  0  0  0  0  0
  5  6  2  0  0  0  0
  5  7  1  0  0  0  0
  2  3  1  0  0  0  0
  2  4  1  0  0  0  0
  2  5  1  0  0  0  0
  1  2  1  0  0  0  0
 17 18  2  0  0  0  0
 17 19  1  0  0  0  0
 14 15  1  0  0  0  0
 14 16  2  0  0  0  0
 11 12  1  0  0  0  0
 11 13  1  0  0  0  0
 11 14  1  0  0  0  0
  9 10  1  0  0  0  0
  9 11  1  0  0  0  0
  9 17  1  0  0  0  0
  7  8  1  0  0  0  0
  7  9  1  0  0  0  0
 21 22  1  0  0  0  0
 21 23  1  0  0  0  0
 21 24  1  0  0  0  0
 19 20  1  0  0  0  0
 19 21  1  0  0  0  0
M  CHG  1  15  -1
M  END
$$$$
default_name
  -OEChem-01062215323D

 24 23  0     1  0  0  0  0  0999 V2000
   -2.8347   -3.7166    0.8034 H   0  0  0  0  0  0  0  0  0  0  0  0
   -2.7728   -2.7096    0.3954 C   0  0  0  0  0  0  0  0  0  0  0  0
   -3.4267   -2.0426    0.9524 H   0  0  0  0  0  0  0  0  0  0  0  0
   -3.0538   -2.7186   -0.6556 H   0  0  0  0  0  0  0  0  0  0  0  0
   -1.3498   -2.2206    0.5184 C   0  0  0  0  0  0  0  0  0  0  0  0
   -0.4997   -2.9426    1.0194 O   0  0  0  0  0  0  0  0  0  0  0  0
   -1.1198   -0.9926    0.0674 N   0  0  0  0  0  0  0  0  0  0  0  0
   -1.8978   -0.4486   -0.2716 H   0  0  0  0  0  0  0  0  0  0  0  0
    0.1693   -0.2866    0.0854 C   0  0  1  0  0  0  0  0  0  0  0  0
    0.0001    0.7706   -0.1262 H   0  0  0  0  0  0  0  0  0  0  0  0
    0.7954   -0.4050    1.4919 C   0  0  0  0  0  0  0  0  0  0  0  0
    0.8043   -1.4565    1.7840 H   0  0  0  0  0  0  0  0  0  0  0  0
    1.8318   -0.0635    1.4456 H   0  0  0  0  0  0  0  0  0  0  0  0
    0.0532    0.3755    2.5880 C   0  0  0  0  0  0  0  0  0  0  0  0
   -0.5740    1.4119    2.2653 O   0  5  0  0  0  0  0  0  0  0  0  0
    0.1370   -0.0659    3.7544 O   0  0  0  0  0  0  0  0  0  0  0  0
    1.0928   -0.8583   -1.0153 C   0  0  0  0  0  0  0  0  0  0  0  0
    1.9483   -0.1426   -1.5494 O   0  0  0  0  0  0  0  0  0  0  0  0
    0.9430   -2.1435   -1.3505 N   0  0  0  0  0  0  0  0  0  0  0  0
    0.1538   -2.6268   -0.9173 H   0  0  0  0  0  0  0  0  0  0  0  0
    1.7133   -2.8413   -2.3745 C   0  0  0  0  0  0  0  0  0  0  0  0
    2.7707   -2.5940   -2.2718 H   0  0  0  0  0  0  0  0  0  0  0  0
    1.5761   -3.9168   -2.2658 H   0  0  0  0  0  0  0  0  0  0  0  0
    1.3673   -2.5286   -3.3599 H   0  0  0  0  0  0  0  0  0  0  0  0
  5  6  2  0  0  0  0
  5  7  1  0  0  0  0
  2  3  1  0  0  0  0
  2  4  1  0  0  0  0
  2  5  1  0  0  0  0
  1  2  1  0  0  0  0
 17 18  2  0  0  0  0
 17 19  1  0  0  0  0
 14 15  1  0  0  0  0
 14 16  2  0  0  0  0
 11 12  1  0  0  0  0
 11 13  1  0  0  0  0
 11 14  1  0  0  0  0
  9 10  1  0  0  0  0
  9 11  1  0  0  0  0
  9 17  1  0  0  0  0
  7  8  1  0  0  0  0
  7  9  1  0  0  0  0
 21 22  1  0  0  0  0
 21 23  1  0  0  0  0
 21 24  1  0  0  0  0
 19 20  1  0  0  0  0
 19 21  1  0  0  0  0
M  CHG  1  15  -1
M  END
$$$$
default_name
  -OEChem-01062215323D

 24 23  0     1  0  0  0  0  0999 V2000
   -2.8347   -3.7166    0.8034 H   0  0  0  0  0  0  0  0  0  0  0  0
   -2.7728   -2.7096    0.3954 C   0  0  0  0  0  0  0  0  0  0  0  0
   -3.4267   -2.0426    0.9524 H   0  0  0  0  0  0  0  0  0  0  0  0
   -3.0538   -2.7186   -0.6556 H   0  0  0  0  0  0  0  0  0  0  0  0
   -1.3498   -2.2206    0.5184 C   0  0  0  0  0  0  0  0  0  0  0  0
   -0.4997   -2.9426    1.0194 O   0  0  0  0  0  0  0  0  0  0  0  0
   -1.1198   -0.9926    0.0674 N   0  0  0  0  0  0  0  0  0  0  0  0
   -1.8978   -0.4486   -0.2716 H   0  0  0  0  0  0  0  0  0  0  0  0
    0.1693   -0.2866    0.0854 C   0  0  1  0  0  0  0  0  0  0  0  0
    0.0001    0.7706   -0.1262 H   0  0  0  0  0  0  0  0  0  0  0  0
    0.7954   -0.4050    1.4919 C   0  0  0  0  0  0  0  0  0  0  0  0
    0.8043   -1.4565    1.7840 H   0  0  0  0  0  0  0  0  0  0  0  0
    1.8318   -0.0635    1.4456 H   0  0  0  0  0  0  0  0  0  0  0  0
    0.0532    0.3755    2.5880 C   0  0  0  0  0  0  0  0  0  0  0  0
   -0.5740    1.4119    2.2653 O   0  5  0  0  0  0  0  0  0  0  0  0
    0.1370   -0.0659    3.7544 O   0  0  0  0  0  0  0  0  0  0  0  0
    1.0928   -0.8583   -1.0153 C   0  0  0  0  0  0  0  0  0  0  0  0
    2.1149   -0.2500   -1.3539 O   0  0  0  0  0  0  0  0  0  0  0  0
    0.7561   -2.0282   -1.5673 N   0  0  0  0  0  0  0  0  0  0  0  0
   -0.1489   -2.4090   -1.2844 H   0  0  0  0  0  0  0  0  0  0  0  0
    1.4990   -2.7041   -2.6256 C   0  0  0  0  0  0  0  0  0  0  0  0
    2.5657   -2.6817   -2.3983 H   0  0  0  0  0  0  0  0  0  0  0  0
    1.1628   -3.7374   -2.7057 H   0  0  0  0  0  0  0  0  0  0  0  0
    1.3244   -2.1907   -3.5713 H   0  0  0  0  0  0  0  0  0  0  0  0
  5  6  2  0  0  0  0
  5  7  1  0  0  0  0
  2  3  1  0  0  0  0
  2  4  1  0  0  0  0
  2  5  1  0  0  0  0
  1  2  1  0  0  0  0
 17 18  2  0  0  0  0
 17 19  1  0  0  0  0
 14 15  1  0  0  0  0
 14 16  2  0  0  0  0
 11 12  1  0  0  0  0
 11 13  1  0  0  0  0
 11 14  1  0  0  0  0
  9 10  1  0  0  0  0
  9 11  1  0  0  0  0
  9 17  1  0  0  0  0
  7  8  1  0  0  0  0
  7  9  1  0  0  0  0
 21 22  1  0  0  0  0
 21 23  1  0  0  0  0
 21 24  1  0  0  0  0
 19 20  1  0  0  0  0
 19 21  1  0  0  0  0
M  CHG  1  15  -1
M  END
$$$$
default_name
  -OEChem-01062215323D

 24 23  0     1  0  0  0  0  0999 V2000
   -2.8347   -3.7166    0.8034 H   0  0  0  0  0  0  0  0  0  0  0  0
   -2.7728   -2.7096    0.3954 C   0  0  0  0  0  0  0  0  0  0  0  0
   -3.4267   -2.0426    0.9524 H   0  0  0  0  0  0  0  0  0  0  0  0
   -3.0538   -2.7186   -0.6556 H   0  0  0  0  0  0  0  0  0  0  0  0
   -1.3498   -2.2206    0.5184 C   0  0  0  0  0  0  0  0  0  0  0  0
   -0.4997   -2.9426    1.0194 O   0  0  0  0  0  0  0  0  0  0  0  0
   -1.1198   -0.9926    0.0674 N   0  0  0  0  0  0  0  0  0  0  0  0
   -1.8978   -0.4486   -0.2716 H   0  0  0  0  0  0  0  0  0  0  0  0
    0.1693   -0.2866    0.0854 C   0  0  1  0  0  0  0  0  0  0  0  0
    0.0001    0.7706   -0.1262 H   0  0  0  0  0  0  0  0  0  0  0  0
    0.7954   -0.4050    1.4919 C   0  0  0  0  0  0  0  0  0  0  0  0
    0.8043   -1.4565    1.7840 H   0  0  0  0  0  0  0  0  0  0  0  0
    1.8318   -0.0635    1.4456 H   0  0  0  0  0  0  0  0  0  0  0  0
    0.0532    0.3755    2.5880 C   0  0  0  0  0  0  0  0  0  0  0  0
   -0.5740    1.4119    2.2653 O   0  5  0  0  0  0  0  0  0  0  0  0
    0.1370   -0.0659    3.7544 O   0  0  0  0  0  0  0  0  0  0  0  0
    1.0928   -0.8583   -1.0153 C   0  0  0  0  0  0  0  0  0  0  0  0
    2.2373   -0.4145   -1.1658 O   0  0  0  0  0  0  0  0  0  0  0  0
    0.6176   -1.8489   -1.7766 N   0  0  0  0  0  0  0  0  0  0  0  0
   -0.3660   -2.0861   -1.6343 H   0  0  0  0  0  0  0  0  0  0  0  0
    1.3414   -2.4932   -2.8674 C   0  0  0  0  0  0  0  0  0  0  0  0
    2.3635   -2.7091   -2.5537 H   0  0  0  0  0  0  0  0  0  0  0  0
    0.8387   -3.4200   -3.1425 H   0  0  0  0  0  0  0  0  0  0  0  0
    1.3655   -1.8237   -3.7274 H   0  0  0  0  0  0  0  0  0  0  0  0
  5  6  2  0  0  0  0
  5  7  1  0  0  0  0
  2  3  1  0  0  0  0
  2  4  1  0  0  0  0
  2  5  1  0  0  0  0
  1  2  1  0  0  0  0
 17 18  2  0  0  0  0
 17 19  1  0  0  0  0
 14 15  1  0  0  0  0
 14 16  2  0  0  0  0
 11 12  1  0  0  0  0
 11 13  1  0  0  0  0
 11 14  1  0  0  0  0
  9 10  1  0  0  0  0
  9 11  1  0  0  0  0
  9 17  1  0  0  0  0
  7  8  1  0  0  0  0
  7  9  1  0  0  0  0
 21 22  1  0  0  0  0
 21 23  1  0  0  0  0
 21 24  1  0  0  0  0
 19 20  1  0  0  0  0
 19 21  1  0  0  0  0
M  CHG  1  15  -1
M  END
$$$$
default_name
  -OEChem-01062215323D

 24 23  0     1  0  0  0  0  0999 V2000
   -2.8347   -3.7166    0.8034 H   0  0  0  0  0  0  0  0  0  0  0  0
   -2.7728   -2.7096    0.3954 C   0  0  0  0  0  0  0  0  0  0  0  0
   -3.4267   -2.0426    0.9524 H   0  0  0  0  0  0  0  0  0  0  0  0
   -3.0538   -2.7186   -0.6556 H   0  0  0  0  0  0  0  0  0  0  0  0
   -1.3498   -2.2206    0.5184 C   0  0  0  0  0  0  0  0  0  0  0  0
   -0.4997   -2.9426    1.0194 O   0  0  0  0  0  0  0  0  0  0  0  0
   -1.1198   -0.9926    0.0674 N   0  0  0  0  0  0  0  0  0  0  0  0
   -1.8978   -0.4486   -0.2716 H   0  0  0  0  0  0  0  0  0  0  0  0
    0.1693   -0.2866    0.0854 C   0  0  1  0  0  0  0  0  0  0  0  0
    0.0001    0.7706   -0.1262 H   0  0  0  0  0  0  0  0  0  0  0  0
    0.7954   -0.4050    1.4919 C   0  0  0  0  0  0  0  0  0  0  0  0
    0.8043   -1.4565    1.7840 H   0  0  0  0  0  0  0  0  0  0  0  0
    1.8318   -0.0635    1.4456 H   0  0  0  0  0  0  0  0  0  0  0  0
    0.0532    0.3755    2.5880 C   0  0  0  0  0  0  0  0  0  0  0  0
   -0.5740    1.4119    2.2653 O   0  5  0  0  0  0  0  0  0  0  0  0
    0.1370   -0.0659    3.7544 O   0  0  0  0  0  0  0  0  0  0  0  0
    1.0928   -0.8583   -1.0153 C   0  0  0  0  0  0  0  0  0  0  0  0
    2.3072   -0.6251   -0.9977 O   0  0  0  0  0  0  0  0  0  0  0  0
    0.5368   -1.6177   -1.9644 N   0  0  0  0  0  0  0  0  0  0  0  0
   -0.4828   -1.6802   -1.9431 H   0  0  0  0  0  0  0  0  0  0  0  0
    1.2511   -2.2231   -3.0834 C   0  0  0  0  0  0  0  0  0  0  0  0
    2.1781   -2.6743   -2.7273 H   0  0  0  0  0  0  0  0  0  0  0  0
    0.6260   -2.9862   -3.5463 H   0  0  0  0  0  0  0  0  0  0  0  0
    1.4877   -1.4527   -3.8176 H   0  0  0  0  0  0  0  0  0  0  0  0
  5  6  2  0  0  0  0
  5  7  1  0  0  0  0
  2  3  1  0  0  0  0
  2  4  1  0  0  0  0
  2  5  1  0  0  0  0
  1  2  1  0  0  0  0
 17 18  2  0  0  0  0
 17 19  1  0  0  0  0
 14 15  1  0  0  0  0
 14 16  2  0  0  0  0
 11 12  1  0  0  0  0
 11 13  1  0  0  0  0
 11 14  1  0  0  0  0
  9 10  1  0  0  0  0
  9 11  1  0  0  0  0
  9 17  1  0  0  0  0
  7  8  1  0  0  0  0
  7  9  1  0  0  0  0
 21 22  1  0  0  0  0
 21 23  1  0  0  0  0
 21 24  1  0  0  0  0
 19 20  1  0  0  0  0
 19 21  1  0  0  0  0
M  CHG  1  15  -1
M  END
$$$$
default_name
  -OEChem-01062215323D

 24 23  0     1  0  0  0  0  0999 V2000
   -2.8347   -3.7166    0.8034 H   0  0  0  0  0  0  0  0  0  0  0  0
   -2.7728   -2.7096    0.3954 C   0  0  0  0  0  0  0  0  0  0  0  0
   -3.4267   -2.0426    0.9524 H   0  0  0  0  0  0  0  0  0  0  0  0
   -3.0538   -2.7186   -0.6556 H   0  0  0  0  0  0  0  0  0  0  0  0
   -1.3498   -2.2206    0.5184 C   0  0  0  0  0  0  0  0  0  0  0  0
   -0.4997   -2.9426    1.0194 O   0  0  0  0  0  0  0  0  0  0  0  0
   -1.1198   -0.9926    0.0674 N   0  0  0  0  0  0  0  0  0  0  0  0
   -1.8978   -0.4486   -0.2716 H   0  0  0  0  0  0  0  0  0  0  0  0
    0.1693   -0.2866    0.0854 C   0  0  1  0  0  0  0  0  0  0  0  0
    0.0001    0.7706   -0.1262 H   0  0  0  0  0  0  0  0  0  0  0  0
    0.7954   -0.4050    1.4919 C   0  0  0  0  0  0  0  0  0  0  0  0
    0.8043   -1.4565    1.7840 H   0  0  0  0  0  0  0  0  0  0  0  0
    1.8318   -0.0635    1.4456 H   0  0  0  0  0  0  0  0  0  0  0  0
    0.0532    0.3755    2.5880 C   0  0  0  0  0  0  0  0  0  0  0  0
   -0.5740    1.4119    2.2653 O   0  5  0  0  0  0  0  0  0  0  0  0
    0.1370   -0.0659    3.7544 O   0  0  0  0  0  0  0  0  0  0  0  0
    1.0928   -0.8583   -1.0153 C   0  0  0  0  0  0  0  0  0  0  0  0
    2.3198   -0.8674   -0.8613 O   0  0  0  0  0  0  0  0  0  0  0  0
    0.5194   -1.3506   -2.1178 N   0  0  0  0  0  0  0  0  0  0  0  0
   -0.4913   -1.2188   -2.1899 H   0  0  0  0  0  0  0  0  0  0  0  0
    1.2343   -1.9121   -3.2590 C   0  0  0  0  0  0  0  0  0  0  0  0
    2.0220   -2.5797   -2.9074 H   0  0  0  0  0  0  0  0  0  0  0  0
    0.5390   -2.4656   -3.8896 H   0  0  0  0  0  0  0  0  0  0  0  0
    1.6828   -1.1029   -3.8356 H   0  0  0  0  0  0  0  0  0  0  0  0
  5  6  2  0  0  0  0
  5  7  1  0  0  0  0
  2  3  1  0  0  0  0
  2  4  1  0  0  0  0
  2  5  1  0  0  0  0
  1  2  1  0  0  0  0
 17 18  2  0  0  0  0
 17 19  1  0  0  0  0
 14 15  1  0  0  0  0
 14 16  2  0  0  0  0
 11 12  1  0  0  0  0
 11 13  1  0  0  0  0
 11 14  1  0  0  0  0
  9 10  1  0  0  0  0
  9 11  1  0  0  0  0
  9 17  1  0  0  0  0
  7  8  1  0  0  0  0
  7  9  1  0  0  0  0
 21 22  1  0  0  0  0
 21 23  1  0  0  0  0
 21 24  1  0  0  0  0
 19 20  1  0  0  0  0
 19 21  1  0  0  0  0
M  CHG  1  15  -1
M  END
$$$$
default_name
  -OEChem-01062215323D

 24 23  0     1  0  0  0  0  0999 V2000
   -2.8347   -3.7166    0.8034 H   0  0  0  0  0  0  0  0  0  0  0  0
   -2.7728   -2.7096    0.3954 C   0  0  0  0  0  0  0  0  0  0  0  0
   -3.4267   -2.0426    0.9524 H   0  0  0  0  0  0  0  0  0  0  0  0
   -3.0538   -2.7186   -0.6556 H   0  0  0  0  0  0  0  0  0  0  0  0
   -1.3498   -2.2206    0.5184 C   0  0  0  0  0  0  0  0  0  0  0  0
   -0.4997   -2.9426    1.0194 O   0  0  0  0  0  0  0  0  0  0  0  0
   -1.1198   -0.9926    0.0674 N   0  0  0  0  0  0  0  0  0  0  0  0
   -1.8978   -0.4486   -0.2716 H   0  0  0  0  0  0  0  0  0  0  0  0
    0.1693   -0.2866    0.0854 C   0  0  1  0  0  0  0  0  0  0  0  0
    0.0001    0.7706   -0.1262 H   0  0  0  0  0  0  0  0  0  0  0  0
    0.7954   -0.4050    1.4919 C   0  0  0  0  0  0  0  0  0  0  0  0
    0.8043   -1.4565    1.7840 H   0  0  0  0  0  0  0  0  0  0  0  0
    1.8318   -0.0635    1.4456 H   0  0  0  0  0  0  0  0  0  0  0  0
    0.0532    0.3755    2.5880 C   0  0  0  0  0  0  0  0  0  0  0  0
   -0.5740    1.4119    2.2653 O   0  5  0  0  0  0  0  0  0  0  0  0
    0.1370   -0.0659    3.7544 O   0  0  0  0  0  0  0  0  0  0  0  0
    1.0928   -0.8583   -1.0153 C   0  0  0  0  0  0  0  0  0  0  0  0
    2.2744   -1.1248   -0.7657 O   0  0  0  0  0  0  0  0  0  0  0  0
    0.5664   -1.0656   -2.2263 N   0  0  0  0  0  0  0  0  0  0  0  0
   -0.3909   -0.7334   -2.3577 H   0  0  0  0  0  0  0  0  0  0  0  0
    1.2922   -1.5816   -3.3821 C   0  0  0  0  0  0  0  0  0  0  0  0
    1.9059   -2.4317   -3.0817 H   0  0  0  0  0  0  0  0  0  0  0  0
    0.5838   -1.8936   -4.1491 H   0  0  0  0  0  0  0  0  0  0  0  0
    1.9373   -0.7982   -3.7803 H   0  0  0  0  0  0  0  0  0  0  0  0
  5  6  2  0  0  0  0
  5  7  1  0  0  0  0
  2  3  1  0  0  0  0
  2  4  1  0  0  0  0
  2  5  1  0  0  0  0
  1  2  1  0  0  0  0
 17 18  2  0  0  0  0
 17 19  1  0  0  0  0
 14 15  1  0  0  0  0
 14 16  2  0  0  0  0
 11 12  1  0  0  0  0
 11 13  1  0  0  0  0
 11 14  1  0  0  0  0
  9 10  1  0  0  0  0
  9 11  1  0  0  0  0
  9 17  1  0  0  0  0
  7  8  1  0  0  0  0
  7  9  1  0  0  0  0
 21 22  1  0  0  0  0
 21 23  1  0  0  0  0
 21 24  1  0  0  0  0
 19 20  1  0  0  0  0
 19 21  1  0  0  0  0
M  CHG  1  15  -1
M  END
$$$$
default_name
  -OEChem-01062215323D

 24 23  0     1  0  0  0  0  0999 V2000
   -2.8347   -3.7166    0.8034 H   0  0  0  0  0  0  0  0  0  0  0  0
   -2.7728   -2.7096    0.3954 C   0  0  0  0  0  0  0  0  0  0  0  0
   -3.4267   -2.0426    0.9524 H   0  0  0  0  0  0  0  0  0  0  0  0
   -3.0538   -2.7186   -0.6556 H   0  0  0  0  0  0  0  0  0  0  0  0
   -1.3498   -2.2206    0.5184 C   0  0  0  0  0  0  0  0  0  0  0  0
   -0.4997   -2.9426    1.0194 O   0  0  0  0  0  0  0  0  0  0  0  0
   -1.1198   -0.9926    0.0674 N   0  0  0  0  0  0  0  0  0  0  0  0
   -1.8978   -0.4486   -0.2716 H   0  0  0  0  0  0  0  0  0  0  0  0
    0.1693   -0.2866    0.0854 C   0  0  1  0  0  0  0  0  0  0  0  0
    0.0001    0.7706   -0.1262 H   0  0  0  0  0  0  0  0  0  0  0  0
    0.7954   -0.4050    1.4919 C   0  0  0  0  0  0  0  0  0  0  0  0
    0.8043   -1.4565    1.7840 H   0  0  0  0  0  0  0  0  0  0  0  0
    1.8318   -0.0635    1.4456 H   0  0  0  0  0  0  0  0  0  0  0  0
    0.0532    0.3755    2.5880 C   0  0  0  0  0  0  0  0  0  0  0  0
   -0.5740    1.4119    2.2653 O   0  5  0  0  0  0  0  0  0  0  0  0
    0.1370   -0.0659    3.7544 O   0  0  0  0  0  0  0  0  0  0  0  0
    1.0928   -0.8583   -1.0153 C   0  0  0  0  0  0  0  0  0  0  0  0
    2.1739   -1.3799   -0.7176 O   0  0  0  0  0  0  0  0  0  0  0  0
    0.6748   -0.7822   -2.2826 N   0  0  0  0  0  0  0  0  0  0  0  0
   -0.1884   -0.2571   -2.4352 H   0  0  0  0  0  0  0  0  0  0  0  0
    1.4207   -1.2539   -3.4445 C   0  0  0  0  0  0  0  0  0  0  0  0
    1.8377   -2.2405   -3.2382 H   0  0  0  0  0  0  0  0  0  0  0  0
    0.7573   -1.3092   -4.3071 H   0  0  0  0  0  0  0  0  0  0  0  0
    2.2340   -0.5593   -3.6554 H   0  0  0  0  0  0  0  0  0  0  0  0
  5  6  2  0  0  0  0
  5  7  1  0  0  0  0
  2  3  1  0  0  0  0
  2  4  1  0  0  0  0
  2  5  1  0  0  0  0
  1  2  1  0  0  0  0
 17 18  2  0  0  0  0
 17 19  1  0  0  0  0
 14 15  1  0  0  0  0
 14 16  2  0  0  0  0
 11 12  1  0  0  0  0
 11 13  1  0  0  0  0
 11 14  1  0  0  0  0
  9 10  1  0  0  0  0
  9 11  1  0  0  0  0
  9 17  1  0  0  0  0
  7  8  1  0  0  0  0
  7  9  1  0  0  0  0
 21 22  1  0  0  0  0
 21 23  1  0  0  0  0
 21 24  1  0  0  0  0
 19 20  1  0  0  0  0
 19 21  1  0  0  0  0
M  CHG  1  15  -1
M  END
$$$$
default_name
  -OEChem-01062215323D

 24 23  0     1  0  0  0  0  0999 V2000
   -2.8347   -3.7166    0.8034 H   0  0  0  0  0  0  0  0  0  0  0  0
   -2.7728   -2.7096    0.3954 C   0  0  0  0  0  0  0  0  0  0  0  0
   -3.4267   -2.0426    0.9524 H   0  0  0  0  0  0  0  0  0  0  0  0
   -3.0538   -2.7186   -0.6556 H   0  0  0  0  0  0  0  0  0  0  0  0
   -1.3498   -2.2206    0.5184 C   0  0  0  0  0  0  0  0  0  0  0  0
   -0.4997   -2.9426    1.0194 O   0  0  0  0  0  0  0  0  0  0  0  0
   -1.1198   -0.9926    0.0674 N   0  0  0  0  0  0  0  0  0  0  0  0
   -1.8978   -0.4486   -0.2716 H   0  0  0  0  0  0  0  0  0  0  0  0
    0.1693   -0.2866    0.0854 C   0  0  1  0  0  0  0  0  0  0  0  0
    0.0001    0.7706   -0.1262 H   0  0  0  0  0  0  0  0  0  0  0  0
    0.7954   -0.4050    1.4919 C   0  0  0  0  0  0  0  0  0  0  0  0
    0.8043   -1.4565    1.7840 H   0  0  0  0  0  0  0  0  0  0  0  0
    1.8318   -0.0635    1.4456 H   0  0  0  0  0  0  0  0  0  0  0  0
    0.0532    0.3755    2.5880 C   0  0  0  0  0  0  0  0  0  0  0  0
   -0.5740    1.4119    2.2653 O   0  5  0  0  0  0  0  0  0  0  0  0
    0.1370   -0.0659    3.7544 O   0  0  0  0  0  0  0  0  0  0  0  0
    1.0928   -0.8583   -1.0153 C   0  0  0  0  0  0  0  0  0  0  0  0
    2.0252   -1.6152   -0.7201 O   0  0  0  0  0  0  0  0  0  0  0  0
    0.8370   -0.5198   -2.2828 N   0  0  0  0  0  0  0  0  0  0  0  0
    0.1024    0.1776   -2.4170 H   0  0  0  0  0  0  0  0  0  0  0  0
    1.6113   -0.9514   -3.4417 C   0  0  0  0  0  0  0  0  0  0  0  0
    1.8221   -2.0190   -3.3664 H   0  0  0  0  0  0  0  0  0  0  0  0
    1.0476   -0.7523   -4.3527 H   0  0  0  0  0  0  0  0  0  0  0  0
    2.5527   -0.4025   -3.4695 H   0  0  0  0  0  0  0  0  0  0  0  0
  5  6  2  0  0  0  0
  5  7  1  0  0  0  0
  2  3  1  0  0  0  0
  2  4  1  0  0  0  0
  2  5  1  0  0  0  0
  1  2  1  0  0  0  0
 17 18  2  0  0  0  0
 17 19  1  0  0  0  0
 14 15  1  0  0  0  0
 14 16  2  0  0  0  0
 11 12  1  0  0  0  0
 11 13  1  0  0  0  0
 11 14  1  0  0  0  0
  9 10  1  0  0  0  0
  9 11  1  0  0  0  0
  9 17  1  0  0  0  0
  7  8  1  0  0  0  0
  7  9  1  0  0  0  0
 21 22  1  0  0  0  0
 21 23  1  0  0  0  0
 21 24  1  0  0  0  0
 19 20  1  0  0  0  0
 19 21  1  0  0  0  0
M  CHG  1  15  -1
M  END
$$$$
default_name
  -OEChem-01062215323D

 24 23  0     1  0  0  0  0  0999 V2000
   -2.8347   -3.7166    0.8034 H   0  0  0  0  0  0  0  0  0  0  0  0
   -2.7728   -2.7096    0.3954 C   0  0  0  0  0  0  0  0  0  0  0  0
   -3.4267   -2.0426    0.9524 H   0  0  0  0  0  0  0  0  0  0  0  0
   -3.0538   -2.7186   -0.6556 H   0  0  0  0  0  0  0  0  0  0  0  0
   -1.3498   -2.2206    0.5184 C   0  0  0  0  0  0  0  0  0  0  0  0
   -0.4997   -2.9426    1.0194 O   0  0  0  0  0  0  0  0  0  0  0  0
   -1.1198   -0.9926    0.0674 N   0  0  0  0  0  0  0  0  0  0  0  0
   -1.8978   -0.4486   -0.2716 H   0  0  0  0  0  0  0  0  0  0  0  0
    0.1693   -0.2866    0.0854 C   0  0  1  0  0  0  0  0  0  0  0  0
    0.0001    0.7706   -0.1262 H   0  0  0  0  0  0  0  0  0  0  0  0
    0.7954   -0.4050    1.4919 C   0  0  0  0  0  0  0  0  0  0  0  0
    0.8043   -1.4565    1.7840 H   0  0  0  0  0  0  0  0  0  0  0  0
    1.8318   -0.0635    1.4456 H   0  0  0  0  0  0  0  0  0  0  0  0
    0.0532    0.3755    2.5880 C   0  0  0  0  0  0  0  0  0  0  0  0
   -0.5740    1.4119    2.2653 O   0  5  0  0  0  0  0  0  0  0  0  0
    0.1370   -0.0659    3.7544 O   0  0  0  0  0  0  0  0  0  0  0  0
    1.0928   -0.8583   -1.0153 C   0  0  0  0  0  0  0  0  0  0  0  0
    1.8385   -1.8147   -0.7731 O   0  0  0  0  0  0  0  0  0  0  0  0
    1.0420   -0.2961   -2.2269 N   0  0  0  0  0  0  0  0  0  0  0  0
    0.4615    0.5412   -2.3045 H   0  0  0  0  0  0  0  0  0  0  0  0
    1.8507   -0.6948   -3.3740 C   0  0  0  0  0  0  0  0  0  0  0  0
    1.8600   -1.7823   -3.4575 H   0  0  0  0  0  0  0  0  0  0  0  0
    1.4350   -0.2608   -4.2830 H   0  0  0  0  0  0  0  0  0  0  0  0
    2.8716   -0.3385   -3.2351 H   0  0  0  0  0  0  0  0  0  0  0  0
  5  6  2  0  0  0  0
  5  7  1  0  0  0  0
  2  3  1  0  0  0  0
  2  4  1  0  0  0  0
  2  5  1  0  0  0  0
  1  2  1  0  0  0  0
 17 18  2  0  0  0  0
 17 19  1  0  0  0  0
 14 15  1  0  0  0  0
 14 16  2  0  0  0  0
 11 12  1  0  0  0  0
 11 13  1  0  0  0  0
 11 14  1  0  0  0  0
  9 10  1  0  0  0  0
  9 11  1  0  0  0  0
  9 17  1  0  0  0  0
  7  8  1  0  0  0  0
  7  9  1  0  0  0  0
 21 22  1  0  0  0  0
 21 23  1  0  0  0  0
 21 24  1  0  0  0  0
 19 20  1  0  0  0  0
 19 21  1  0  0  0  0
M  CHG  1  15  -1
M  END
$$$$
default_name
  -OEChem-01062215323D

 24 23  0     1  0  0  0  0  0999 V2000
   -2.8347   -3.7166    0.8034 H   0  0  0  0  0  0  0  0  0  0  0  0
   -2.7728   -2.7096    0.3954 C   0  0  0  0  0  0  0  0  0  0  0  0
   -3.4267   -2.0426    0.9524 H   0  0  0  0  0  0  0  0  0  0  0  0
   -3.0538   -2.7186   -0.6556 H   0  0  0  0  0  0  0  0  0  0  0  0
   -1.3498   -2.2206    0.5184 C   0  0  0  0  0  0  0  0  0  0  0  0
   -0.4997   -2.9426    1.0194 O   0  0  0  0  0  0  0  0  0  0  0  0
   -1.1198   -0.9926    0.0674 N   0  0  0  0  0  0  0  0  0  0  0  0
   -1.8978   -0.4486   -0.2716 H   0  0  0  0  0  0  0  0  0  0  0  0
    0.1693   -0.2866    0.0854 C   0  0  1  0  0  0  0  0  0  0  0  0
    0.0001    0.7706   -0.1262 H   0  0  0  0  0  0  0  0  0  0  0  0
    0.7954   -0.4050    1.4919 C   0  0  0  0  0  0  0  0  0  0  0  0
    0.8043   -1.4565    1.7840 H   0  0  0  0  0  0  0  0  0  0  0  0
    1.8318   -0.0635    1.4456 H   0  0  0  0  0  0  0  0  0  0  0  0
    0.0532    0.3755    2.5880 C   0  0  0  0  0  0  0  0  0  0  0  0
   -0.5740    1.4119    2.2653 O   0  5  0  0  0  0  0  0  0  0  0  0
    0.1370   -0.0659    3.7544 O   0  0  0  0  0  0  0  0  0  0  0  0
    1.0928   -0.8583   -1.0153 C   0  0  0  0  0  0  0  0  0  0  0  0
    1.6265   -1.9648   -0.8731 O   0  0  0  0  0  0  0  0  0  0  0  0
    1.2760   -0.1265   -2.1187 N   0  0  0  0  0  0  0  0  0  0  0  0
    0.8647    0.8088   -2.1052 H   0  0  0  0  0  0  0  0  0  0  0  0
    2.1229   -0.5015   -3.2461 C   0  0  0  0  0  0  0  0  0  0  0  0
    1.9490   -1.5466   -3.5053 H   0  0  0  0  0  0  0  0  0  0  0  0
    1.8931    0.1318   -4.1025 H   0  0  0  0  0  0  0  0  0  0  0  0
    3.1690   -0.3716   -2.9684 H   0  0  0  0  0  0  0  0  0  0  0  0
  5  6  2  0  0  0  0
  5  7  1  0  0  0  0
  2  3  1  0  0  0  0
  2  4  1  0  0  0  0
  2  5  1  0  0  0  0
  1  2  1  0  0  0  0
 17 18  2  0  0  0  0
 17 19  1  0  0  0  0
 14 15  1  0  0  0  0
 14 16  2  0  0  0  0
 11 12  1  0  0  0  0
 11 13  1  0  0  0  0
 11 14  1  0  0  0  0
  9 10  1  0  0  0  0
  9 11  1  0  0  0  0
  9 17  1  0  0  0  0
  7  8  1  0  0  0  0
  7  9  1  0  0  0  0
 21 22  1  0  0  0  0
 21 23  1  0  0  0  0
 21 24  1  0  0  0  0
 19 20  1  0  0  0  0
 19 21  1  0  0  0  0
M  CHG  1  15  -1
M  END
$$$$
default_name
  -OEChem-01062215323D

 24 23  0     1  0  0  0  0  0999 V2000
   -2.8347   -3.7166    0.8034 H   0  0  0  0  0  0  0  0  0  0  0  0
   -2.7728   -2.7096    0.3954 C   0  0  0  0  0  0  0  0  0  0  0  0
   -3.4267   -2.0426    0.9524 H   0  0  0  0  0  0  0  0  0  0  0  0
   -3.0538   -2.7186   -0.6556 H   0  0  0  0  0  0  0  0  0  0  0  0
   -1.3498   -2.2206    0.5184 C   0  0  0  0  0  0  0  0  0  0  0  0
   -0.4997   -2.9426    1.0194 O   0  0  0  0  0  0  0  0  0  0  0  0
   -1.1198   -0.9926    0.0674 N   0  0  0  0  0  0  0  0  0  0  0  0
   -1.8978   -0.4486   -0.2716 H   0  0  0  0  0  0  0  0  0  0  0  0
    0.1693   -0.2866    0.0854 C   0  0  1  0  0  0  0  0  0  0  0  0
    0.0001    0.7706   -0.1262 H   0  0  0  0  0  0  0  0  0  0  0  0
    0.7954   -0.4050    1.4919 C   0  0  0  0  0  0  0  0  0  0  0  0
    0.8043   -1.4565    1.7840 H   0  0  0  0  0  0  0  0  0  0  0  0
    1.8318   -0.0635    1.4456 H   0  0  0  0  0  0  0  0  0  0  0  0
    0.0532    0.3755    2.5880 C   0  0  0  0  0  0  0  0  0  0  0  0
   -0.5740    1.4119    2.2653 O   0  5  0  0  0  0  0  0  0  0  0  0
    0.1370   -0.0659    3.7544 O   0  0  0  0  0  0  0  0  0  0  0  0
    1.0928   -0.8583   -1.0153 C   0  0  0  0  0  0  0  0  0  0  0  0
    1.4036   -2.0553   -1.0131 O   0  0  0  0  0  0  0  0  0  0  0  0
    1.5228   -0.0225   -1.9656 N   0  0  0  0  0  0  0  0  0  0  0  0
    1.2843    0.9621   -1.8327 H   0  0  0  0  0  0  0  0  0  0  0  0
    2.4091   -0.3847   -3.0666 C   0  0  0  0  0  0  0  0  0  0  0  0
    2.0829   -1.3280   -3.5065 H   0  0  0  0  0  0  0  0  0  0  0  0
    2.3906    0.3988   -3.8237 H   0  0  0  0  0  0  0  0  0  0  0  0
    3.4247   -0.4997   -2.6874 H   0  0  0  0  0  0  0  0  0  0  0  0
  5  6  2  0  0  0  0
  5  7  1  0  0  0  0
  2  3  1  0  0  0  0
  2  4  1  0  0  0  0
  2  5  1  0  0  0  0
  1  2  1  0  0  0  0
 17 18  2  0  0  0  0
 17 19  1  0  0  0  0
 14 15  1  0  0  0  0
 14 16  2  0  0  0  0
 11 12  1  0  0  0  0
 11 13  1  0  0  0  0
 11 14  1  0  0  0  0
  9 10  1  0  0  0  0
  9 11  1  0  0  0  0
  9 17  1  0  0  0  0
  7  8  1  0  0  0  0
  7  9  1  0  0  0  0
 21 22  1  0  0  0  0
 21 23  1  0  0  0  0
 21 24  1  0  0  0  0
 19 20  1  0  0  0  0
 19 21  1  0  0  0  0
M  CHG  1  15  -1
M  END
$$$$
default_name
  -OEChem-01062215323D

 24 23  0     1  0  0  0  0  0999 V2000
   -2.8347   -3.7166    0.8034 H   0  0  0  0  0  0  0  0  0  0  0  0
   -2.7728   -2.7096    0.3954 C   0  0  0  0  0  0  0  0  0  0  0  0
   -3.4267   -2.0426    0.9524 H   0  0  0  0  0  0  0  0  0  0  0  0
   -3.0538   -2.7186   -0.6556 H   0  0  0  0  0  0  0  0  0  0  0  0
   -1.3498   -2.2206    0.5184 C   0  0  0  0  0  0  0  0  0  0  0  0
   -0.4997   -2.9426    1.0194 O   0  0  0  0  0  0  0  0  0  0  0  0
   -1.1198   -0.9926    0.0674 N   0  0  0  0  0  0  0  0  0  0  0  0
   -1.8978   -0.4486   -0.2716 H   0  0  0  0  0  0  0  0  0  0  0  0
    0.1693   -0.2866    0.0854 C   0  0  1  0  0  0  0  0  0  0  0  0
    0.0001    0.7706   -0.1262 H   0  0  0  0  0  0  0  0  0  0  0  0
    0.7954   -0.4050    1.4919 C   0  0  0  0  0  0  0  0  0  0  0  0
    0.8043   -1.4565    1.7840 H   0  0  0  0  0  0  0  0  0  0  0  0
    1.8318   -0.0635    1.4456 H   0  0  0  0  0  0  0  0  0  0  0  0
    0.0532    0.3755    2.5880 C   0  0  0  0  0  0  0  0  0  0  0  0
   -0.5740    1.4119    2.2653 O   0  5  0  0  0  0  0  0  0  0  0  0
    0.1370   -0.0659    3.7544 O   0  0  0  0  0  0  0  0  0  0  0  0
    1.0928   -0.8583   -1.0153 C   0  0  0  0  0  0  0  0  0  0  0  0
    1.1850   -2.0800   -1.1837 O   0  0  0  0  0  0  0  0  0  0  0  0
    1.7658    0.0089   -1.7781 N   0  0  0  0  0  0  0  0  0  0  0  0
    1.6919    0.9909   -1.5057 H   0  0  0  0  0  0  0  0  0  0  0  0
    2.6899   -0.3523   -2.8478 C   0  0  0  0  0  0  0  0  0  0  0  0
    2.2526   -1.1413   -3.4610 H   0  0  0  0  0  0  0  0  0  0  0  0
    2.8937    0.5219   -3.4656 H   0  0  0  0  0  0  0  0  0  0  0  0
    3.6212   -0.7139   -2.4112 H   0  0  0  0  0  0  0  0  0  0  0  0
  5  6  2  0  0  0  0
  5  7  1  0  0  0  0
  2  3  1  0  0  0  0
  2  4  1  0  0  0  0
  2  5  1  0  0  0  0
  1  2  1  0  0  0  0
 17 18  2  0  0  0  0
 17 19  1  0  0  0  0
 14 15  1  0  0  0  0
 14 16  2  0  0  0  0
 11 12  1  0  0  0  0
 11 13  1  0  0  0  0
 11 14  1  0  0  0  0
  9 10  1  0  0  0  0
  9 11  1  0  0  0  0
  9 17  1  0  0  0  0
  7  8  1  0  0  0  0
  7  9  1  0  0  0  0
 21 22  1  0  0  0  0
 21 23  1  0  0  0  0
 21 24  1  0  0  0  0
 19 20  1  0  0  0  0
 19 21  1  0  0  0  0
M  CHG  1  15  -1
M  END
$$$$
default_name
  -OEChem-01062215323D

 24 23  0     1  0  0  0  0  0999 V2000
   -2.8347   -3.7166    0.8034 H   0  0  0  0  0  0  0  0  0  0  0  0
   -2.7728   -2.7096    0.3954 C   0  0  0  0  0  0  0  0  0  0  0  0
   -3.4267   -2.0426    0.9524 H   0  0  0  0  0  0  0  0  0  0  0  0
   -3.0538   -2.7186   -0.6556 H   0  0  0  0  0  0  0  0  0  0  0  0
   -1.3498   -2.2206    0.5184 C   0  0  0  0  0  0  0  0  0  0  0  0
   -0.4997   -2.9426    1.0194 O   0  0  0  0  0  0  0  0  0  0  0  0
   -1.1198   -0.9926    0.0674 N   0  0  0  0  0  0  0  0  0  0  0  0
   -1.8978   -0.4486   -0.2716 H   0  0  0  0  0  0  0  0  0  0  0  0
    0.1693   -0.2866    0.0854 C   0  0  1  0  0  0  0  0  0  0  0  0
    0.0001    0.7706   -0.1262 H   0  0  0  0  0  0  0  0  0  0  0  0
    0.7954   -0.4050    1.4919 C   0  0  0  0  0  0  0  0  0  0  0  0
    0.8043   -1.4565    1.7840 H   0  0  0  0  0  0  0  0  0  0  0  0
    1.8318   -0.0635    1.4456 H   0  0  0  0  0  0  0  0  0  0  0  0
    0.0532    0.3755    2.5880 C   0  0  0  0  0  0  0  0  0  0  0  0
   -0.5740    1.4119    2.2653 O   0  5  0  0  0  0  0  0  0  0  0  0
    0.1370   -0.0659    3.7544 O   0  0  0  0  0  0  0  0  0  0  0  0
    1.0928   -0.8583   -1.0153 C   0  0  0  0  0  0  0  0  0  0  0  0
    0.9857   -2.0372   -1.3731 O   0  0  0  0  0  0  0  0  0  0  0  0
    1.9883   -0.0346   -1.5688 N   0  0  0  0  0  0  0  0  0  0  0  0
    2.0595    0.8930   -1.1464 H   0  0  0  0  0  0  0  0  0  0  0  0
    2.9462   -0.4066   -2.6045 C   0  0  0  0  0  0  0  0  0  0  0  0
    2.4466   -0.9992   -3.3720 H   0  0  0  0  0  0  0  0  0  0  0  0
    3.3680    0.4927   -3.0524 H   0  0  0  0  0  0  0  0  0  0  0  0
    3.7450   -0.9997   -2.1589 H   0  0  0  0  0  0  0  0  0  0  0  0
  5  6  2  0  0  0  0
  5  7  1  0  0  0  0
  2  3  1  0  0  0  0
  2  4  1  0  0  0  0
  2  5  1  0  0  0  0
  1  2  1  0  0  0  0
 17 18  2  0  0  0  0
 17 19  1  0  0  0  0
 14 15  1  0  0  0  0
 14 16  2  0  0  0  0
 11 12  1  0  0  0  0
 11 13  1  0  0  0  0
 11 14  1  0  0  0  0
  9 10  1  0  0  0  0
  9 11  1  0  0  0  0
  9 17  1  0  0  0  0
  7  8  1  0  0  0  0
  7  9  1  0  0  0  0
 21 22  1  0  0  0  0
 21 23  1  0  0  0  0
 21 24  1  0  0  0  0
 19 20  1  0  0  0  0
 19 21  1  0  0  0  0
M  CHG  1  15  -1
M  END
$$$$
default_name
  -OEChem-01062215323D

 24 23  0     1  0  0  0  0  0999 V2000
   -2.8347   -3.7166    0.8034 H   0  0  0  0  0  0  0  0  0  0  0  0
   -2.7728   -2.7096    0.3954 C   0  0  0  0  0  0  0  0  0  0  0  0
   -3.4267   -2.0426    0.9524 H   0  0  0  0  0  0  0  0  0  0  0  0
   -3.0538   -2.7186   -0.6556 H   0  0  0  0  0  0  0  0  0  0  0  0
   -1.3498   -2.2206    0.5184 C   0  0  0  0  0  0  0  0  0  0  0  0
   -0.4997   -2.9426    1.0194 O   0  0  0  0  0  0  0  0  0  0  0  0
   -1.1198   -0.9926    0.0674 N   0  0  0  0  0  0  0  0  0  0  0  0
   -1.8978   -0.4486   -0.2716 H   0  0  0  0  0  0  0  0  0  0  0  0
    0.1693   -0.2866    0.0854 C   0  0  1  0  0  0  0  0  0  0  0  0
    0.0001    0.7706   -0.1262 H   0  0  0  0  0  0  0  0  0  0  0  0
    0.7954   -0.4050    1.4919 C   0  0  0  0  0  0  0  0  0  0  0  0
    0.8043   -1.4565    1.7840 H   0  0  0  0  0  0  0  0  0  0  0  0
    1.8318   -0.0635    1.4456 H   0  0  0  0  0  0  0  0  0  0  0  0
    0.0532    0.3755    2.5880 C   0  0  0  0  0  0  0  0  0  0  0  0
   -0.5740    1.4119    2.2653 O   0  5  0  0  0  0  0  0  0  0  0  0
    0.1370   -0.0659    3.7544 O   0  0  0  0  0  0  0  0  0  0  0  0
    1.0928   -0.8583   -1.0153 C   0  0  0  0  0  0  0  0  0  0  0  0
    0.8191   -1.9299   -1.5686 O   0  0  0  0  0  0  0  0  0  0  0  0
    2.1752   -0.1500   -1.3521 N   0  0  0  0  0  0  0  0  0  0  0  0
    2.3622    0.6752   -0.7793 H   0  0  0  0  0  0  0  0  0  0  0  0
    3.1605   -0.5439   -2.3535 C   0  0  0  0  0  0  0  0  0  0  0  0
    2.6517   -0.9115   -3.2455 H   0  0  0  0  0  0  0  0  0  0  0  0
    3.7813    0.3134   -2.6125 H   0  0  0  0  0  0  0  0  0  0  0  0
    3.7879   -1.3376   -1.9474 H   0  0  0  0  0  0  0  0  0  0  0  0
  5  6  2  0  0  0  0
  5  7  1  0  0  0  0
  2  3  1  0  0  0  0
  2  4  1  0  0  0  0
  2  5  1  0  0  0  0
  1  2  1  0  0  0  0
 17 18  2  0  0  0  0
 17 19  1  0  0  0  0
 14 15  1  0  0  0  0
 14 16  2  0  0  0  0
 11 12  1  0  0  0  0
 11 13  1  0  0  0  0
 11 14  1  0  0  0  0
  9 10  1  0  0  0  0
  9 11  1  0  0  0  0
  9 17  1  0  0  0  0
  7  8  1  0  0  0  0
  7  9  1  0  0  0  0
 21 22  1  0  0  0  0
 21 23  1  0  0  0  0
 21 24  1  0  0  0  0
 19 20  1  0  0  0  0
 19 21  1  0  0  0  0
M  CHG  1  15  -1
M  END
$$$$
default_name
  -OEChem-01062215323D

 24 23  0     1  0  0  0  0  0999 V2000
   -2.8347   -3.7166    0.8034 H   0  0  0  0  0  0  0  0  0  0  0  0
   -2.7728   -2.7096    0.3954 C   0  0  0  0  0  0  0  0  0  0  0  0
   -3.4267   -2.0426    0.9524 H   0  0  0  0  0  0  0  0  0  0  0  0
   -3.0538   -2.7186   -0.6556 H   0  0  0  0  0  0  0  0  0  0  0  0
   -1.3498   -2.2206    0.5184 C   0  0  0  0  0  0  0  0  0  0  0  0
   -0.4997   -2.9426    1.0194 O   0  0  0  0  0  0  0  0  0  0  0  0
   -1.1198   -0.9926    0.0674 N   0  0  0  0  0  0  0  0  0  0  0  0
   -1.8978   -0.4486   -0.2716 H   0  0  0  0  0  0  0  0  0  0  0  0
    0.1693   -0.2866    0.0854 C   0  0  1  0  0  0  0  0  0  0  0  0
   -0.0131    0.7880    0.1421 H   0  0  0  0  0  0  0  0  0  0  0  0
    0.9645   -0.7099    1.3395 C   0  0  0  0  0  0  0  0  0  0  0  0
    0.9980   -1.7999    1.3817 H   0  0  0  0  0  0  0  0  0  0  0  0
    1.9908   -0.3486    1.2439 H   0  0  0  0  0  0  0  0  0  0  0  0
    0.3736   -0.2114    2.6676 C   0  0  0  0  0  0  0  0  0  0  0  0
   -0.2774    0.8600    2.6690 O   0  5  0  0  0  0  0  0  0  0  0  0
    0.5972   -0.9043    3.6835 O   0  0  0  0  0  0  0  0  0  0  0  0
    0.9419   -0.5775   -1.2221 C   0  0  0  0  0  0  0  0  0  0  0  0
    0.4463   -1.2996   -2.0954 O   0  0  0  0  0  0  0  0  0  0  0  0
    2.1433   -0.0121   -1.3764 N   0  0  0  0  0  0  0  0  0  0  0  0
    2.5034    0.4946   -0.5654 H   0  0  0  0  0  0  0  0  0  0  0  0
    3.0142   -0.1890   -2.5335 C   0  0  0  0  0  0  0  0  0  0  0  0
    2.4300   -0.1013   -3.4505 H   0  0  0  0  0  0  0  0  0  0  0  0
    3.7956    0.5703   -2.5224 H   0  0  0  0  0  0  0  0  0  0  0  0
    3.4688   -1.1791   -2.4929 H   0  0  0  0  0  0  0  0  0  0  0  0
  5  6  2  0  0  0  0
  5  7  1  0  0  0  0
  2  3  1  0  0  0  0
  2  4  1  0  0  0  0
  2  5  1  0  0  0  0
  1  2  1  0  0  0  0
 17 18  2  0  0  0  0
 17 19  1  0  0  0  0
 14 15  1  0  0  0  0
 14 16  2  0  0  0  0
 11 12  1  0  0  0  0
 11 13  1  0  0  0  0
 11 14  1  0  0  0  0
  9 10  1  0  0  0  0
  9 11  1  0  0  0  0
  9 17  1  0  0  0  0
  7  8  1  0  0  0  0
  7  9  1  0  0  0  0
 21 22  1  0  0  0  0
 21 23  1  0  0  0  0
 21 24  1  0  0  0  0
 19 20  1  0  0  0  0
 19 21  1  0  0  0  0
M  CHG  1  15  -1
M  END
$$$$
default_name
  -OEChem-01062215323D

 24 23  0     1  0  0  0  0  0999 V2000
   -2.8347   -3.7166    0.8034 H   0  0  0  0  0  0  0  0  0  0  0  0
   -2.7728   -2.7096    0.3954 C   0  0  0  0  0  0  0  0  0  0  0  0
   -3.4267   -2.0426    0.9524 H   0  0  0  0  0  0  0  0  0  0  0  0
   -3.0538   -2.7186   -0.6556 H   0  0  0  0  0  0  0  0  0  0  0  0
   -1.3498   -2.2206    0.5184 C   0  0  0  0  0  0  0  0  0  0  0  0
   -0.4997   -2.9426    1.0194 O   0  0  0  0  0  0  0  0  0  0  0  0
   -1.1198   -0.9926    0.0674 N   0  0  0  0  0  0  0  0  0  0  0  0
   -1.8978   -0.4486   -0.2716 H   0  0  0  0  0  0  0  0  0  0  0  0
    0.1693   -0.2866    0.0854 C   0  0  1  0  0  0  0  0  0  0  0  0
   -0.0131    0.7880    0.1421 H   0  0  0  0  0  0  0  0  0  0  0  0
    0.9645   -0.7099    1.3395 C   0  0  0  0  0  0  0  0  0  0  0  0
    0.9980   -1.7999    1.3817 H   0  0  0  0  0  0  0  0  0  0  0  0
    1.9908   -0.3486    1.2439 H   0  0  0  0  0  0  0  0  0  0  0  0
    0.3736   -0.2114    2.6676 C   0  0  0  0  0  0  0  0  0  0  0  0
   -0.2774    0.8600    2.6690 O   0  5  0  0  0  0  0  0  0  0  0  0
    0.5972   -0.9043    3.6835 O   0  0  0  0  0  0  0  0  0  0  0  0
    0.9419   -0.5775   -1.2221 C   0  0  0  0  0  0  0  0  0  0  0  0
    0.3584   -1.0576   -2.2012 O   0  0  0  0  0  0  0  0  0  0  0  0
    2.2442   -0.2784   -1.2575 N   0  0  0  0  0  0  0  0  0  0  0  0
    2.6532    0.0313   -0.3738 H   0  0  0  0  0  0  0  0  0  0  0  0
    3.1277   -0.4995   -2.3974 C   0  0  0  0  0  0  0  0  0  0  0  0
    2.6353   -0.1713   -3.3136 H   0  0  0  0  0  0  0  0  0  0  0  0
    4.0522    0.0600   -2.2573 H   0  0  0  0  0  0  0  0  0  0  0  0
    3.3547   -1.5629   -2.4750 H   0  0  0  0  0  0  0  0  0  0  0  0
  5  6  2  0  0  0  0
  5  7  1  0  0  0  0
  2  3  1  0  0  0  0
  2  4  1  0  0  0  0
  2  5  1  0  0  0  0
  1  2  1  0  0  0  0
 17 18  2  0  0  0  0
 17 19  1  0  0  0  0
 14 15  1  0  0  0  0
 14 16  2  0  0  0  0
 11 12  1  0  0  0  0
 11 13  1  0  0  0  0
 11 14  1  0  0  0  0
  9 10  1  0  0  0  0
  9 11  1  0  0  0  0
  9 17  1  0  0  0  0
  7  8  1  0  0  0  0
  7  9  1  0  0  0  0
 21 22  1  0  0  0  0
 21 23  1  0  0  0  0
 21 24  1  0  0  0  0
 19 20  1  0  0  0  0
 19 21  1  0  0  0  0
M  CHG  1  15  -1
M  END
$$$$
default_name
  -OEChem-01062215323D

 24 23  0     1  0  0  0  0  0999 V2000
   -2.8347   -3.7166    0.8034 H   0  0  0  0  0  0  0  0  0  0  0  0
   -2.7728   -2.7096    0.3954 C   0  0  0  0  0  0  0  0  0  0  0  0
   -3.4267   -2.0426    0.9524 H   0  0  0  0  0  0  0  0  0  0  0  0
   -3.0538   -2.7186   -0.6556 H   0  0  0  0  0  0  0  0  0  0  0  0
   -1.3498   -2.2206    0.5184 C   0  0  0  0  0  0  0  0  0  0  0  0
   -0.4997   -2.9426    1.0194 O   0  0  0  0  0  0  0  0  0  0  0  0
   -1.1198   -0.9926    0.0674 N   0  0  0  0  0  0  0  0  0  0  0  0
   -1.8978   -0.4486   -0.2716 H   0  0  0  0  0  0  0  0  0  0  0  0
    0.1693   -0.2866    0.0854 C   0  0  1  0  0  0  0  0  0  0  0  0
   -0.0131    0.7880    0.1421 H   0  0  0  0  0  0  0  0  0  0  0  0
    0.9645   -0.7099    1.3395 C   0  0  0  0  0  0  0  0  0  0  0  0
    0.9980   -1.7999    1.3817 H   0  0  0  0  0  0  0  0  0  0  0  0
    1.9908   -0.3486    1.2439 H   0  0  0  0  0  0  0  0  0  0  0  0
    0.3736   -0.2114    2.6676 C   0  0  0  0  0  0  0  0  0  0  0  0
   -0.2774    0.8600    2.6690 O   0  5  0  0  0  0  0  0  0  0  0  0
    0.5972   -0.9043    3.6835 O   0  0  0  0  0  0  0  0  0  0  0  0
    0.9419   -0.5775   -1.2221 C   0  0  0  0  0  0  0  0  0  0  0  0
    0.3315   -0.7909   -2.2764 O   0  0  0  0  0  0  0  0  0  0  0  0
    2.2776   -0.5730   -1.1722 N   0  0  0  0  0  0  0  0  0  0  0  0
    2.6872   -0.4739   -0.2414 H   0  0  0  0  0  0  0  0  0  0  0  0
    3.1628   -0.8418   -2.3005 C   0  0  0  0  0  0  0  0  0  0  0  0
    2.8115   -0.3015   -3.1805 H   0  0  0  0  0  0  0  0  0  0  0  0
    4.1754   -0.5233   -2.0547 H   0  0  0  0  0  0  0  0  0  0  0  0
    3.1595   -1.9111   -2.5129 H   0  0  0  0  0  0  0  0  0  0  0  0
  5  6  2  0  0  0  0
  5  7  1  0  0  0  0
  2  3  1  0  0  0  0
  2  4  1  0  0  0  0
  2  5  1  0  0  0  0
  1  2  1  0  0  0  0
 17 18  2  0  0  0  0
 17 19  1  0  0  0  0
 14 15  1  0  0  0  0
 14 16  2  0  0  0  0
 11 12  1  0  0  0  0
 11 13  1  0  0  0  0
 11 14  1  0  0  0  0
  9 10  1  0  0  0  0
  9 11  1  0  0  0  0
  9 17  1  0  0  0  0
  7  8  1  0  0  0  0
  7  9  1  0  0  0  0
 21 22  1  0  0  0  0
 21 23  1  0  0  0  0
 21 24  1  0  0  0  0
 19 20  1  0  0  0  0
 19 21  1  0  0  0  0
M  CHG  1  15  -1
M  END
$$$$
default_name
  -OEChem-01062215323D

 24 23  0     1  0  0  0  0  0999 V2000
   -2.8347   -3.7166    0.8034 H   0  0  0  0  0  0  0  0  0  0  0  0
   -2.7728   -2.7096    0.3954 C   0  0  0  0  0  0  0  0  0  0  0  0
   -3.4267   -2.0426    0.9524 H   0  0  0  0  0  0  0  0  0  0  0  0
   -3.0538   -2.7186   -0.6556 H   0  0  0  0  0  0  0  0  0  0  0  0
   -1.3498   -2.2206    0.5184 C   0  0  0  0  0  0  0  0  0  0  0  0
   -0.4997   -2.9426    1.0194 O   0  0  0  0  0  0  0  0  0  0  0  0
   -1.1198   -0.9926    0.0674 N   0  0  0  0  0  0  0  0  0  0  0  0
   -1.8978   -0.4486   -0.2716 H   0  0  0  0  0  0  0  0  0  0  0  0
    0.1693   -0.2866    0.0854 C   0  0  1  0  0  0  0  0  0  0  0  0
   -0.0131    0.7880    0.1421 H   0  0  0  0  0  0  0  0  0  0  0  0
    0.9645   -0.7099    1.3395 C   0  0  0  0  0  0  0  0  0  0  0  0
    0.9980   -1.7999    1.3817 H   0  0  0  0  0  0  0  0  0  0  0  0
    1.9908   -0.3486    1.2439 H   0  0  0  0  0  0  0  0  0  0  0  0
    0.3736   -0.2114    2.6676 C   0  0  0  0  0  0  0  0  0  0  0  0
   -0.2774    0.8600    2.6690 O   0  5  0  0  0  0  0  0  0  0  0  0
    0.5972   -0.9043    3.6835 O   0  0  0  0  0  0  0  0  0  0  0  0
    0.9419   -0.5775   -1.2221 C   0  0  0  0  0  0  0  0  0  0  0  0
    0.3676   -0.5178   -2.3158 O   0  0  0  0  0  0  0  0  0  0  0  0
    2.2413   -0.8759   -1.1263 N   0  0  0  0  0  0  0  0  0  0  0  0
    2.6031   -0.9863   -0.1771 H   0  0  0  0  0  0  0  0  0  0  0  0
    3.1170   -1.1926   -2.2495 C   0  0  0  0  0  0  0  0  0  0  0  0
    2.9468   -0.4831   -3.0602 H   0  0  0  0  0  0  0  0  0  0  0  0
    4.1570   -1.1400   -1.9284 H   0  0  0  0  0  0  0  0  0  0  0  0
    2.8966   -2.1997   -2.6040 H   0  0  0  0  0  0  0  0  0  0  0  0
  5  6  2  0  0  0  0
  5  7  1  0  0  0  0
  2  3  1  0  0  0  0
  2  4  1  0  0  0  0
  2  5  1  0  0  0  0
  1  2  1  0  0  0  0
 17 18  2  0  0  0  0
 17 19  1  0  0  0  0
 14 15  1  0  0  0  0
 14 16  2  0  0  0  0
 11 12  1  0  0  0  0
 11 13  1  0  0  0  0
 11 14  1  0  0  0  0
  9 10  1  0  0  0  0
  9 11  1  0  0  0  0
  9 17  1  0  0  0  0
  7  8  1  0  0  0  0
  7  9  1  0  0  0  0
 21 22  1  0  0  0  0
 21 23  1  0  0  0  0
 21 24  1  0  0  0  0
 19 20  1  0  0  0  0
 19 21  1  0  0  0  0
M  CHG  1  15  -1
M  END
$$$$
default_name
  -OEChem-01062215323D

 24 23  0     1  0  0  0  0  0999 V2000
   -2.8347   -3.7166    0.8034 H   0  0  0  0  0  0  0  0  0  0  0  0
   -2.7728   -2.7096    0.3954 C   0  0  0  0  0  0  0  0  0  0  0  0
   -3.4267   -2.0426    0.9524 H   0  0  0  0  0  0  0  0  0  0  0  0
   -3.0538   -2.7186   -0.6556 H   0  0  0  0  0  0  0  0  0  0  0  0
   -1.3498   -2.2206    0.5184 C   0  0  0  0  0  0  0  0  0  0  0  0
   -0.4997   -2.9426    1.0194 O   0  0  0  0  0  0  0  0  0  0  0  0
   -1.1198   -0.9926    0.0674 N   0  0  0  0  0  0  0  0  0  0  0  0
   -1.8978   -0.4486   -0.2716 H   0  0  0  0  0  0  0  0  0  0  0  0
    0.1693   -0.2866    0.0854 C   0  0  1  0  0  0  0  0  0  0  0  0
   -0.0131    0.7880    0.1421 H   0  0  0  0  0  0  0  0  0  0  0  0
    0.9645   -0.7099    1.3395 C   0  0  0  0  0  0  0  0  0  0  0  0
    0.9980   -1.7999    1.3817 H   0  0  0  0  0  0  0  0  0  0  0  0
    1.9908   -0.3486    1.2439 H   0  0  0  0  0  0  0  0  0  0  0  0
    0.3736   -0.2114    2.6676 C   0  0  0  0  0  0  0  0  0  0  0  0
   -0.2774    0.8600    2.6690 O   0  5  0  0  0  0  0  0  0  0  0  0
    0.5972   -0.9043    3.6835 O   0  0  0  0  0  0  0  0  0  0  0  0
    0.9419   -0.5775   -1.2221 C   0  0  0  0  0  0  0  0  0  0  0  0
    0.4642   -0.2567   -2.3168 O   0  0  0  0  0  0  0  0  0  0  0  0
    2.1377   -1.1665   -1.1228 N   0  0  0  0  0  0  0  0  0  0  0  0
    2.4066   -1.4712   -0.1853 H   0  0  0  0  0  0  0  0  0  0  0  0
    2.9935   -1.5281   -2.2478 C   0  0  0  0  0  0  0  0  0  0  0  0
    3.0318   -0.7036   -2.9609 H   0  0  0  0  0  0  0  0  0  0  0  0
    3.9980   -1.7479   -1.8871 H   0  0  0  0  0  0  0  0  0  0  0  0
    2.5840   -2.4093   -2.7421 H   0  0  0  0  0  0  0  0  0  0  0  0
  5  6  2  0  0  0  0
  5  7  1  0  0  0  0
  2  3  1  0  0  0  0
  2  4  1  0  0  0  0
  2  5  1  0  0  0  0
  1  2  1  0  0  0  0
 17 18  2  0  0  0  0
 17 19  1  0  0  0  0
 14 15  1  0  0  0  0
 14 16  2  0  0  0  0
 11 12  1  0  0  0  0
 11 13  1  0  0  0  0
 11 14  1  0  0  0  0
  9 10  1  0  0  0  0
  9 11  1  0  0  0  0
  9 17  1  0  0  0  0
  7  8  1  0  0  0  0
  7  9  1  0  0  0  0
 21 22  1  0  0  0  0
 21 23  1  0  0  0  0
 21 24  1  0  0  0  0
 19 20  1  0  0  0  0
 19 21  1  0  0  0  0
M  CHG  1  15  -1
M  END
$$$$
default_name
  -OEChem-01062215323D

 24 23  0     1  0  0  0  0  0999 V2000
   -2.8347   -3.7166    0.8034 H   0  0  0  0  0  0  0  0  0  0  0  0
   -2.7728   -2.7096    0.3954 C   0  0  0  0  0  0  0  0  0  0  0  0
   -3.4267   -2.0426    0.9524 H   0  0  0  0  0  0  0  0  0  0  0  0
   -3.0538   -2.7186   -0.6556 H   0  0  0  0  0  0  0  0  0  0  0  0
   -1.3498   -2.2206    0.5184 C   0  0  0  0  0  0  0  0  0  0  0  0
   -0.4997   -2.9426    1.0194 O   0  0  0  0  0  0  0  0  0  0  0  0
   -1.1198   -0.9926    0.0674 N   0  0  0  0  0  0  0  0  0  0  0  0
   -1.8978   -0.4486   -0.2716 H   0  0  0  0  0  0  0  0  0  0  0  0
    0.1693   -0.2866    0.0854 C   0  0  1  0  0  0  0  0  0  0  0  0
   -0.0131    0.7880    0.1421 H   0  0  0  0  0  0  0  0  0  0  0  0
    0.9645   -0.7099    1.3395 C   0  0  0  0  0  0  0  0  0  0  0  0
    0.9980   -1.7999    1.3817 H   0  0  0  0  0  0  0  0  0  0  0  0
    1.9908   -0.3486    1.2439 H   0  0  0  0  0  0  0  0  0  0  0  0
    0.3736   -0.2114    2.6676 C   0  0  0  0  0  0  0  0  0  0  0  0
   -0.2774    0.8600    2.6690 O   0  5  0  0  0  0  0  0  0  0  0  0
    0.5972   -0.9043    3.6835 O   0  0  0  0  0  0  0  0  0  0  0  0
    0.9419   -0.5775   -1.2221 C   0  0  0  0  0  0  0  0  0  0  0  0
    0.6146   -0.0256   -2.2793 O   0  0  0  0  0  0  0  0  0  0  0  0
    1.9738   -1.4250   -1.1622 N   0  0  0  0  0  0  0  0  0  0  0  0
    2.1110   -1.8956   -0.2656 H   0  0  0  0  0  0  0  0  0  0  0  0
    2.8008   -1.8254   -2.2956 C   0  0  0  0  0  0  0  0  0  0  0  0
    3.0609   -0.9481   -2.8893 H   0  0  0  0  0  0  0  0  0  0  0  0
    3.7094   -2.3056   -1.9335 H   0  0  0  0  0  0  0  0  0  0  0  0
    2.2429   -2.5254   -2.9178 H   0  0  0  0  0  0  0  0  0  0  0  0
  5  6  2  0  0  0  0
  5  7  1  0  0  0  0
  2  3  1  0  0  0  0
  2  4  1  0  0  0  0
  2  5  1  0  0  0  0
  1  2  1  0  0  0  0
 17 18  2  0  0  0  0
 17 19  1  0  0  0  0
 14 15  1  0  0  0  0
 14 16  2  0  0  0  0
 11 12  1  0  0  0  0
 11 13  1  0  0  0  0
 11 14  1  0  0  0  0
  9 10  1  0  0  0  0
  9 11  1  0  0  0  0
  9 17  1  0  0  0  0
  7  8  1  0  0  0  0
  7  9  1  0  0  0  0
 21 22  1  0  0  0  0
 21 23  1  0  0  0  0
 21 24  1  0  0  0  0
 19 20  1  0  0  0  0
 19 21  1  0  0  0  0
M  CHG  1  15  -1
M  END
$$$$
default_name
  -OEChem-01062215323D

 24 23  0     1  0  0  0  0  0999 V2000
   -2.8347   -3.7166    0.8034 H   0  0  0  0  0  0  0  0  0  0  0  0
   -2.7728   -2.7096    0.3954 C   0  0  0  0  0  0  0  0  0  0  0  0
   -3.4267   -2.0426    0.9524 H   0  0  0  0  0  0  0  0  0  0  0  0
   -3.0538   -2.7186   -0.6556 H   0  0  0  0  0  0  0  0  0  0  0  0
   -1.3498   -2.2206    0.5184 C   0  0  0  0  0  0  0  0  0  0  0  0
   -0.4997   -2.9426    1.0194 O   0  0  0  0  0  0  0  0  0  0  0  0
   -1.1198   -0.9926    0.0674 N   0  0  0  0  0  0  0  0  0  0  0  0
   -1.8978   -0.4486   -0.2716 H   0  0  0  0  0  0  0  0  0  0  0  0
    0.1693   -0.2866    0.0854 C   0  0  1  0  0  0  0  0  0  0  0  0
   -0.0131    0.7880    0.1421 H   0  0  0  0  0  0  0  0  0  0  0  0
    0.9645   -0.7099    1.3395 C   0  0  0  0  0  0  0  0  0  0  0  0
    0.9980   -1.7999    1.3817 H   0  0  0  0  0  0  0  0  0  0  0  0
    1.9908   -0.3486    1.2439 H   0  0  0  0  0  0  0  0  0  0  0  0
    0.3736   -0.2114    2.6676 C   0  0  0  0  0  0  0  0  0  0  0  0
   -0.2774    0.8600    2.6690 O   0  5  0  0  0  0  0  0  0  0  0  0
    0.5972   -0.9043    3.6835 O   0  0  0  0  0  0  0  0  0  0  0  0
    0.9419   -0.5775   -1.2221 C   0  0  0  0  0  0  0  0  0  0  0  0
    0.8087    0.1600   -2.2059 O   0  0  0  0  0  0  0  0  0  0  0  0
    1.7609   -1.6337   -1.2415 N   0  0  0  0  0  0  0  0  0  0  0  0
    1.7365   -2.2303   -0.4124 H   0  0  0  0  0  0  0  0  0  0  0  0
    2.5519   -2.0641   -2.3895 C   0  0  0  0  0  0  0  0  0  0  0  0
    3.0319   -1.1999   -2.8504 H   0  0  0  0  0  0  0  0  0  0  0  0
    3.3109   -2.7752   -2.0646 H   0  0  0  0  0  0  0  0  0  0  0  0
    1.8966   -2.5401   -3.1192 H   0  0  0  0  0  0  0  0  0  0  0  0
  5  6  2  0  0  0  0
  5  7  1  0  0  0  0
  2  3  1  0  0  0  0
  2  4  1  0  0  0  0
  2  5  1  0  0  0  0
  1  2  1  0  0  0  0
 17 18  2  0  0  0  0
 17 19  1  0  0  0  0
 14 15  1  0  0  0  0
 14 16  2  0  0  0  0
 11 12  1  0  0  0  0
 11 13  1  0  0  0  0
 11 14  1  0  0  0  0
  9 10  1  0  0  0  0
  9 11  1  0  0  0  0
  9 17  1  0  0  0  0
  7  8  1  0  0  0  0
  7  9  1  0  0  0  0
 21 22  1  0  0  0  0
 21 23  1  0  0  0  0
 21 24  1  0  0  0  0
 19 20  1  0  0  0  0
 19 21  1  0  0  0  0
M  CHG  1  15  -1
M  END
$$$$
default_name
  -OEChem-01062215323D

 24 23  0     1  0  0  0  0  0999 V2000
   -2.8347   -3.7166    0.8034 H   0  0  0  0  0  0  0  0  0  0  0  0
   -2.7728   -2.7096    0.3954 C   0  0  0  0  0  0  0  0  0  0  0  0
   -3.4267   -2.0426    0.9524 H   0  0  0  0  0  0  0  0  0  0  0  0
   -3.0538   -2.7186   -0.6556 H   0  0  0  0  0  0  0  0  0  0  0  0
   -1.3498   -2.2206    0.5184 C   0  0  0  0  0  0  0  0  0  0  0  0
   -0.4997   -2.9426    1.0194 O   0  0  0  0  0  0  0  0  0  0  0  0
   -1.1198   -0.9926    0.0674 N   0  0  0  0  0  0  0  0  0  0  0  0
   -1.8978   -0.4486   -0.2716 H   0  0  0  0  0  0  0  0  0  0  0  0
    0.1693   -0.2866    0.0854 C   0  0  1  0  0  0  0  0  0  0  0  0
   -0.0131    0.7880    0.1421 H   0  0  0  0  0  0  0  0  0  0  0  0
    0.9645   -0.7099    1.3395 C   0  0  0  0  0  0  0  0  0  0  0  0
    0.9980   -1.7999    1.3817 H   0  0  0  0  0  0  0  0  0  0  0  0
    1.9908   -0.3486    1.2439 H   0  0  0  0  0  0  0  0  0  0  0  0
    0.3736   -0.2114    2.6676 C   0  0  0  0  0  0  0  0  0  0  0  0
   -0.2774    0.8600    2.6690 O   0  5  0  0  0  0  0  0  0  0  0  0
    0.5972   -0.9043    3.6835 O   0  0  0  0  0  0  0  0  0  0  0  0
    0.9419   -0.5775   -1.2221 C   0  0  0  0  0  0  0  0  0  0  0  0
    1.0332    0.2872   -2.1016 O   0  0  0  0  0  0  0  0  0  0  0  0
    1.5134   -1.7785   -1.3556 N   0  0  0  0  0  0  0  0  0  0  0  0
    1.3087   -2.4528   -0.6157 H   0  0  0  0  0  0  0  0  0  0  0  0
    2.2638   -2.2281   -2.5233 C   0  0  0  0  0  0  0  0  0  0  0  0
    2.9470   -1.4418   -2.8468 H   0  0  0  0  0  0  0  0  0  0  0  0
    2.8295   -3.1247   -2.2713 H   0  0  0  0  0  0  0  0  0  0  0  0
    1.5686   -2.4526   -3.3325 H   0  0  0  0  0  0  0  0  0  0  0  0
  5  6  2  0  0  0  0
  5  7  1  0  0  0  0
  2  3  1  0  0  0  0
  2  4  1  0  0  0  0
  2  5  1  0  0  0  0
  1  2  1  0  0  0  0
 17 18  2  0  0  0  0
 17 19  1  0  0  0  0
 14 15  1  0  0  0  0
 14 16  2  0  0  0  0
 11 12  1  0  0  0  0
 11 13  1  0  0  0  0
 11 14  1  0  0  0  0
  9 10  1  0  0  0  0
  9 11  1  0  0  0  0
  9 17  1  0  0  0  0
  7  8  1  0  0  0  0
  7  9  1  0  0  0  0
 21 22  1  0  0  0  0
 21 23  1  0  0  0  0
 21 24  1  0  0  0  0
 19 20  1  0  0  0  0
 19 21  1  0  0  0  0
M  CHG  1  15  -1
M  END
$$$$
default_name
  -OEChem-01062215323D

 24 23  0     1  0  0  0  0  0999 V2000
   -2.8347   -3.7166    0.8034 H   0  0  0  0  0  0  0  0  0  0  0  0
   -2.7728   -2.7096    0.3954 C   0  0  0  0  0  0  0  0  0  0  0  0
   -3.4267   -2.0426    0.9524 H   0  0  0  0  0  0  0  0  0  0  0  0
   -3.0538   -2.7186   -0.6556 H   0  0  0  0  0  0  0  0  0  0  0  0
   -1.3498   -2.2206    0.5184 C   0  0  0  0  0  0  0  0  0  0  0  0
   -0.4997   -2.9426    1.0194 O   0  0  0  0  0  0  0  0  0  0  0  0
   -1.1198   -0.9926    0.0674 N   0  0  0  0  0  0  0  0  0  0  0  0
   -1.8978   -0.4486   -0.2716 H   0  0  0  0  0  0  0  0  0  0  0  0
    0.1693   -0.2866    0.0854 C   0  0  1  0  0  0  0  0  0  0  0  0
   -0.0131    0.7880    0.1421 H   0  0  0  0  0  0  0  0  0  0  0  0
    0.9645   -0.7099    1.3395 C   0  0  0  0  0  0  0  0  0  0  0  0
    0.9980   -1.7999    1.3817 H   0  0  0  0  0  0  0  0  0  0  0  0
    1.9908   -0.3486    1.2439 H   0  0  0  0  0  0  0  0  0  0  0  0
    0.3736   -0.2114    2.6676 C   0  0  0  0  0  0  0  0  0  0  0  0
   -0.2774    0.8600    2.6690 O   0  5  0  0  0  0  0  0  0  0  0  0
    0.5972   -0.9043    3.6835 O   0  0  0  0  0  0  0  0  0  0  0  0
    0.9419   -0.5775   -1.2221 C   0  0  0  0  0  0  0  0  0  0  0  0
    1.2728    0.3475   -1.9734 O   0  0  0  0  0  0  0  0  0  0  0  0
    1.2482   -1.8493   -1.4965 N   0  0  0  0  0  0  0  0  0  0  0  0
    0.8567   -2.5477   -0.8617 H   0  0  0  0  0  0  0  0  0  0  0  0
    1.9561   -2.3062   -2.6877 C   0  0  0  0  0  0  0  0  0  0  0  0
    2.8118   -1.6573   -2.8787 H   0  0  0  0  0  0  0  0  0  0  0  0
    2.2982   -3.3301   -2.5396 H   0  0  0  0  0  0  0  0  0  0  0  0
    1.2813   -2.2686   -3.5432 H   0  0  0  0  0  0  0  0  0  0  0  0
  5  6  2  0  0  0  0
  5  7  1  0  0  0  0
  2  3  1  0  0  0  0
  2  4  1  0  0  0  0
  2  5  1  0  0  0  0
  1  2  1  0  0  0  0
 17 18  2  0  0  0  0
 17 19  1  0  0  0  0
 14 15  1  0  0  0  0
 14 16  2  0  0  0  0
 11 12  1  0  0  0  0
 11 13  1  0  0  0  0
 11 14  1  0  0  0  0
  9 10  1  0  0  0  0
  9 11  1  0  0  0  0
  9 17  1  0  0  0  0
  7  8  1  0  0  0  0
  7  9  1  0  0  0  0
 21 22  1  0  0  0  0
 21 23  1  0  0  0  0
 21 24  1  0  0  0  0
 19 20  1  0  0  0  0
 19 21  1  0  0  0  0
M  CHG  1  15  -1
M  END
$$$$
default_name
  -OEChem-01062215323D

 24 23  0     1  0  0  0  0  0999 V2000
   -2.8347   -3.7166    0.8034 H   0  0  0  0  0  0  0  0  0  0  0  0
   -2.7728   -2.7096    0.3954 C   0  0  0  0  0  0  0  0  0  0  0  0
   -3.4267   -2.0426    0.9524 H   0  0  0  0  0  0  0  0  0  0  0  0
   -3.0538   -2.7186   -0.6556 H   0  0  0  0  0  0  0  0  0  0  0  0
   -1.3498   -2.2206    0.5184 C   0  0  0  0  0  0  0  0  0  0  0  0
   -0.4997   -2.9426    1.0194 O   0  0  0  0  0  0  0  0  0  0  0  0
   -1.1198   -0.9926    0.0674 N   0  0  0  0  0  0  0  0  0  0  0  0
   -1.8978   -0.4486   -0.2716 H   0  0  0  0  0  0  0  0  0  0  0  0
    0.1693   -0.2866    0.0854 C   0  0  1  0  0  0  0  0  0  0  0  0
   -0.0131    0.7880    0.1421 H   0  0  0  0  0  0  0  0  0  0  0  0
    0.9645   -0.7099    1.3395 C   0  0  0  0  0  0  0  0  0  0  0  0
    0.9980   -1.7999    1.3817 H   0  0  0  0  0  0  0  0  0  0  0  0
    1.9908   -0.3486    1.2439 H   0  0  0  0  0  0  0  0  0  0  0  0
    0.3736   -0.2114    2.6676 C   0  0  0  0  0  0  0  0  0  0  0  0
   -0.2774    0.8600    2.6690 O   0  5  0  0  0  0  0  0  0  0  0  0
    0.5972   -0.9043    3.6835 O   0  0  0  0  0  0  0  0  0  0  0  0
    0.9419   -0.5775   -1.2221 C   0  0  0  0  0  0  0  0  0  0  0  0
    1.5112    0.3367   -1.8301 O   0  0  0  0  0  0  0  0  0  0  0  0
    0.9835   -1.8416   -1.6547 N   0  0  0  0  0  0  0  0  0  0  0  0
    0.4112   -2.5087   -1.1336 H   0  0  0  0  0  0  0  0  0  0  0  0
    1.6498   -2.2930   -2.8716 C   0  0  0  0  0  0  0  0  0  0  0  0
    2.6357   -1.8318   -2.9440 H   0  0  0  0  0  0  0  0  0  0  0  0
    1.7530   -3.3776   -2.8511 H   0  0  0  0  0  0  0  0  0  0  0  0
    1.0544   -2.0008   -3.7368 H   0  0  0  0  0  0  0  0  0  0  0  0
  5  6  2  0  0  0  0
  5  7  1  0  0  0  0
  2  3  1  0  0  0  0
  2  4  1  0  0  0  0
  2  5  1  0  0  0  0
  1  2  1  0  0  0  0
 17 18  2  0  0  0  0
 17 19  1  0  0  0  0
 14 15  1  0  0  0  0
 14 16  2  0  0  0  0
 11 12  1  0  0  0  0
 11 13  1  0  0  0  0
 11 14  1  0  0  0  0
  9 10  1  0  0  0  0
  9 11  1  0  0  0  0
  9 17  1  0  0  0  0
  7  8  1  0  0  0  0
  7  9  1  0  0  0  0
 21 22  1  0  0  0  0
 21 23  1  0  0  0  0
 21 24  1  0  0  0  0
 19 20  1  0  0  0  0
 19 21  1  0  0  0  0
M  CHG  1  15  -1
M  END
$$$$
default_name
  -OEChem-01062215323D

 24 23  0     1  0  0  0  0  0999 V2000
   -2.8347   -3.7166    0.8034 H   0  0  0  0  0  0  0  0  0  0  0  0
   -2.7728   -2.7096    0.3954 C   0  0  0  0  0  0  0  0  0  0  0  0
   -3.4267   -2.0426    0.9524 H   0  0  0  0  0  0  0  0  0  0  0  0
   -3.0538   -2.7186   -0.6556 H   0  0  0  0  0  0  0  0  0  0  0  0
   -1.3498   -2.2206    0.5184 C   0  0  0  0  0  0  0  0  0  0  0  0
   -0.4997   -2.9426    1.0194 O   0  0  0  0  0  0  0  0  0  0  0  0
   -1.1198   -0.9926    0.0674 N   0  0  0  0  0  0  0  0  0  0  0  0
   -1.8978   -0.4486   -0.2716 H   0  0  0  0  0  0  0  0  0  0  0  0
    0.1693   -0.2866    0.0854 C   0  0  1  0  0  0  0  0  0  0  0  0
   -0.0131    0.7880    0.1421 H   0  0  0  0  0  0  0  0  0  0  0  0
    0.9645   -0.7099    1.3395 C   0  0  0  0  0  0  0  0  0  0  0  0
    0.9980   -1.7999    1.3817 H   0  0  0  0  0  0  0  0  0  0  0  0
    1.9908   -0.3486    1.2439 H   0  0  0  0  0  0  0  0  0  0  0  0
    0.3736   -0.2114    2.6676 C   0  0  0  0  0  0  0  0  0  0  0  0
   -0.2774    0.8600    2.6690 O   0  5  0  0  0  0  0  0  0  0  0  0
    0.5972   -0.9043    3.6835 O   0  0  0  0  0  0  0  0  0  0  0  0
    0.9419   -0.5775   -1.2221 C   0  0  0  0  0  0  0  0  0  0  0  0
    1.7321    0.2555   -1.6815 O   0  0  0  0  0  0  0  0  0  0  0  0
    0.7371   -1.7557   -1.8194 N   0  0  0  0  0  0  0  0  0  0  0  0
    0.0028   -2.3384   -1.4128 H   0  0  0  0  0  0  0  0  0  0  0  0
    1.3659   -2.1894   -3.0625 C   0  0  0  0  0  0  0  0  0  0  0  0
    2.4305   -1.9533   -3.0382 H   0  0  0  0  0  0  0  0  0  0  0  0
    1.2312   -3.2638   -3.1848 H   0  0  0  0  0  0  0  0  0  0  0  0
    0.9032   -1.6675   -3.9003 H   0  0  0  0  0  0  0  0  0  0  0  0
  5  6  2  0  0  0  0
  5  7  1  0  0  0  0
  2  3  1  0  0  0  0
  2  4  1  0  0  0  0
  2  5  1  0  0  0  0
  1  2  1  0  0  0  0
 17 18  2  0  0  0  0
 17 19  1  0  0  0  0
 14 15  1  0  0  0  0
 14 16  2  0  0  0  0
 11 12  1  0  0  0  0
 11 13  1  0  0  0  0
 11 14  1  0  0  0  0
  9 10  1  0  0  0  0
  9 11  1  0  0  0  0
  9 17  1  0  0  0  0
  7  8  1  0  0  0  0
  7  9  1  0  0  0  0
 21 22  1  0  0  0  0
 21 23  1  0  0  0  0
 21 24  1  0  0  0  0
 19 20  1  0  0  0  0
 19 21  1  0  0  0  0
M  CHG  1  15  -1
M  END
$$$$
default_name
  -OEChem-01062215323D

 24 23  0     1  0  0  0  0  0999 V2000
   -2.8347   -3.7166    0.8034 H   0  0  0  0  0  0  0  0  0  0  0  0
   -2.7728   -2.7096    0.3954 C   0  0  0  0  0  0  0  0  0  0  0  0
   -3.4267   -2.0426    0.9524 H   0  0  0  0  0  0  0  0  0  0  0  0
   -3.0538   -2.7186   -0.6556 H   0  0  0  0  0  0  0  0  0  0  0  0
   -1.3498   -2.2206    0.5184 C   0  0  0  0  0  0  0  0  0  0  0  0
   -0.4997   -2.9426    1.0194 O   0  0  0  0  0  0  0  0  0  0  0  0
   -1.1198   -0.9926    0.0674 N   0  0  0  0  0  0  0  0  0  0  0  0
   -1.8978   -0.4486   -0.2716 H   0  0  0  0  0  0  0  0  0  0  0  0
    0.1693   -0.2866    0.0854 C   0  0  1  0  0  0  0  0  0  0  0  0
   -0.0131    0.7880    0.1421 H   0  0  0  0  0  0  0  0  0  0  0  0
    0.9645   -0.7099    1.3395 C   0  0  0  0  0  0  0  0  0  0  0  0
    0.9980   -1.7999    1.3817 H   0  0  0  0  0  0  0  0  0  0  0  0
    1.9908   -0.3486    1.2439 H   0  0  0  0  0  0  0  0  0  0  0  0
    0.3736   -0.2114    2.6676 C   0  0  0  0  0  0  0  0  0  0  0  0
   -0.2774    0.8600    2.6690 O   0  5  0  0  0  0  0  0  0  0  0  0
    0.5972   -0.9043    3.6835 O   0  0  0  0  0  0  0  0  0  0  0  0
    0.9419   -0.5775   -1.2221 C   0  0  0  0  0  0  0  0  0  0  0  0
    1.9205    0.1096   -1.5377 O   0  0  0  0  0  0  0  0  0  0  0  0
    0.5259   -1.5975   -1.9794 N   0  0  0  0  0  0  0  0  0  0  0  0
   -0.3409   -2.0483   -1.6805 H   0  0  0  0  0  0  0  0  0  0  0  0
    1.1235   -2.0026   -3.2472 C   0  0  0  0  0  0  0  0  0  0  0  0
    2.2103   -2.0137   -3.1549 H   0  0  0  0  0  0  0  0  0  0  0  0
    0.7683   -2.9966   -3.5177 H   0  0  0  0  0  0  0  0  0  0  0  0
    0.8381   -1.2912   -4.0225 H   0  0  0  0  0  0  0  0  0  0  0  0
  5  6  2  0  0  0  0
  5  7  1  0  0  0  0
  2  3  1  0  0  0  0
  2  4  1  0  0  0  0
  2  5  1  0  0  0  0
  1  2  1  0  0  0  0
 17 18  2  0  0  0  0
 17 19  1  0  0  0  0
 14 15  1  0  0  0  0
 14 16  2  0  0  0  0
 11 12  1  0  0  0  0
 11 13  1  0  0  0  0
 11 14  1  0  0  0  0
  9 10  1  0  0  0  0
  9 11  1  0  0  0  0
  9 17  1  0  0  0  0
  7  8  1  0  0  0  0
  7  9  1  0  0  0  0
 21 22  1  0  0  0  0
 21 23  1  0  0  0  0
 21 24  1  0  0  0  0
 19 20  1  0  0  0  0
 19 21  1  0  0  0  0
M  CHG  1  15  -1
M  END
$$$$
default_name
  -OEChem-01062215323D

 24 23  0     1  0  0  0  0  0999 V2000
   -2.8347   -3.7166    0.8034 H   0  0  0  0  0  0  0  0  0  0  0  0
   -2.7728   -2.7096    0.3954 C   0  0  0  0  0  0  0  0  0  0  0  0
   -3.4267   -2.0426    0.9524 H   0  0  0  0  0  0  0  0  0  0  0  0
   -3.0538   -2.7186   -0.6556 H   0  0  0  0  0  0  0  0  0  0  0  0
   -1.3498   -2.2206    0.5184 C   0  0  0  0  0  0  0  0  0  0  0  0
   -0.4997   -2.9426    1.0194 O   0  0  0  0  0  0  0  0  0  0  0  0
   -1.1198   -0.9926    0.0674 N   0  0  0  0  0  0  0  0  0  0  0  0
   -1.8978   -0.4486   -0.2716 H   0  0  0  0  0  0  0  0  0  0  0  0
    0.1693   -0.2866    0.0854 C   0  0  1  0  0  0  0  0  0  0  0  0
   -0.0131    0.7880    0.1421 H   0  0  0  0  0  0  0  0  0  0  0  0
    0.9645   -0.7099    1.3395 C   0  0  0  0  0  0  0  0  0  0  0  0
    0.9980   -1.7999    1.3817 H   0  0  0  0  0  0  0  0  0  0  0  0
    1.9908   -0.3486    1.2439 H   0  0  0  0  0  0  0  0  0  0  0  0
    0.3736   -0.2114    2.6676 C   0  0  0  0  0  0  0  0  0  0  0  0
   -0.2774    0.8600    2.6690 O   0  5  0  0  0  0  0  0  0  0  0  0
    0.5972   -0.9043    3.6835 O   0  0  0  0  0  0  0  0  0  0  0  0
    0.9419   -0.5775   -1.2221 C   0  0  0  0  0  0  0  0  0  0  0  0
    2.0636   -0.0912   -1.4085 O   0  0  0  0  0  0  0  0  0  0  0  0
    0.3644   -1.3778   -2.1237 N   0  0  0  0  0  0  0  0  0  0  0  0
   -0.5964   -1.6584   -1.9182 H   0  0  0  0  0  0  0  0  0  0  0  0
    0.9393   -1.7452   -3.4134 C   0  0  0  0  0  0  0  0  0  0  0  0
    1.9901   -2.0086   -3.2861 H   0  0  0  0  0  0  0  0  0  0  0  0
    0.3959   -2.5941   -3.8273 H   0  0  0  0  0  0  0  0  0  0  0  0
    0.8635   -0.8978   -4.0950 H   0  0  0  0  0  0  0  0  0  0  0  0
  5  6  2  0  0  0  0
  5  7  1  0  0  0  0
  2  3  1  0  0  0  0
  2  4  1  0  0  0  0
  2  5  1  0  0  0  0
  1  2  1  0  0  0  0
 17 18  2  0  0  0  0
 17 19  1  0  0  0  0
 14 15  1  0  0  0  0
 14 16  2  0  0  0  0
 11 12  1  0  0  0  0
 11 13  1  0  0  0  0
 11 14  1  0  0  0  0
  9 10  1  0  0  0  0
  9 11  1  0  0  0  0
  9 17  1  0  0  0  0
  7  8  1  0  0  0  0
  7  9  1  0  0  0  0
 21 22  1  0  0  0  0
 21 23  1  0  0  0  0
 21 24  1  0  0  0  0
 19 20  1  0  0  0  0
 19 21  1  0  0  0  0
M  CHG  1  15  -1
M  END
$$$$
default_name
  -OEChem-01062215323D

 24 23  0     1  0  0  0  0  0999 V2000
   -2.8347   -3.7166    0.8034 H   0  0  0  0  0  0  0  0  0  0  0  0
   -2.7728   -2.7096    0.3954 C   0  0  0  0  0  0  0  0  0  0  0  0
   -3.4267   -2.0426    0.9524 H   0  0  0  0  0  0  0  0  0  0  0  0
   -3.0538   -2.7186   -0.6556 H   0  0  0  0  0  0  0  0  0  0  0  0
   -1.3498   -2.2206    0.5184 C   0  0  0  0  0  0  0  0  0  0  0  0
   -0.4997   -2.9426    1.0194 O   0  0  0  0  0  0  0  0  0  0  0  0
   -1.1198   -0.9926    0.0674 N   0  0  0  0  0  0  0  0  0  0  0  0
   -1.8978   -0.4486   -0.2716 H   0  0  0  0  0  0  0  0  0  0  0  0
    0.1693   -0.2866    0.0854 C   0  0  1  0  0  0  0  0  0  0  0  0
   -0.0131    0.7880    0.1421 H   0  0  0  0  0  0  0  0  0  0  0  0
    0.9645   -0.7099    1.3395 C   0  0  0  0  0  0  0  0  0  0  0  0
    0.9980   -1.7999    1.3817 H   0  0  0  0  0  0  0  0  0  0  0  0
    1.9908   -0.3486    1.2439 H   0  0  0  0  0  0  0  0  0  0  0  0
    0.3736   -0.2114    2.6676 C   0  0  0  0  0  0  0  0  0  0  0  0
   -0.2774    0.8600    2.6690 O   0  5  0  0  0  0  0  0  0  0  0  0
    0.5972   -0.9043    3.6835 O   0  0  0  0  0  0  0  0  0  0  0  0
    0.9419   -0.5775   -1.2221 C   0  0  0  0  0  0  0  0  0  0  0  0
    2.1515   -0.3332   -1.3027 O   0  0  0  0  0  0  0  0  0  0  0  0
    0.2635   -1.1115   -2.2426 N   0  0  0  0  0  0  0  0  0  0  0  0
   -0.7462   -1.1950   -2.1098 H   0  0  0  0  0  0  0  0  0  0  0  0
    0.8258   -1.4347   -3.5495 C   0  0  0  0  0  0  0  0  0  0  0  0
    1.7849   -1.9386   -3.4230 H   0  0  0  0  0  0  0  0  0  0  0  0
    0.1394   -2.0838   -4.0925 H   0  0  0  0  0  0  0  0  0  0  0  0
    0.9777   -0.5139   -4.1130 H   0  0  0  0  0  0  0  0  0  0  0  0
  5  6  2  0  0  0  0
  5  7  1  0  0  0  0
  2  3  1  0  0  0  0
  2  4  1  0  0  0  0
  2  5  1  0  0  0  0
  1  2  1  0  0  0  0
 17 18  2  0  0  0  0
 17 19  1  0  0  0  0
 14 15  1  0  0  0  0
 14 16  2  0  0  0  0
 11 12  1  0  0  0  0
 11 13  1  0  0  0  0
 11 14  1  0  0  0  0
  9 10  1  0  0  0  0
  9 11  1  0  0  0  0
  9 17  1  0  0  0  0
  7  8  1  0  0  0  0
  7  9  1  0  0  0  0
 21 22  1  0  0  0  0
 21 23  1  0  0  0  0
 21 24  1  0  0  0  0
 19 20  1  0  0  0  0
 19 21  1  0  0  0  0
M  CHG  1  15  -1
M  END
$$$$
default_name
  -OEChem-01062215323D

 24 23  0     1  0  0  0  0  0999 V2000
   -2.8347   -3.7166    0.8034 H   0  0  0  0  0  0  0  0  0  0  0  0
   -2.7728   -2.7096    0.3954 C   0  0  0  0  0  0  0  0  0  0  0  0
   -3.4267   -2.0426    0.9524 H   0  0  0  0  0  0  0  0  0  0  0  0
   -3.0538   -2.7186   -0.6556 H   0  0  0  0  0  0  0  0  0  0  0  0
   -1.3498   -2.2206    0.5184 C   0  0  0  0  0  0  0  0  0  0  0  0
   -0.4997   -2.9426    1.0194 O   0  0  0  0  0  0  0  0  0  0  0  0
   -1.1198   -0.9926    0.0674 N   0  0  0  0  0  0  0  0  0  0  0  0
   -1.8978   -0.4486   -0.2716 H   0  0  0  0  0  0  0  0  0  0  0  0
    0.1693   -0.2866    0.0854 C   0  0  1  0  0  0  0  0  0  0  0  0
   -0.0131    0.7880    0.1421 H   0  0  0  0  0  0  0  0  0  0  0  0
    0.9645   -0.7099    1.3395 C   0  0  0  0  0  0  0  0  0  0  0  0
    0.9980   -1.7999    1.3817 H   0  0  0  0  0  0  0  0  0  0  0  0
    1.9908   -0.3486    1.2439 H   0  0  0  0  0  0  0  0  0  0  0  0
    0.3736   -0.2114    2.6676 C   0  0  0  0  0  0  0  0  0  0  0  0
   -0.2774    0.8600    2.6690 O   0  5  0  0  0  0  0  0  0  0  0  0
    0.5972   -0.9043    3.6835 O   0  0  0  0  0  0  0  0  0  0  0  0
    0.9419   -0.5775   -1.2221 C   0  0  0  0  0  0  0  0  0  0  0  0
    2.1784   -0.5998   -1.2276 O   0  0  0  0  0  0  0  0  0  0  0  0
    0.2300   -0.8169   -2.3279 N   0  0  0  0  0  0  0  0  0  0  0  0
   -0.7802   -0.6899   -2.2422 H   0  0  0  0  0  0  0  0  0  0  0  0
    0.7907   -1.0924   -3.6464 C   0  0  0  0  0  0  0  0  0  0  0  0
    1.6086   -1.8084   -3.5561 H   0  0  0  0  0  0  0  0  0  0  0  0
    0.0161   -1.5005   -4.2951 H   0  0  0  0  0  0  0  0  0  0  0  0
    1.1728   -0.1658   -4.0751 H   0  0  0  0  0  0  0  0  0  0  0  0
  5  6  2  0  0  0  0
  5  7  1  0  0  0  0
  2  3  1  0  0  0  0
  2  4  1  0  0  0  0
  2  5  1  0  0  0  0
  1  2  1  0  0  0  0
 17 18  2  0  0  0  0
 17 19  1  0  0  0  0
 14 15  1  0  0  0  0
 14 16  2  0  0  0  0
 11 12  1  0  0  0  0
 11 13  1  0  0  0  0
 11 14  1  0  0  0  0
  9 10  1  0  0  0  0
  9 11  1  0  0  0  0
  9 17  1  0  0  0  0
  7  8  1  0  0  0  0
  7  9  1  0  0  0  0
 21 22  1  0  0  0  0
 21 23  1  0  0  0  0
 21 24  1  0  0  0  0
 19 20  1  0  0  0  0
 19 21  1  0  0  0  0
M  CHG  1  15  -1
M  END
$$$$
default_name
  -OEChem-01062215323D

 24 23  0     1  0  0  0  0  0999 V2000
   -2.8347   -3.7166    0.8034 H   0  0  0  0  0  0  0  0  0  0  0  0
   -2.7728   -2.7096    0.3954 C   0  0  0  0  0  0  0  0  0  0  0  0
   -3.4267   -2.0426    0.9524 H   0  0  0  0  0  0  0  0  0  0  0  0
   -3.0538   -2.7186   -0.6556 H   0  0  0  0  0  0  0  0  0  0  0  0
   -1.3498   -2.2206    0.5184 C   0  0  0  0  0  0  0  0  0  0  0  0
   -0.4997   -2.9426    1.0194 O   0  0  0  0  0  0  0  0  0  0  0  0
   -1.1198   -0.9926    0.0674 N   0  0  0  0  0  0  0  0  0  0  0  0
   -1.8978   -0.4486   -0.2716 H   0  0  0  0  0  0  0  0  0  0  0  0
    0.1693   -0.2866    0.0854 C   0  0  1  0  0  0  0  0  0  0  0  0
   -0.0131    0.7880    0.1421 H   0  0  0  0  0  0  0  0  0  0  0  0
    0.9645   -0.7099    1.3395 C   0  0  0  0  0  0  0  0  0  0  0  0
    0.9980   -1.7999    1.3817 H   0  0  0  0  0  0  0  0  0  0  0  0
    1.9908   -0.3486    1.2439 H   0  0  0  0  0  0  0  0  0  0  0  0
    0.3736   -0.2114    2.6676 C   0  0  0  0  0  0  0  0  0  0  0  0
   -0.2774    0.8600    2.6690 O   0  5  0  0  0  0  0  0  0  0  0  0
    0.5972   -0.9043    3.6835 O   0  0  0  0  0  0  0  0  0  0  0  0
    0.9419   -0.5775   -1.2221 C   0  0  0  0  0  0  0  0  0  0  0  0
    2.1423   -0.8730   -1.1881 O   0  0  0  0  0  0  0  0  0  0  0  0
    0.2663   -0.5140   -2.3738 N   0  0  0  0  0  0  0  0  0  0  0  0
   -0.6961   -0.1774   -2.3065 H   0  0  0  0  0  0  0  0  0  0  0  0
    0.8365   -0.7416   -3.6974 C   0  0  0  0  0  0  0  0  0  0  0  0
    1.4734   -1.6268   -3.6764 H   0  0  0  0  0  0  0  0  0  0  0  0
    0.0346   -0.8839   -4.4213 H   0  0  0  0  0  0  0  0  0  0  0  0
    1.4357    0.1229   -3.9840 H   0  0  0  0  0  0  0  0  0  0  0  0
  5  6  2  0  0  0  0
  5  7  1  0  0  0  0
  2  3  1  0  0  0  0
  2  4  1  0  0  0  0
  2  5  1  0  0  0  0
  1  2  1  0  0  0  0
 17 18  2  0  0  0  0
 17 19  1  0  0  0  0
 14 15  1  0  0  0  0
 14 16  2  0  0  0  0
 11 12  1  0  0  0  0
 11 13  1  0  0  0  0
 11 14  1  0  0  0  0
  9 10  1  0  0  0  0
  9 11  1  0  0  0  0
  9 17  1  0  0  0  0
  7  8  1  0  0  0  0
  7  9  1  0  0  0  0
 21 22  1  0  0  0  0
 21 23  1  0  0  0  0
 21 24  1  0  0  0  0
 19 20  1  0  0  0  0
 19 21  1  0  0  0  0
M  CHG  1  15  -1
M  END
$$$$
default_name
  -OEChem-01062215323D

 24 23  0     1  0  0  0  0  0999 V2000
   -2.8347   -3.7166    0.8034 H   0  0  0  0  0  0  0  0  0  0  0  0
   -2.7728   -2.7096    0.3954 C   0  0  0  0  0  0  0  0  0  0  0  0
   -3.4267   -2.0426    0.9524 H   0  0  0  0  0  0  0  0  0  0  0  0
   -3.0538   -2.7186   -0.6556 H   0  0  0  0  0  0  0  0  0  0  0  0
   -1.3498   -2.2206    0.5184 C   0  0  0  0  0  0  0  0  0  0  0  0
   -0.4997   -2.9426    1.0194 O   0  0  0  0  0  0  0  0  0  0  0  0
   -1.1198   -0.9926    0.0674 N   0  0  0  0  0  0  0  0  0  0  0  0
   -1.8978   -0.4486   -0.2716 H   0  0  0  0  0  0  0  0  0  0  0  0
    0.1693   -0.2866    0.0854 C   0  0  1  0  0  0  0  0  0  0  0  0
   -0.0131    0.7880    0.1421 H   0  0  0  0  0  0  0  0  0  0  0  0
    0.9645   -0.7099    1.3395 C   0  0  0  0  0  0  0  0  0  0  0  0
    0.9980   -1.7999    1.3817 H   0  0  0  0  0  0  0  0  0  0  0  0
    1.9908   -0.3486    1.2439 H   0  0  0  0  0  0  0  0  0  0  0  0
    0.3736   -0.2114    2.6676 C   0  0  0  0  0  0  0  0  0  0  0  0
   -0.2774    0.8600    2.6690 O   0  5  0  0  0  0  0  0  0  0  0  0
    0.5972   -0.9043    3.6835 O   0  0  0  0  0  0  0  0  0  0  0  0
    0.9419   -0.5775   -1.2221 C   0  0  0  0  0  0  0  0  0  0  0  0
    2.0458   -1.1340   -1.1871 O   0  0  0  0  0  0  0  0  0  0  0  0
    0.3700   -0.2234   -2.3772 N   0  0  0  0  0  0  0  0  0  0  0  0
   -0.4995    0.3075   -2.2983 H   0  0  0  0  0  0  0  0  0  0  0  0
    0.9599   -0.4061   -3.6991 C   0  0  0  0  0  0  0  0  0  0  0  0
    1.3883   -1.4063   -3.7757 H   0  0  0  0  0  0  0  0  0  0  0  0
    0.1935   -0.2759   -4.4626 H   0  0  0  0  0  0  0  0  0  0  0  0
    1.7483    0.3324   -3.8459 H   0  0  0  0  0  0  0  0  0  0  0  0
  5  6  2  0  0  0  0
  5  7  1  0  0  0  0
  2  3  1  0  0  0  0
  2  4  1  0  0  0  0
  2  5  1  0  0  0  0
  1  2  1  0  0  0  0
 17 18  2  0  0  0  0
 17 19  1  0  0  0  0
 14 15  1  0  0  0  0
 14 16  2  0  0  0  0
 11 12  1  0  0  0  0
 11 13  1  0  0  0  0
 11 14  1  0  0  0  0
  9 10  1  0  0  0  0
  9 11  1  0  0  0  0
  9 17  1  0  0  0  0
  7  8  1  0  0  0  0
  7  9  1  0  0  0  0
 21 22  1  0  0  0  0
 21 23  1  0  0  0  0
 21 24  1  0  0  0  0
 19 20  1  0  0  0  0
 19 21  1  0  0  0  0
M  CHG  1  15  -1
M  END
$$$$
default_name
  -OEChem-01062215323D

 24 23  0     1  0  0  0  0  0999 V2000
   -2.8347   -3.7166    0.8034 H   0  0  0  0  0  0  0  0  0  0  0  0
   -2.7728   -2.7096    0.3954 C   0  0  0  0  0  0  0  0  0  0  0  0
   -3.4267   -2.0426    0.9524 H   0  0  0  0  0  0  0  0  0  0  0  0
   -3.0538   -2.7186   -0.6556 H   0  0  0  0  0  0  0  0  0  0  0  0
   -1.3498   -2.2206    0.5184 C   0  0  0  0  0  0  0  0  0  0  0  0
   -0.4997   -2.9426    1.0194 O   0  0  0  0  0  0  0  0  0  0  0  0
   -1.1198   -0.9926    0.0674 N   0  0  0  0  0  0  0  0  0  0  0  0
   -1.8978   -0.4486   -0.2716 H   0  0  0  0  0  0  0  0  0  0  0  0
    0.1693   -0.2866    0.0854 C   0  0  1  0  0  0  0  0  0  0  0  0
   -0.0131    0.7880    0.1421 H   0  0  0  0  0  0  0  0  0  0  0  0
    0.9645   -0.7099    1.3395 C   0  0  0  0  0  0  0  0  0  0  0  0
    0.9980   -1.7999    1.3817 H   0  0  0  0  0  0  0  0  0  0  0  0
    1.9908   -0.3486    1.2439 H   0  0  0  0  0  0  0  0  0  0  0  0
    0.3736   -0.2114    2.6676 C   0  0  0  0  0  0  0  0  0  0  0  0
   -0.2774    0.8600    2.6690 O   0  5  0  0  0  0  0  0  0  0  0  0
    0.5972   -0.9043    3.6835 O   0  0  0  0  0  0  0  0  0  0  0  0
    0.9419   -0.5775   -1.2221 C   0  0  0  0  0  0  0  0  0  0  0  0
    1.8953   -1.3652   -1.2246 O   0  0  0  0  0  0  0  0  0  0  0  0
    0.5338    0.0351   -2.3379 N   0  0  0  0  0  0  0  0  0  0  0  0
   -0.2039    0.7318   -2.2180 H   0  0  0  0  0  0  0  0  0  0  0  0
    1.1527   -0.1088   -3.6513 C   0  0  0  0  0  0  0  0  0  0  0  0
    1.3593   -1.1618   -3.8473 H   0  0  0  0  0  0  0  0  0  0  0  0
    0.4821    0.2818   -4.4162 H   0  0  0  0  0  0  0  0  0  0  0  0
    2.0894    0.4485   -3.6701 H   0  0  0  0  0  0  0  0  0  0  0  0
  5  6  2  0  0  0  0
  5  7  1  0  0  0  0
  2  3  1  0  0  0  0
  2  4  1  0  0  0  0
  2  5  1  0  0  0  0
  1  2  1  0  0  0  0
 17 18  2  0  0  0  0
 17 19  1  0  0  0  0
 14 15  1  0  0  0  0
 14 16  2  0  0  0  0
 11 12  1  0  0  0  0
 11 13  1  0  0  0  0
 11 14  1  0  0  0  0
  9 10  1  0  0  0  0
  9 11  1  0  0  0  0
  9 17  1  0  0  0  0
  7  8  1  0  0  0  0
  7  9  1  0  0  0  0
 21 22  1  0  0  0  0
 21 23  1  0  0  0  0
 21 24  1  0  0  0  0
 19 20  1  0  0  0  0
 19 21  1  0  0  0  0
M  CHG  1  15  -1
M  END
$$$$
default_name
  -OEChem-01062215323D

 24 23  0     1  0  0  0  0  0999 V2000
   -2.8347   -3.7166    0.8034 H   0  0  0  0  0  0  0  0  0  0  0  0
   -2.7728   -2.7096    0.3954 C   0  0  0  0  0  0  0  0  0  0  0  0
   -3.4267   -2.0426    0.9524 H   0  0  0  0  0  0  0  0  0  0  0  0
   -3.0538   -2.7186   -0.6556 H   0  0  0  0  0  0  0  0  0  0  0  0
   -1.3498   -2.2206    0.5184 C   0  0  0  0  0  0  0  0  0  0  0  0
   -0.4997   -2.9426    1.0194 O   0  0  0  0  0  0  0  0  0  0  0  0
   -1.1198   -0.9926    0.0674 N   0  0  0  0  0  0  0  0  0  0  0  0
   -1.8978   -0.4486   -0.2716 H   0  0  0  0  0  0  0  0  0  0  0  0
    0.1693   -0.2866    0.0854 C   0  0  1  0  0  0  0  0  0  0  0  0
   -0.0131    0.7880    0.1421 H   0  0  0  0  0  0  0  0  0  0  0  0
    0.9645   -0.7099    1.3395 C   0  0  0  0  0  0  0  0  0  0  0  0
    0.9980   -1.7999    1.3817 H   0  0  0  0  0  0  0  0  0  0  0  0
    1.9908   -0.3486    1.2439 H   0  0  0  0  0  0  0  0  0  0  0  0
    0.3736   -0.2114    2.6676 C   0  0  0  0  0  0  0  0  0  0  0  0
   -0.2774    0.8600    2.6690 O   0  5  0  0  0  0  0  0  0  0  0  0
    0.5972   -0.9043    3.6835 O   0  0  0  0  0  0  0  0  0  0  0  0
    0.9419   -0.5775   -1.2221 C   0  0  0  0  0  0  0  0  0  0  0  0
    1.7012   -1.5507   -1.2980 O   0  0  0  0  0  0  0  0  0  0  0  0
    0.7467    0.2438   -2.2585 N   0  0  0  0  0  0  0  0  0  0  0  0
    0.1705    1.0666   -2.0712 H   0  0  0  0  0  0  0  0  0  0  0  0
    1.4016    0.1299   -3.5573 C   0  0  0  0  0  0  0  0  0  0  0  0
    1.3882   -0.9100   -3.8862 H   0  0  0  0  0  0  0  0  0  0  0  0
    0.8806    0.7514   -4.2852 H   0  0  0  0  0  0  0  0  0  0  0  0
    2.4358    0.4633   -3.4687 H   0  0  0  0  0  0  0  0  0  0  0  0
  5  6  2  0  0  0  0
  5  7  1  0  0  0  0
  2  3  1  0  0  0  0
  2  4  1  0  0  0  0
  2  5  1  0  0  0  0
  1  2  1  0  0  0  0
 17 18  2  0  0  0  0
 17 19  1  0  0  0  0
 14 15  1  0  0  0  0
 14 16  2  0  0  0  0
 11 12  1  0  0  0  0
 11 13  1  0  0  0  0
 11 14  1  0  0  0  0
  9 10  1  0  0  0  0
  9 11  1  0  0  0  0
  9 17  1  0  0  0  0
  7  8  1  0  0  0  0
  7  9  1  0  0  0  0
 21 22  1  0  0  0  0
 21 23  1  0  0  0  0
 21 24  1  0  0  0  0
 19 20  1  0  0  0  0
 19 21  1  0  0  0  0
M  CHG  1  15  -1
M  END
$$$$
default_name
  -OEChem-01062215323D

 24 23  0     1  0  0  0  0  0999 V2000
   -2.8347   -3.7166    0.8034 H   0  0  0  0  0  0  0  0  0  0  0  0
   -2.7728   -2.7096    0.3954 C   0  0  0  0  0  0  0  0  0  0  0  0
   -3.4267   -2.0426    0.9524 H   0  0  0  0  0  0  0  0  0  0  0  0
   -3.0538   -2.7186   -0.6556 H   0  0  0  0  0  0  0  0  0  0  0  0
   -1.3498   -2.2206    0.5184 C   0  0  0  0  0  0  0  0  0  0  0  0
   -0.4997   -2.9426    1.0194 O   0  0  0  0  0  0  0  0  0  0  0  0
   -1.1198   -0.9926    0.0674 N   0  0  0  0  0  0  0  0  0  0  0  0
   -1.8978   -0.4486   -0.2716 H   0  0  0  0  0  0  0  0  0  0  0  0
    0.1693   -0.2866    0.0854 C   0  0  1  0  0  0  0  0  0  0  0  0
   -0.0131    0.7880    0.1421 H   0  0  0  0  0  0  0  0  0  0  0  0
    0.9645   -0.7099    1.3395 C   0  0  0  0  0  0  0  0  0  0  0  0
    0.9980   -1.7999    1.3817 H   0  0  0  0  0  0  0  0  0  0  0  0
    1.9908   -0.3486    1.2439 H   0  0  0  0  0  0  0  0  0  0  0  0
    0.3736   -0.2114    2.6676 C   0  0  0  0  0  0  0  0  0  0  0  0
   -0.2774    0.8600    2.6690 O   0  5  0  0  0  0  0  0  0  0  0  0
    0.5972   -0.9043    3.6835 O   0  0  0  0  0  0  0  0  0  0  0  0
    0.9419   -0.5775   -1.2221 C   0  0  0  0  0  0  0  0  0  0  0  0
    1.4767   -1.6779   -1.4023 O   0  0  0  0  0  0  0  0  0  0  0  0
    0.9942    0.3886   -2.1445 N   0  0  0  0  0  0  0  0  0  0  0  0
    0.5983    1.2890   -1.8679 H   0  0  0  0  0  0  0  0  0  0  0  0
    1.6897    0.2939   -3.4236 C   0  0  0  0  0  0  0  0  0  0  0  0
    1.4731   -0.6681   -3.8898 H   0  0  0  0  0  0  0  0  0  0  0  0
    1.3620    1.1008   -4.0785 H   0  0  0  0  0  0  0  0  0  0  0  0
    2.7637    0.3757   -3.2555 H   0  0  0  0  0  0  0  0  0  0  0  0
  5  6  2  0  0  0  0
  5  7  1  0  0  0  0
  2  3  1  0  0  0  0
  2  4  1  0  0  0  0
  2  5  1  0  0  0  0
  1  2  1  0  0  0  0
 17 18  2  0  0  0  0
 17 19  1  0  0  0  0
 14 15  1  0  0  0  0
 14 16  2  0  0  0  0
 11 12  1  0  0  0  0
 11 13  1  0  0  0  0
 11 14  1  0  0  0  0
  9 10  1  0  0  0  0
  9 11  1  0  0  0  0
  9 17  1  0  0  0  0
  7  8  1  0  0  0  0
  7  9  1  0  0  0  0
 21 22  1  0  0  0  0
 21 23  1  0  0  0  0
 21 24  1  0  0  0  0
 19 20  1  0  0  0  0
 19 21  1  0  0  0  0
M  CHG  1  15  -1
M  END
$$$$
default_name
  -OEChem-01062215323D

 24 23  0     1  0  0  0  0  0999 V2000
   -2.8347   -3.7166    0.8034 H   0  0  0  0  0  0  0  0  0  0  0  0
   -2.7728   -2.7096    0.3954 C   0  0  0  0  0  0  0  0  0  0  0  0
   -3.4267   -2.0426    0.9524 H   0  0  0  0  0  0  0  0  0  0  0  0
   -3.0538   -2.7186   -0.6556 H   0  0  0  0  0  0  0  0  0  0  0  0
   -1.3498   -2.2206    0.5184 C   0  0  0  0  0  0  0  0  0  0  0  0
   -0.4997   -2.9426    1.0194 O   0  0  0  0  0  0  0  0  0  0  0  0
   -1.1198   -0.9926    0.0674 N   0  0  0  0  0  0  0  0  0  0  0  0
   -1.8978   -0.4486   -0.2716 H   0  0  0  0  0  0  0  0  0  0  0  0
    0.1693   -0.2866    0.0854 C   0  0  1  0  0  0  0  0  0  0  0  0
   -0.0131    0.7880    0.1421 H   0  0  0  0  0  0  0  0  0  0  0  0
    0.9645   -0.7099    1.3395 C   0  0  0  0  0  0  0  0  0  0  0  0
    0.9980   -1.7999    1.3817 H   0  0  0  0  0  0  0  0  0  0  0  0
    1.9908   -0.3486    1.2439 H   0  0  0  0  0  0  0  0  0  0  0  0
    0.3736   -0.2114    2.6676 C   0  0  0  0  0  0  0  0  0  0  0  0
   -0.2774    0.8600    2.6690 O   0  5  0  0  0  0  0  0  0  0  0  0
    0.5972   -0.9043    3.6835 O   0  0  0  0  0  0  0  0  0  0  0  0
    0.9419   -0.5775   -1.2221 C   0  0  0  0  0  0  0  0  0  0  0  0
    1.2371   -1.7382   -1.5305 O   0  0  0  0  0  0  0  0  0  0  0  0
    1.2594    0.4595   -2.0035 N   0  0  0  0  0  0  0  0  0  0  0  0
    1.0504    1.3840   -1.6219 H   0  0  0  0  0  0  0  0  0  0  0  0
    1.9974    0.3720   -3.2591 C   0  0  0  0  0  0  0  0  0  0  0  0
    1.6083   -0.4526   -3.8579 H   0  0  0  0  0  0  0  0  0  0  0  0
    1.8934    1.3063   -3.8102 H   0  0  0  0  0  0  0  0  0  0  0  0
    3.0510    0.1918   -3.0448 H   0  0  0  0  0  0  0  0  0  0  0  0
  5  6  2  0  0  0  0
  5  7  1  0  0  0  0
  2  3  1  0  0  0  0
  2  4  1  0  0  0  0
  2  5  1  0  0  0  0
  1  2  1  0  0  0  0
 17 18  2  0  0  0  0
 17 19  1  0  0  0  0
 14 15  1  0  0  0  0
 14 16  2  0  0  0  0
 11 12  1  0  0  0  0
 11 13  1  0  0  0  0
 11 14  1  0  0  0  0
  9 10  1  0  0  0  0
  9 11  1  0  0  0  0
  9 17  1  0  0  0  0
  7  8  1  0  0  0  0
  7  9  1  0  0  0  0
 21 22  1  0  0  0  0
 21 23  1  0  0  0  0
 21 24  1  0  0  0  0
 19 20  1  0  0  0  0
 19 21  1  0  0  0  0
M  CHG  1  15  -1
M  END
$$$$
default_name
  -OEChem-01062215323D

 24 23  0     1  0  0  0  0  0999 V2000
   -2.8347   -3.7166    0.8034 H   0  0  0  0  0  0  0  0  0  0  0  0
   -2.7728   -2.7096    0.3954 C   0  0  0  0  0  0  0  0  0  0  0  0
   -3.4267   -2.0426    0.9524 H   0  0  0  0  0  0  0  0  0  0  0  0
   -3.0538   -2.7186   -0.6556 H   0  0  0  0  0  0  0  0  0  0  0  0
   -1.3498   -2.2206    0.5184 C   0  0  0  0  0  0  0  0  0  0  0  0
   -0.4997   -2.9426    1.0194 O   0  0  0  0  0  0  0  0  0  0  0  0
   -1.1198   -0.9926    0.0674 N   0  0  0  0  0  0  0  0  0  0  0  0
   -1.8978   -0.4486   -0.2716 H   0  0  0  0  0  0  0  0  0  0  0  0
    0.1693   -0.2866    0.0854 C   0  0  1  0  0  0  0  0  0  0  0  0
   -0.0131    0.7880    0.1421 H   0  0  0  0  0  0  0  0  0  0  0  0
    0.9645   -0.7099    1.3395 C   0  0  0  0  0  0  0  0  0  0  0  0
    0.9980   -1.7999    1.3817 H   0  0  0  0  0  0  0  0  0  0  0  0
    1.9908   -0.3486    1.2439 H   0  0  0  0  0  0  0  0  0  0  0  0
    0.3736   -0.2114    2.6676 C   0  0  0  0  0  0  0  0  0  0  0  0
   -0.2774    0.8600    2.6690 O   0  5  0  0  0  0  0  0  0  0  0  0
    0.5972   -0.9043    3.6835 O   0  0  0  0  0  0  0  0  0  0  0  0
    0.9419   -0.5775   -1.2221 C   0  0  0  0  0  0  0  0  0  0  0  0
    0.9987   -1.7274   -1.6738 O   0  0  0  0  0  0  0  0  0  0  0  0
    1.5242    0.4517   -1.8453 N   0  0  0  0  0  0  0  0  0  0  0  0
    1.4958    1.3449   -1.3500 H   0  0  0  0  0  0  0  0  0  0  0  0
    2.3036    0.3588   -3.0752 C   0  0  0  0  0  0  0  0  0  0  0  0
    1.7845   -0.2781   -3.7926 H   0  0  0  0  0  0  0  0  0  0  0  0
    2.4385    1.3537   -3.4986 H   0  0  0  0  0  0  0  0  0  0  0  0
    3.2779   -0.0760   -2.8511 H   0  0  0  0  0  0  0  0  0  0  0  0
  5  6  2  0  0  0  0
  5  7  1  0  0  0  0
  2  3  1  0  0  0  0
  2  4  1  0  0  0  0
  2  5  1  0  0  0  0
  1  2  1  0  0  0  0
 17 18  2  0  0  0  0
 17 19  1  0  0  0  0
 14 15  1  0  0  0  0
 14 16  2  0  0  0  0
 11 12  1  0  0  0  0
 11 13  1  0  0  0  0
 11 14  1  0  0  0  0
  9 10  1  0  0  0  0
  9 11  1  0  0  0  0
  9 17  1  0  0  0  0
  7  8  1  0  0  0  0
  7  9  1  0  0  0  0
 21 22  1  0  0  0  0
 21 23  1  0  0  0  0
 21 24  1  0  0  0  0
 19 20  1  0  0  0  0
 19 21  1  0  0  0  0
M  CHG  1  15  -1
M  END
$$$$
default_name
  -OEChem-01062215323D

 24 23  0     1  0  0  0  0  0999 V2000
   -2.8347   -3.7166    0.8034 H   0  0  0  0  0  0  0  0  0  0  0  0
   -2.7728   -2.7096    0.3954 C   0  0  0  0  0  0  0  0  0  0  0  0
   -3.4267   -2.0426    0.9524 H   0  0  0  0  0  0  0  0  0  0  0  0
   -3.0538   -2.7186   -0.6556 H   0  0  0  0  0  0  0  0  0  0  0  0
   -1.3498   -2.2206    0.5184 C   0  0  0  0  0  0  0  0  0  0  0  0
   -0.4997   -2.9426    1.0194 O   0  0  0  0  0  0  0  0  0  0  0  0
   -1.1198   -0.9926    0.0674 N   0  0  0  0  0  0  0  0  0  0  0  0
   -1.8978   -0.4486   -0.2716 H   0  0  0  0  0  0  0  0  0  0  0  0
    0.1693   -0.2866    0.0854 C   0  0  1  0  0  0  0  0  0  0  0  0
   -0.0131    0.7880    0.1421 H   0  0  0  0  0  0  0  0  0  0  0  0
    0.9645   -0.7099    1.3395 C   0  0  0  0  0  0  0  0  0  0  0  0
    0.9980   -1.7999    1.3817 H   0  0  0  0  0  0  0  0  0  0  0  0
    1.9908   -0.3486    1.2439 H   0  0  0  0  0  0  0  0  0  0  0  0
    0.3736   -0.2114    2.6676 C   0  0  0  0  0  0  0  0  0  0  0  0
   -0.2774    0.8600    2.6690 O   0  5  0  0  0  0  0  0  0  0  0  0
    0.5972   -0.9043    3.6835 O   0  0  0  0  0  0  0  0  0  0  0  0
    0.9419   -0.5775   -1.2221 C   0  0  0  0  0  0  0  0  0  0  0  0
    0.7778   -1.6463   -1.8224 O   0  0  0  0  0  0  0  0  0  0  0  0
    1.7706    0.3658   -1.6807 N   0  0  0  0  0  0  0  0  0  0  0  0
    1.9043    1.1746   -1.0708 H   0  0  0  0  0  0  0  0  0  0  0  0
    2.5876    0.2552   -2.8844 C   0  0  0  0  0  0  0  0  0  0  0  0
    1.9896   -0.1566   -3.6984 H   0  0  0  0  0  0  0  0  0  0  0  0
    2.9603    1.2400   -3.1650 H   0  0  0  0  0  0  0  0  0  0  0  0
    3.4291   -0.4094   -2.6876 H   0  0  0  0  0  0  0  0  0  0  0  0
  5  6  2  0  0  0  0
  5  7  1  0  0  0  0
  2  3  1  0  0  0  0
  2  4  1  0  0  0  0
  2  5  1  0  0  0  0
  1  2  1  0  0  0  0
 17 18  2  0  0  0  0
 17 19  1  0  0  0  0
 14 15  1  0  0  0  0
 14 16  2  0  0  0  0
 11 12  1  0  0  0  0
 11 13  1  0  0  0  0
 11 14  1  0  0  0  0
  9 10  1  0  0  0  0
  9 11  1  0  0  0  0
  9 17  1  0  0  0  0
  7  8  1  0  0  0  0
  7  9  1  0  0  0  0
 21 22  1  0  0  0  0
 21 23  1  0  0  0  0
 21 24  1  0  0  0  0
 19 20  1  0  0  0  0
 19 21  1  0  0  0  0
M  CHG  1  15  -1
M  END
$$$$
default_name
  -OEChem-01062215323D

 24 23  0     1  0  0  0  0  0999 V2000
   -2.8347   -3.7166    0.8034 H   0  0  0  0  0  0  0  0  0  0  0  0
   -2.7728   -2.7096    0.3954 C   0  0  0  0  0  0  0  0  0  0  0  0
   -3.4267   -2.0426    0.9524 H   0  0  0  0  0  0  0  0  0  0  0  0
   -3.0538   -2.7186   -0.6556 H   0  0  0  0  0  0  0  0  0  0  0  0
   -1.3498   -2.2206    0.5184 C   0  0  0  0  0  0  0  0  0  0  0  0
   -0.4997   -2.9426    1.0194 O   0  0  0  0  0  0  0  0  0  0  0  0
   -1.1198   -0.9926    0.0674 N   0  0  0  0  0  0  0  0  0  0  0  0
   -1.8978   -0.4486   -0.2716 H   0  0  0  0  0  0  0  0  0  0  0  0
    0.1693   -0.2866    0.0854 C   0  0  1  0  0  0  0  0  0  0  0  0
   -0.0131    0.7880    0.1421 H   0  0  0  0  0  0  0  0  0  0  0  0
    0.9645   -0.7099    1.3395 C   0  0  0  0  0  0  0  0  0  0  0  0
    0.9980   -1.7999    1.3817 H   0  0  0  0  0  0  0  0  0  0  0  0
    1.9908   -0.3486    1.2439 H   0  0  0  0  0  0  0  0  0  0  0  0
    0.3736   -0.2114    2.6676 C   0  0  0  0  0  0  0  0  0  0  0  0
   -0.2774    0.8600    2.6690 O   0  5  0  0  0  0  0  0  0  0  0  0
    0.5972   -0.9043    3.6835 O   0  0  0  0  0  0  0  0  0  0  0  0
    0.9419   -0.5775   -1.2221 C   0  0  0  0  0  0  0  0  0  0  0  0
    0.5894   -1.5003   -1.9662 O   0  0  0  0  0  0  0  0  0  0  0  0
    1.9817    0.2076   -1.5207 N   0  0  0  0  0  0  0  0  0  0  0  0
    2.2479    0.8846   -0.8032 H   0  0  0  0  0  0  0  0  0  0  0  0
    2.8300    0.0684   -2.6996 C   0  0  0  0  0  0  0  0  0  0  0  0
    2.2098   -0.0962   -3.5817 H   0  0  0  0  0  0  0  0  0  0  0  0
    3.4232    0.9728   -2.8320 H   0  0  0  0  0  0  0  0  0  0  0  0
    3.4942   -0.7856   -2.5655 H   0  0  0  0  0  0  0  0  0  0  0  0
  5  6  2  0  0  0  0
  5  7  1  0  0  0  0
  2  3  1  0  0  0  0
  2  4  1  0  0  0  0
  2  5  1  0  0  0  0
  1  2  1  0  0  0  0
 17 18  2  0  0  0  0
 17 19  1  0  0  0  0
 14 15  1  0  0  0  0
 14 16  2  0  0  0  0
 11 12  1  0  0  0  0
 11 13  1  0  0  0  0
 11 14  1  0  0  0  0
  9 10  1  0  0  0  0
  9 11  1  0  0  0  0
  9 17  1  0  0  0  0
  7  8  1  0  0  0  0
  7  9  1  0  0  0  0
 21 22  1  0  0  0  0
 21 23  1  0  0  0  0
 21 24  1  0  0  0  0
 19 20  1  0  0  0  0
 19 21  1  0  0  0  0
M  CHG  1  15  -1
M  END
$$$$
default_name
  -OEChem-01062215323D

 24 23  0     1  0  0  0  0  0999 V2000
   -2.8347   -3.7166    0.8034 H   0  0  0  0  0  0  0  0  0  0  0  0
   -2.7728   -2.7096    0.3954 C   0  0  0  0  0  0  0  0  0  0  0  0
   -3.4267   -2.0426    0.9524 H   0  0  0  0  0  0  0  0  0  0  0  0
   -3.0538   -2.7186   -0.6556 H   0  0  0  0  0  0  0  0  0  0  0  0
   -1.3498   -2.2206    0.5184 C   0  0  0  0  0  0  0  0  0  0  0  0
   -0.4997   -2.9426    1.0194 O   0  0  0  0  0  0  0  0  0  0  0  0
   -1.1198   -0.9926    0.0674 N   0  0  0  0  0  0  0  0  0  0  0  0
   -1.8978   -0.4486   -0.2716 H   0  0  0  0  0  0  0  0  0  0  0  0
    0.1693   -0.2866    0.0854 C   0  0  1  0  0  0  0  0  0  0  0  0
    0.0074    0.7437    0.4069 H   0  0  0  0  0  0  0  0  0  0  0  0
    1.1099   -0.9692    1.1020 C   0  0  0  0  0  0  0  0  0  0  0  0
    1.1362   -2.0397    0.8910 H   0  0  0  0  0  0  0  0  0  0  0  0
    2.1202   -0.5778    0.9645 H   0  0  0  0  0  0  0  0  0  0  0  0
    0.6948   -0.7954    2.5714 C   0  0  0  0  0  0  0  0  0  0  0  0
    0.0611    0.2362    2.8968 O   0  5  0  0  0  0  0  0  0  0  0  0
    1.0355   -1.6966    3.3676 O   0  0  0  0  0  0  0  0  0  0  0  0
    0.7695   -0.2598   -1.3394 C   0  0  0  0  0  0  0  0  0  0  0  0
    0.1609   -0.7736   -2.2855 O   0  0  0  0  0  0  0  0  0  0  0  0
    1.9485    0.3468   -1.5089 N   0  0  0  0  0  0  0  0  0  0  0  0
    2.4126    0.6626   -0.6551 H   0  0  0  0  0  0  0  0  0  0  0  0
    2.6663    0.4522   -2.7747 C   0  0  0  0  0  0  0  0  0  0  0  0
    1.9734    0.7354   -3.5681 H   0  0  0  0  0  0  0  0  0  0  0  0
    3.4515    1.2028   -2.6884 H   0  0  0  0  0  0  0  0  0  0  0  0
    3.1114   -0.5131   -3.0168 H   0  0  0  0  0  0  0  0  0  0  0  0
  5  6  2  0  0  0  0
  5  7  1  0  0  0  0
  2  3  1  0  0  0  0
  2  4  1  0  0  0  0
  2  5  1  0  0  0  0
  1  2  1  0  0  0  0
 17 18  2  0  0  0  0
 17 19  1  0  0  0  0
 14 15  1  0  0  0  0
 14 16  2  0  0  0  0
 11 12  1  0  0  0  0
 11 13  1  0  0  0  0
 11 14  1  0  0  0  0
  9 10  1  0  0  0  0
  9 11  1  0  0  0  0
  9 17  1  0  0  0  0
  7  8  1  0  0  0  0
  7  9  1  0  0  0  0
 21 22  1  0  0  0  0
 21 23  1  0  0  0  0
 21 24  1  0  0  0  0
 19 20  1  0  0  0  0
 19 21  1  0  0  0  0
M  CHG  1  15  -1
M  END
$$$$
default_name
  -OEChem-01062215323D

 24 23  0     1  0  0  0  0  0999 V2000
   -2.8347   -3.7166    0.8034 H   0  0  0  0  0  0  0  0  0  0  0  0
   -2.7728   -2.7096    0.3954 C   0  0  0  0  0  0  0  0  0  0  0  0
   -3.4267   -2.0426    0.9524 H   0  0  0  0  0  0  0  0  0  0  0  0
   -3.0538   -2.7186   -0.6556 H   0  0  0  0  0  0  0  0  0  0  0  0
   -1.3498   -2.2206    0.5184 C   0  0  0  0  0  0  0  0  0  0  0  0
   -0.4997   -2.9426    1.0194 O   0  0  0  0  0  0  0  0  0  0  0  0
   -1.1198   -0.9926    0.0674 N   0  0  0  0  0  0  0  0  0  0  0  0
   -1.8978   -0.4486   -0.2716 H   0  0  0  0  0  0  0  0  0  0  0  0
    0.1693   -0.2866    0.0854 C   0  0  1  0  0  0  0  0  0  0  0  0
    0.0074    0.7437    0.4069 H   0  0  0  0  0  0  0  0  0  0  0  0
    1.1099   -0.9692    1.1020 C   0  0  0  0  0  0  0  0  0  0  0  0
    1.1362   -2.0397    0.8910 H   0  0  0  0  0  0  0  0  0  0  0  0
    2.1202   -0.5778    0.9645 H   0  0  0  0  0  0  0  0  0  0  0  0
    0.6948   -0.7954    2.5714 C   0  0  0  0  0  0  0  0  0  0  0  0
    0.0611    0.2362    2.8968 O   0  5  0  0  0  0  0  0  0  0  0  0
    1.0355   -1.6966    3.3676 O   0  0  0  0  0  0  0  0  0  0  0  0
    0.7695   -0.2598   -1.3394 C   0  0  0  0  0  0  0  0  0  0  0  0
    0.0632   -0.5155   -2.3219 O   0  0  0  0  0  0  0  0  0  0  0  0
    2.0605    0.0623   -1.4671 N   0  0  0  0  0  0  0  0  0  0  0  0
    2.5800    0.1706   -0.5939 H   0  0  0  0  0  0  0  0  0  0  0  0
    2.7925    0.1210   -2.7278 C   0  0  0  0  0  0  0  0  0  0  0  0
    2.1933    0.6398   -3.4773 H   0  0  0  0  0  0  0  0  0  0  0  0
    3.7334    0.6502   -2.5800 H   0  0  0  0  0  0  0  0  0  0  0  0
    2.9961   -0.8930   -3.0726 H   0  0  0  0  0  0  0  0  0  0  0  0
  5  6  2  0  0  0  0
  5  7  1  0  0  0  0
  2  3  1  0  0  0  0
  2  4  1  0  0  0  0
  2  5  1  0  0  0  0
  1  2  1  0  0  0  0
 17 18  2  0  0  0  0
 17 19  1  0  0  0  0
 14 15  1  0  0  0  0
 14 16  2  0  0  0  0
 11 12  1  0  0  0  0
 11 13  1  0  0  0  0
 11 14  1  0  0  0  0
  9 10  1  0  0  0  0
  9 11  1  0  0  0  0
  9 17  1  0  0  0  0
  7  8  1  0  0  0  0
  7  9  1  0  0  0  0
 21 22  1  0  0  0  0
 21 23  1  0  0  0  0
 21 24  1  0  0  0  0
 19 20  1  0  0  0  0
 19 21  1  0  0  0  0
M  CHG  1  15  -1
M  END
$$$$
default_name
  -OEChem-01062215323D

 24 23  0     1  0  0  0  0  0999 V2000
   -2.8347   -3.7166    0.8034 H   0  0  0  0  0  0  0  0  0  0  0  0
   -2.7728   -2.7096    0.3954 C   0  0  0  0  0  0  0  0  0  0  0  0
   -3.4267   -2.0426    0.9524 H   0  0  0  0  0  0  0  0  0  0  0  0
   -3.0538   -2.7186   -0.6556 H   0  0  0  0  0  0  0  0  0  0  0  0
   -1.3498   -2.2206    0.5184 C   0  0  0  0  0  0  0  0  0  0  0  0
   -0.4997   -2.9426    1.0194 O   0  0  0  0  0  0  0  0  0  0  0  0
   -1.1198   -0.9926    0.0674 N   0  0  0  0  0  0  0  0  0  0  0  0
   -1.8978   -0.4486   -0.2716 H   0  0  0  0  0  0  0  0  0  0  0  0
    0.1693   -0.2866    0.0854 C   0  0  1  0  0  0  0  0  0  0  0  0
    0.0074    0.7437    0.4069 H   0  0  0  0  0  0  0  0  0  0  0  0
    1.1099   -0.9692    1.1020 C   0  0  0  0  0  0  0  0  0  0  0  0
    1.1362   -2.0397    0.8910 H   0  0  0  0  0  0  0  0  0  0  0  0
    2.1202   -0.5778    0.9645 H   0  0  0  0  0  0  0  0  0  0  0  0
    0.6948   -0.7954    2.5714 C   0  0  0  0  0  0  0  0  0  0  0  0
    0.0611    0.2362    2.8968 O   0  5  0  0  0  0  0  0  0  0  0  0
    1.0355   -1.6966    3.3676 O   0  0  0  0  0  0  0  0  0  0  0  0
    0.7695   -0.2598   -1.3394 C   0  0  0  0  0  0  0  0  0  0  0  0
    0.0301   -0.2393   -2.3306 O   0  0  0  0  0  0  0  0  0  0  0  0
    2.1010   -0.2433   -1.4557 N   0  0  0  0  0  0  0  0  0  0  0  0
    2.6246   -0.3507   -0.5849 H   0  0  0  0  0  0  0  0  0  0  0  0
    2.8355   -0.2337   -2.7164 C   0  0  0  0  0  0  0  0  0  0  0  0
    2.3833    0.4859   -3.4002 H   0  0  0  0  0  0  0  0  0  0  0  0
    3.8744    0.0384   -2.5321 H   0  0  0  0  0  0  0  0  0  0  0  0
    2.7938   -1.2268   -3.1641 H   0  0  0  0  0  0  0  0  0  0  0  0
  5  6  2  0  0  0  0
  5  7  1  0  0  0  0
  2  3  1  0  0  0  0
  2  4  1  0  0  0  0
  2  5  1  0  0  0  0
  1  2  1  0  0  0  0
 17 18  2  0  0  0  0
 17 19  1  0  0  0  0
 14 15  1  0  0  0  0
 14 16  2  0  0  0  0
 11 12  1  0  0  0  0
 11 13  1  0  0  0  0
 11 14  1  0  0  0  0
  9 10  1  0  0  0  0
  9 11  1  0  0  0  0
  9 17  1  0  0  0  0
  7  8  1  0  0  0  0
  7  9  1  0  0  0  0
 21 22  1  0  0  0  0
 21 23  1  0  0  0  0
 21 24  1  0  0  0  0
 19 20  1  0  0  0  0
 19 21  1  0  0  0  0
M  CHG  1  15  -1
M  END
$$$$
default_name
  -OEChem-01062215323D

 24 23  0     1  0  0  0  0  0999 V2000
   -2.8347   -3.7166    0.8034 H   0  0  0  0  0  0  0  0  0  0  0  0
   -2.7728   -2.7096    0.3954 C   0  0  0  0  0  0  0  0  0  0  0  0
   -3.4267   -2.0426    0.9524 H   0  0  0  0  0  0  0  0  0  0  0  0
   -3.0538   -2.7186   -0.6556 H   0  0  0  0  0  0  0  0  0  0  0  0
   -1.3498   -2.2206    0.5184 C   0  0  0  0  0  0  0  0  0  0  0  0
   -0.4997   -2.9426    1.0194 O   0  0  0  0  0  0  0  0  0  0  0  0
   -1.1198   -0.9926    0.0674 N   0  0  0  0  0  0  0  0  0  0  0  0
   -1.8978   -0.4486   -0.2716 H   0  0  0  0  0  0  0  0  0  0  0  0
    0.1693   -0.2866    0.0854 C   0  0  1  0  0  0  0  0  0  0  0  0
    0.0074    0.7437    0.4069 H   0  0  0  0  0  0  0  0  0  0  0  0
    1.1099   -0.9692    1.1020 C   0  0  0  0  0  0  0  0  0  0  0  0
    1.1362   -2.0397    0.8910 H   0  0  0  0  0  0  0  0  0  0  0  0
    2.1202   -0.5778    0.9645 H   0  0  0  0  0  0  0  0  0  0  0  0
    0.6948   -0.7954    2.5714 C   0  0  0  0  0  0  0  0  0  0  0  0
    0.0611    0.2362    2.8968 O   0  5  0  0  0  0  0  0  0  0  0  0
    1.0355   -1.6966    3.3676 O   0  0  0  0  0  0  0  0  0  0  0  0
    0.7695   -0.2598   -1.3394 C   0  0  0  0  0  0  0  0  0  0  0  0
    0.0641    0.0363   -2.3111 O   0  0  0  0  0  0  0  0  0  0  0  0
    2.0673   -0.5494   -1.4757 N   0  0  0  0  0  0  0  0  0  0  0  0
    2.5434   -0.8658   -0.6288 H   0  0  0  0  0  0  0  0  0  0  0  0
    2.7925   -0.5877   -2.7411 C   0  0  0  0  0  0  0  0  0  0  0  0
    2.5305    0.2841   -3.3420 H   0  0  0  0  0  0  0  0  0  0  0  0
    3.8650   -0.5910   -2.5480 H   0  0  0  0  0  0  0  0  0  0  0  0
    2.5185   -1.4919   -3.2851 H   0  0  0  0  0  0  0  0  0  0  0  0
  5  6  2  0  0  0  0
  5  7  1  0  0  0  0
  2  3  1  0  0  0  0
  2  4  1  0  0  0  0
  2  5  1  0  0  0  0
  1  2  1  0  0  0  0
 17 18  2  0  0  0  0
 17 19  1  0  0  0  0
 14 15  1  0  0  0  0
 14 16  2  0  0  0  0
 11 12  1  0  0  0  0
 11 13  1  0  0  0  0
 11 14  1  0  0  0  0
  9 10  1  0  0  0  0
  9 11  1  0  0  0  0
  9 17  1  0  0  0  0
  7  8  1  0  0  0  0
  7  9  1  0  0  0  0
 21 22  1  0  0  0  0
 21 23  1  0  0  0  0
 21 24  1  0  0  0  0
 19 20  1  0  0  0  0
 19 21  1  0  0  0  0
M  CHG  1  15  -1
M  END
$$$$
default_name
  -OEChem-01062215323D

 24 23  0     1  0  0  0  0  0999 V2000
   -2.8347   -3.7166    0.8034 H   0  0  0  0  0  0  0  0  0  0  0  0
   -2.7728   -2.7096    0.3954 C   0  0  0  0  0  0  0  0  0  0  0  0
   -3.4267   -2.0426    0.9524 H   0  0  0  0  0  0  0  0  0  0  0  0
   -3.0538   -2.7186   -0.6556 H   0  0  0  0  0  0  0  0  0  0  0  0
   -1.3498   -2.2206    0.5184 C   0  0  0  0  0  0  0  0  0  0  0  0
   -0.4997   -2.9426    1.0194 O   0  0  0  0  0  0  0  0  0  0  0  0
   -1.1198   -0.9926    0.0674 N   0  0  0  0  0  0  0  0  0  0  0  0
   -1.8978   -0.4486   -0.2716 H   0  0  0  0  0  0  0  0  0  0  0  0
    0.1693   -0.2866    0.0854 C   0  0  1  0  0  0  0  0  0  0  0  0
    0.0074    0.7437    0.4069 H   0  0  0  0  0  0  0  0  0  0  0  0
    1.1099   -0.9692    1.1020 C   0  0  0  0  0  0  0  0  0  0  0  0
    1.1362   -2.0397    0.8910 H   0  0  0  0  0  0  0  0  0  0  0  0
    2.1202   -0.5778    0.9645 H   0  0  0  0  0  0  0  0  0  0  0  0
    0.6948   -0.7954    2.5714 C   0  0  0  0  0  0  0  0  0  0  0  0
    0.0611    0.2362    2.8968 O   0  5  0  0  0  0  0  0  0  0  0  0
    1.0355   -1.6966    3.3676 O   0  0  0  0  0  0  0  0  0  0  0  0
    0.7695   -0.2598   -1.3394 C   0  0  0  0  0  0  0  0  0  0  0  0
    0.1627    0.2924   -2.2647 O   0  0  0  0  0  0  0  0  0  0  0  0
    1.9617   -0.8350   -1.5256 N   0  0  0  0  0  0  0  0  0  0  0  0
    2.3419   -1.3396   -0.7226 H   0  0  0  0  0  0  0  0  0  0  0  0
    2.6665   -0.9170   -2.8004 C   0  0  0  0  0  0  0  0  0  0  0  0
    2.6248    0.0483   -3.3067 H   0  0  0  0  0  0  0  0  0  0  0  0
    3.7056   -1.1952   -2.6265 H   0  0  0  0  0  0  0  0  0  0  0  0
    2.1887   -1.6701   -3.4273 H   0  0  0  0  0  0  0  0  0  0  0  0
  5  6  2  0  0  0  0
  5  7  1  0  0  0  0
  2  3  1  0  0  0  0
  2  4  1  0  0  0  0
  2  5  1  0  0  0  0
  1  2  1  0  0  0  0
 17 18  2  0  0  0  0
 17 19  1  0  0  0  0
 14 15  1  0  0  0  0
 14 16  2  0  0  0  0
 11 12  1  0  0  0  0
 11 13  1  0  0  0  0
 11 14  1  0  0  0  0
  9 10  1  0  0  0  0
  9 11  1  0  0  0  0
  9 17  1  0  0  0  0
  7  8  1  0  0  0  0
  7  9  1  0  0  0  0
 21 22  1  0  0  0  0
 21 23  1  0  0  0  0
 21 24  1  0  0  0  0
 19 20  1  0  0  0  0
 19 21  1  0  0  0  0
M  CHG  1  15  -1
M  END
$$$$
default_name
  -OEChem-01062215323D

 24 23  0     1  0  0  0  0  0999 V2000
   -2.8347   -3.7166    0.8034 H   0  0  0  0  0  0  0  0  0  0  0  0
   -2.7728   -2.7096    0.3954 C   0  0  0  0  0  0  0  0  0  0  0  0
   -3.4267   -2.0426    0.9524 H   0  0  0  0  0  0  0  0  0  0  0  0
   -3.0538   -2.7186   -0.6556 H   0  0  0  0  0  0  0  0  0  0  0  0
   -1.3498   -2.2206    0.5184 C   0  0  0  0  0  0  0  0  0  0  0  0
   -0.4997   -2.9426    1.0194 O   0  0  0  0  0  0  0  0  0  0  0  0
   -1.1198   -0.9926    0.0674 N   0  0  0  0  0  0  0  0  0  0  0  0
   -1.8978   -0.4486   -0.2716 H   0  0  0  0  0  0  0  0  0  0  0  0
    0.1693   -0.2866    0.0854 C   0  0  1  0  0  0  0  0  0  0  0  0
    0.0074    0.7437    0.4069 H   0  0  0  0  0  0  0  0  0  0  0  0
    1.1099   -0.9692    1.1020 C   0  0  0  0  0  0  0  0  0  0  0  0
    1.1362   -2.0397    0.8910 H   0  0  0  0  0  0  0  0  0  0  0  0
    2.1202   -0.5778    0.9645 H   0  0  0  0  0  0  0  0  0  0  0  0
    0.6948   -0.7954    2.5714 C   0  0  0  0  0  0  0  0  0  0  0  0
    0.0611    0.2362    2.8968 O   0  5  0  0  0  0  0  0  0  0  0  0
    1.0355   -1.6966    3.3676 O   0  0  0  0  0  0  0  0  0  0  0  0
    0.7695   -0.2598   -1.3394 C   0  0  0  0  0  0  0  0  0  0  0  0
    0.3192    0.5117   -2.1947 O   0  0  0  0  0  0  0  0  0  0  0  0
    1.7913   -1.0806   -1.6020 N   0  0  0  0  0  0  0  0  0  0  0  0
    2.0339   -1.7397   -0.8599 H   0  0  0  0  0  0  0  0  0  0  0  0
    2.4660   -1.1990   -2.8902 C   0  0  0  0  0  0  0  0  0  0  0  0
    2.6598   -0.2055   -3.2967 H   0  0  0  0  0  0  0  0  0  0  0  0
    3.4073   -1.7328   -2.7623 H   0  0  0  0  0  0  0  0  0  0  0  0
    1.8271   -1.7493   -3.5812 H   0  0  0  0  0  0  0  0  0  0  0  0
  5  6  2  0  0  0  0
  5  7  1  0  0  0  0
  2  3  1  0  0  0  0
  2  4  1  0  0  0  0
  2  5  1  0  0  0  0
  1  2  1  0  0  0  0
 17 18  2  0  0  0  0
 17 19  1  0  0  0  0
 14 15  1  0  0  0  0
 14 16  2  0  0  0  0
 11 12  1  0  0  0  0
 11 13  1  0  0  0  0
 11 14  1  0  0  0  0
  9 10  1  0  0  0  0
  9 11  1  0  0  0  0
  9 17  1  0  0  0  0
  7  8  1  0  0  0  0
  7  9  1  0  0  0  0
 21 22  1  0  0  0  0
 21 23  1  0  0  0  0
 21 24  1  0  0  0  0
 19 20  1  0  0  0  0
 19 21  1  0  0  0  0
M  CHG  1  15  -1
M  END
$$$$
default_name
  -OEChem-01062215323D

 24 23  0     1  0  0  0  0  0999 V2000
   -2.8347   -3.7166    0.8034 H   0  0  0  0  0  0  0  0  0  0  0  0
   -2.7728   -2.7096    0.3954 C   0  0  0  0  0  0  0  0  0  0  0  0
   -3.4267   -2.0426    0.9524 H   0  0  0  0  0  0  0  0  0  0  0  0
   -3.0538   -2.7186   -0.6556 H   0  0  0  0  0  0  0  0  0  0  0  0
   -1.3498   -2.2206    0.5184 C   0  0  0  0  0  0  0  0  0  0  0  0
   -0.4997   -2.9426    1.0194 O   0  0  0  0  0  0  0  0  0  0  0  0
   -1.1198   -0.9926    0.0674 N   0  0  0  0  0  0  0  0  0  0  0  0
   -1.8978   -0.4486   -0.2716 H   0  0  0  0  0  0  0  0  0  0  0  0
    0.1693   -0.2866    0.0854 C   0  0  1  0  0  0  0  0  0  0  0  0
    0.0074    0.7437    0.4069 H   0  0  0  0  0  0  0  0  0  0  0  0
    1.1099   -0.9692    1.1020 C   0  0  0  0  0  0  0  0  0  0  0  0
    1.1362   -2.0397    0.8910 H   0  0  0  0  0  0  0  0  0  0  0  0
    2.1202   -0.5778    0.9645 H   0  0  0  0  0  0  0  0  0  0  0  0
    0.6948   -0.7954    2.5714 C   0  0  0  0  0  0  0  0  0  0  0  0
    0.0611    0.2362    2.8968 O   0  5  0  0  0  0  0  0  0  0  0  0
    1.0355   -1.6966    3.3676 O   0  0  0  0  0  0  0  0  0  0  0  0
    0.7695   -0.2598   -1.3394 C   0  0  0  0  0  0  0  0  0  0  0  0
    0.5230    0.6791   -2.1057 O   0  0  0  0  0  0  0  0  0  0  0  0
    1.5679   -1.2696   -1.6997 N   0  0  0  0  0  0  0  0  0  0  0  0
    1.6404   -2.0390   -1.0313 H   0  0  0  0  0  0  0  0  0  0  0  0
    2.2047   -1.4145   -3.0044 C   0  0  0  0  0  0  0  0  0  0  0  0
    2.6331   -0.4600   -3.3127 H   0  0  0  0  0  0  0  0  0  0  0  0
    2.9903   -2.1674   -2.9461 H   0  0  0  0  0  0  0  0  0  0  0  0
    1.4582   -1.7240   -3.7361 H   0  0  0  0  0  0  0  0  0  0  0  0
  5  6  2  0  0  0  0
  5  7  1  0  0  0  0
  2  3  1  0  0  0  0
  2  4  1  0  0  0  0
  2  5  1  0  0  0  0
  1  2  1  0  0  0  0
 17 18  2  0  0  0  0
 17 19  1  0  0  0  0
 14 15  1  0  0  0  0
 14 16  2  0  0  0  0
 11 12  1  0  0  0  0
 11 13  1  0  0  0  0
 11 14  1  0  0  0  0
  9 10  1  0  0  0  0
  9 11  1  0  0  0  0
  9 17  1  0  0  0  0
  7  8  1  0  0  0  0
  7  9  1  0  0  0  0
 21 22  1  0  0  0  0
 21 23  1  0  0  0  0
 21 24  1  0  0  0  0
 19 20  1  0  0  0  0
 19 21  1  0  0  0  0
M  CHG  1  15  -1
M  END
$$$$
default_name
  -OEChem-01062215323D

 24 23  0     1  0  0  0  0  0999 V2000
   -2.8347   -3.7166    0.8034 H   0  0  0  0  0  0  0  0  0  0  0  0
   -2.7728   -2.7096    0.3954 C   0  0  0  0  0  0  0  0  0  0  0  0
   -3.4267   -2.0426    0.9524 H   0  0  0  0  0  0  0  0  0  0  0  0
   -3.0538   -2.7186   -0.6556 H   0  0  0  0  0  0  0  0  0  0  0  0
   -1.3498   -2.2206    0.5184 C   0  0  0  0  0  0  0  0  0  0  0  0
   -0.4997   -2.9426    1.0194 O   0  0  0  0  0  0  0  0  0  0  0  0
   -1.1198   -0.9926    0.0674 N   0  0  0  0  0  0  0  0  0  0  0  0
   -1.8978   -0.4486   -0.2716 H   0  0  0  0  0  0  0  0  0  0  0  0
    0.1693   -0.2866    0.0854 C   0  0  1  0  0  0  0  0  0  0  0  0
    0.0074    0.7437    0.4069 H   0  0  0  0  0  0  0  0  0  0  0  0
    1.1099   -0.9692    1.1020 C   0  0  0  0  0  0  0  0  0  0  0  0
    1.1362   -2.0397    0.8910 H   0  0  0  0  0  0  0  0  0  0  0  0
    2.1202   -0.5778    0.9645 H   0  0  0  0  0  0  0  0  0  0  0  0
    0.6948   -0.7954    2.5714 C   0  0  0  0  0  0  0  0  0  0  0  0
    0.0611    0.2362    2.8968 O   0  5  0  0  0  0  0  0  0  0  0  0
    1.0355   -1.6966    3.3676 O   0  0  0  0  0  0  0  0  0  0  0  0
    0.7695   -0.2598   -1.3394 C   0  0  0  0  0  0  0  0  0  0  0  0
    0.7601    0.7833   -2.0038 O   0  0  0  0  0  0  0  0  0  0  0  0
    1.3065   -1.3890   -1.8120 N   0  0  0  0  0  0  0  0  0  0  0  0
    1.1881   -2.2170   -1.2252 H   0  0  0  0  0  0  0  0  0  0  0  0
    1.9003   -1.5489   -3.1351 C   0  0  0  0  0  0  0  0  0  0  0  0
    2.5466   -0.6978   -3.3536 H   0  0  0  0  0  0  0  0  0  0  0  0
    2.4830   -2.4692   -3.1655 H   0  0  0  0  0  0  0  0  0  0  0  0
    1.1072   -1.5961   -3.8816 H   0  0  0  0  0  0  0  0  0  0  0  0
  5  6  2  0  0  0  0
  5  7  1  0  0  0  0
  2  3  1  0  0  0  0
  2  4  1  0  0  0  0
  2  5  1  0  0  0  0
  1  2  1  0  0  0  0
 17 18  2  0  0  0  0
 17 19  1  0  0  0  0
 14 15  1  0  0  0  0
 14 16  2  0  0  0  0
 11 12  1  0  0  0  0
 11 13  1  0  0  0  0
 11 14  1  0  0  0  0
  9 10  1  0  0  0  0
  9 11  1  0  0  0  0
  9 17  1  0  0  0  0
  7  8  1  0  0  0  0
  7  9  1  0  0  0  0
 21 22  1  0  0  0  0
 21 23  1  0  0  0  0
 21 24  1  0  0  0  0
 19 20  1  0  0  0  0
 19 21  1  0  0  0  0
M  CHG  1  15  -1
M  END
$$$$
default_name
  -OEChem-01062215323D

 24 23  0     1  0  0  0  0  0999 V2000
   -2.8347   -3.7166    0.8034 H   0  0  0  0  0  0  0  0  0  0  0  0
   -2.7728   -2.7096    0.3954 C   0  0  0  0  0  0  0  0  0  0  0  0
   -3.4267   -2.0426    0.9524 H   0  0  0  0  0  0  0  0  0  0  0  0
   -3.0538   -2.7186   -0.6556 H   0  0  0  0  0  0  0  0  0  0  0  0
   -1.3498   -2.2206    0.5184 C   0  0  0  0  0  0  0  0  0  0  0  0
   -0.4997   -2.9426    1.0194 O   0  0  0  0  0  0  0  0  0  0  0  0
   -1.1198   -0.9926    0.0674 N   0  0  0  0  0  0  0  0  0  0  0  0
   -1.8978   -0.4486   -0.2716 H   0  0  0  0  0  0  0  0  0  0  0  0
    0.1693   -0.2866    0.0854 C   0  0  1  0  0  0  0  0  0  0  0  0
    0.0074    0.7437    0.4069 H   0  0  0  0  0  0  0  0  0  0  0  0
    1.1099   -0.9692    1.1020 C   0  0  0  0  0  0  0  0  0  0  0  0
    1.1362   -2.0397    0.8910 H   0  0  0  0  0  0  0  0  0  0  0  0
    2.1202   -0.5778    0.9645 H   0  0  0  0  0  0  0  0  0  0  0  0
    0.6948   -0.7954    2.5714 C   0  0  0  0  0  0  0  0  0  0  0  0
    0.0611    0.2362    2.8968 O   0  5  0  0  0  0  0  0  0  0  0  0
    1.0355   -1.6966    3.3676 O   0  0  0  0  0  0  0  0  0  0  0  0
    0.7695   -0.2598   -1.3394 C   0  0  0  0  0  0  0  0  0  0  0  0
    1.0145    0.8171   -1.8960 O   0  0  0  0  0  0  0  0  0  0  0  0
    1.0250   -1.4307   -1.9314 N   0  0  0  0  0  0  0  0  0  0  0  0
    0.7079   -2.2616   -1.4283 H   0  0  0  0  0  0  0  0  0  0  0  0
    1.5737   -1.5930   -3.2735 C   0  0  0  0  0  0  0  0  0  0  0  0
    2.4061   -0.9029   -3.4167 H   0  0  0  0  0  0  0  0  0  0  0  0
    1.9201   -2.6177   -3.4054 H   0  0  0  0  0  0  0  0  0  0  0  0
    0.7980   -1.3743   -4.0077 H   0  0  0  0  0  0  0  0  0  0  0  0
  5  6  2  0  0  0  0
  5  7  1  0  0  0  0
  2  3  1  0  0  0  0
  2  4  1  0  0  0  0
  2  5  1  0  0  0  0
  1  2  1  0  0  0  0
 17 18  2  0  0  0  0
 17 19  1  0  0  0  0
 14 15  1  0  0  0  0
 14 16  2  0  0  0  0
 11 12  1  0  0  0  0
 11 13  1  0  0  0  0
 11 14  1  0  0  0  0
  9 10  1  0  0  0  0
  9 11  1  0  0  0  0
  9 17  1  0  0  0  0
  7  8  1  0  0  0  0
  7  9  1  0  0  0  0
 21 22  1  0  0  0  0
 21 23  1  0  0  0  0
 21 24  1  0  0  0  0
 19 20  1  0  0  0  0
 19 21  1  0  0  0  0
M  CHG  1  15  -1
M  END
$$$$
default_name
  -OEChem-01062215323D

 24 23  0     1  0  0  0  0  0999 V2000
   -2.8347   -3.7166    0.8034 H   0  0  0  0  0  0  0  0  0  0  0  0
   -2.7728   -2.7096    0.3954 C   0  0  0  0  0  0  0  0  0  0  0  0
   -3.4267   -2.0426    0.9524 H   0  0  0  0  0  0  0  0  0  0  0  0
   -3.0538   -2.7186   -0.6556 H   0  0  0  0  0  0  0  0  0  0  0  0
   -1.3498   -2.2206    0.5184 C   0  0  0  0  0  0  0  0  0  0  0  0
   -0.4997   -2.9426    1.0194 O   0  0  0  0  0  0  0  0  0  0  0  0
   -1.1198   -0.9926    0.0674 N   0  0  0  0  0  0  0  0  0  0  0  0
   -1.8978   -0.4486   -0.2716 H   0  0  0  0  0  0  0  0  0  0  0  0
    0.1693   -0.2866    0.0854 C   0  0  1  0  0  0  0  0  0  0  0  0
    0.0074    0.7437    0.4069 H   0  0  0  0  0  0  0  0  0  0  0  0
    1.1099   -0.9692    1.1020 C   0  0  0  0  0  0  0  0  0  0  0  0
    1.1362   -2.0397    0.8910 H   0  0  0  0  0  0  0  0  0  0  0  0
    2.1202   -0.5778    0.9645 H   0  0  0  0  0  0  0  0  0  0  0  0
    0.6948   -0.7954    2.5714 C   0  0  0  0  0  0  0  0  0  0  0  0
    0.0611    0.2362    2.8968 O   0  5  0  0  0  0  0  0  0  0  0  0
    1.0355   -1.6966    3.3676 O   0  0  0  0  0  0  0  0  0  0  0  0
    0.7695   -0.2598   -1.3394 C   0  0  0  0  0  0  0  0  0  0  0  0
    1.2688    0.7783   -1.7896 O   0  0  0  0  0  0  0  0  0  0  0  0
    0.7427   -1.3919   -2.0496 N   0  0  0  0  0  0  0  0  0  0  0  0
    0.2325   -2.1698   -1.6269 H   0  0  0  0  0  0  0  0  0  0  0  0
    1.2470   -1.5438   -3.4102 C   0  0  0  0  0  0  0  0  0  0  0  0
    2.2213   -1.0611   -3.4976 H   0  0  0  0  0  0  0  0  0  0  0  0
    1.3398   -2.6028   -3.6496 H   0  0  0  0  0  0  0  0  0  0  0  0
    0.5517   -1.0736   -4.1058 H   0  0  0  0  0  0  0  0  0  0  0  0
  5  6  2  0  0  0  0
  5  7  1  0  0  0  0
  2  3  1  0  0  0  0
  2  4  1  0  0  0  0
  2  5  1  0  0  0  0
  1  2  1  0  0  0  0
 17 18  2  0  0  0  0
 17 19  1  0  0  0  0
 14 15  1  0  0  0  0
 14 16  2  0  0  0  0
 11 12  1  0  0  0  0
 11 13  1  0  0  0  0
 11 14  1  0  0  0  0
  9 10  1  0  0  0  0
  9 11  1  0  0  0  0
  9 17  1  0  0  0  0
  7  8  1  0  0  0  0
  7  9  1  0  0  0  0
 21 22  1  0  0  0  0
 21 23  1  0  0  0  0
 21 24  1  0  0  0  0
 19 20  1  0  0  0  0
 19 21  1  0  0  0  0
M  CHG  1  15  -1
M  END
$$$$
default_name
  -OEChem-01062215323D

 24 23  0     1  0  0  0  0  0999 V2000
   -2.8347   -3.7166    0.8034 H   0  0  0  0  0  0  0  0  0  0  0  0
   -2.7728   -2.7096    0.3954 C   0  0  0  0  0  0  0  0  0  0  0  0
   -3.4267   -2.0426    0.9524 H   0  0  0  0  0  0  0  0  0  0  0  0
   -3.0538   -2.7186   -0.6556 H   0  0  0  0  0  0  0  0  0  0  0  0
   -1.3498   -2.2206    0.5184 C   0  0  0  0  0  0  0  0  0  0  0  0
   -0.4997   -2.9426    1.0194 O   0  0  0  0  0  0  0  0  0  0  0  0
   -1.1198   -0.9926    0.0674 N   0  0  0  0  0  0  0  0  0  0  0  0
   -1.8978   -0.4486   -0.2716 H   0  0  0  0  0  0  0  0  0  0  0  0
    0.1693   -0.2866    0.0854 C   0  0  1  0  0  0  0  0  0  0  0  0
    0.0074    0.7437    0.4069 H   0  0  0  0  0  0  0  0  0  0  0  0
    1.1099   -0.9692    1.1020 C   0  0  0  0  0  0  0  0  0  0  0  0
    1.1362   -2.0397    0.8910 H   0  0  0  0  0  0  0  0  0  0  0  0
    2.1202   -0.5778    0.9645 H   0  0  0  0  0  0  0  0  0  0  0  0
    0.6948   -0.7954    2.5714 C   0  0  0  0  0  0  0  0  0  0  0  0
    0.0611    0.2362    2.8968 O   0  5  0  0  0  0  0  0  0  0  0  0
    1.0355   -1.6966    3.3676 O   0  0  0  0  0  0  0  0  0  0  0  0
    0.7695   -0.2598   -1.3394 C   0  0  0  0  0  0  0  0  0  0  0  0
    1.5056    0.6694   -1.6919 O   0  0  0  0  0  0  0  0  0  0  0  0
    0.4787   -1.2752   -2.1586 N   0  0  0  0  0  0  0  0  0  0  0  0
   -0.2057   -1.9477   -1.8073 H   0  0  0  0  0  0  0  0  0  0  0  0
    0.9427   -1.4047   -3.5358 C   0  0  0  0  0  0  0  0  0  0  0  0
    2.0046   -1.1616   -3.5907 H   0  0  0  0  0  0  0  0  0  0  0  0
    0.7818   -2.4255   -3.8814 H   0  0  0  0  0  0  0  0  0  0  0  0
    0.3850   -0.7145   -4.1692 H   0  0  0  0  0  0  0  0  0  0  0  0
  5  6  2  0  0  0  0
  5  7  1  0  0  0  0
  2  3  1  0  0  0  0
  2  4  1  0  0  0  0
  2  5  1  0  0  0  0
  1  2  1  0  0  0  0
 17 18  2  0  0  0  0
 17 19  1  0  0  0  0
 14 15  1  0  0  0  0
 14 16  2  0  0  0  0
 11 12  1  0  0  0  0
 11 13  1  0  0  0  0
 11 14  1  0  0  0  0
  9 10  1  0  0  0  0
  9 11  1  0  0  0  0
  9 17  1  0  0  0  0
  7  8  1  0  0  0  0
  7  9  1  0  0  0  0
 21 22  1  0  0  0  0
 21 23  1  0  0  0  0
 21 24  1  0  0  0  0
 19 20  1  0  0  0  0
 19 21  1  0  0  0  0
M  CHG  1  15  -1
M  END
$$$$
default_name
  -OEChem-01062215323D

 24 23  0     1  0  0  0  0  0999 V2000
   -2.8347   -3.7166    0.8034 H   0  0  0  0  0  0  0  0  0  0  0  0
   -2.7728   -2.7096    0.3954 C   0  0  0  0  0  0  0  0  0  0  0  0
   -3.4267   -2.0426    0.9524 H   0  0  0  0  0  0  0  0  0  0  0  0
   -3.0538   -2.7186   -0.6556 H   0  0  0  0  0  0  0  0  0  0  0  0
   -1.3498   -2.2206    0.5184 C   0  0  0  0  0  0  0  0  0  0  0  0
   -0.4997   -2.9426    1.0194 O   0  0  0  0  0  0  0  0  0  0  0  0
   -1.1198   -0.9926    0.0674 N   0  0  0  0  0  0  0  0  0  0  0  0
   -1.8978   -0.4486   -0.2716 H   0  0  0  0  0  0  0  0  0  0  0  0
    0.1693   -0.2866    0.0854 C   0  0  1  0  0  0  0  0  0  0  0  0
    0.0074    0.7437    0.4069 H   0  0  0  0  0  0  0  0  0  0  0  0
    1.1099   -0.9692    1.1020 C   0  0  0  0  0  0  0  0  0  0  0  0
    1.1362   -2.0397    0.8910 H   0  0  0  0  0  0  0  0  0  0  0  0
    2.1202   -0.5778    0.9645 H   0  0  0  0  0  0  0  0  0  0  0  0
    0.6948   -0.7954    2.5714 C   0  0  0  0  0  0  0  0  0  0  0  0
    0.0611    0.2362    2.8968 O   0  5  0  0  0  0  0  0  0  0  0  0
    1.0355   -1.6966    3.3676 O   0  0  0  0  0  0  0  0  0  0  0  0
    0.7695   -0.2598   -1.3394 C   0  0  0  0  0  0  0  0  0  0  0  0
    1.7088    0.4980   -1.6095 O   0  0  0  0  0  0  0  0  0  0  0  0
    0.2510   -1.0886   -2.2510 N   0  0  0  0  0  0  0  0  0  0  0  0
   -0.5768   -1.6106   -1.9573 H   0  0  0  0  0  0  0  0  0  0  0  0
    0.6813   -1.1851   -3.6418 C   0  0  0  0  0  0  0  0  0  0  0  0
    1.7709   -1.1978   -3.6898 H   0  0  0  0  0  0  0  0  0  0  0  0
    0.2841   -2.0979   -4.0849 H   0  0  0  0  0  0  0  0  0  0  0  0
    0.3094   -0.3216   -4.1937 H   0  0  0  0  0  0  0  0  0  0  0  0
  5  6  2  0  0  0  0
  5  7  1  0  0  0  0
  2  3  1  0  0  0  0
  2  4  1  0  0  0  0
  2  5  1  0  0  0  0
  1  2  1  0  0  0  0
 17 18  2  0  0  0  0
 17 19  1  0  0  0  0
 14 15  1  0  0  0  0
 14 16  2  0  0  0  0
 11 12  1  0  0  0  0
 11 13  1  0  0  0  0
 11 14  1  0  0  0  0
  9 10  1  0  0  0  0
  9 11  1  0  0  0  0
  9 17  1  0  0  0  0
  7  8  1  0  0  0  0
  7  9  1  0  0  0  0
 21 22  1  0  0  0  0
 21 23  1  0  0  0  0
 21 24  1  0  0  0  0
 19 20  1  0  0  0  0
 19 21  1  0  0  0  0
M  CHG  1  15  -1
M  END
$$$$
default_name
  -OEChem-01062215323D

 24 23  0     1  0  0  0  0  0999 V2000
   -2.8347   -3.7166    0.8034 H   0  0  0  0  0  0  0  0  0  0  0  0
   -2.7728   -2.7096    0.3954 C   0  0  0  0  0  0  0  0  0  0  0  0
   -3.4267   -2.0426    0.9524 H   0  0  0  0  0  0  0  0  0  0  0  0
   -3.0538   -2.7186   -0.6556 H   0  0  0  0  0  0  0  0  0  0  0  0
   -1.3498   -2.2206    0.5184 C   0  0  0  0  0  0  0  0  0  0  0  0
   -0.4997   -2.9426    1.0194 O   0  0  0  0  0  0  0  0  0  0  0  0
   -1.1198   -0.9926    0.0674 N   0  0  0  0  0  0  0  0  0  0  0  0
   -1.8978   -0.4486   -0.2716 H   0  0  0  0  0  0  0  0  0  0  0  0
    0.1693   -0.2866    0.0854 C   0  0  1  0  0  0  0  0  0  0  0  0
    0.0074    0.7437    0.4069 H   0  0  0  0  0  0  0  0  0  0  0  0
    1.1099   -0.9692    1.1020 C   0  0  0  0  0  0  0  0  0  0  0  0
    1.1362   -2.0397    0.8910 H   0  0  0  0  0  0  0  0  0  0  0  0
    2.1202   -0.5778    0.9645 H   0  0  0  0  0  0  0  0  0  0  0  0
    0.6948   -0.7954    2.5714 C   0  0  0  0  0  0  0  0  0  0  0  0
    0.0611    0.2362    2.8968 O   0  5  0  0  0  0  0  0  0  0  0  0
    1.0355   -1.6966    3.3676 O   0  0  0  0  0  0  0  0  0  0  0  0
    0.7695   -0.2598   -1.3394 C   0  0  0  0  0  0  0  0  0  0  0  0
    1.8646    0.2757   -1.5481 O   0  0  0  0  0  0  0  0  0  0  0  0
    0.0752   -0.8448   -2.3205 N   0  0  0  0  0  0  0  0  0  0  0  0
   -0.8555   -1.1814   -2.0666 H   0  0  0  0  0  0  0  0  0  0  0  0
    0.4807   -0.9000   -3.7210 C   0  0  0  0  0  0  0  0  0  0  0  0
    1.5361   -1.1670   -3.7882 H   0  0  0  0  0  0  0  0  0  0  0  0
   -0.1195   -1.6423   -4.2464 H   0  0  0  0  0  0  0  0  0  0  0  0
    0.3299    0.0785   -4.1775 H   0  0  0  0  0  0  0  0  0  0  0  0
  5  6  2  0  0  0  0
  5  7  1  0  0  0  0
  2  3  1  0  0  0  0
  2  4  1  0  0  0  0
  2  5  1  0  0  0  0
  1  2  1  0  0  0  0
 17 18  2  0  0  0  0
 17 19  1  0  0  0  0
 14 15  1  0  0  0  0
 14 16  2  0  0  0  0
 11 12  1  0  0  0  0
 11 13  1  0  0  0  0
 11 14  1  0  0  0  0
  9 10  1  0  0  0  0
  9 11  1  0  0  0  0
  9 17  1  0  0  0  0
  7  8  1  0  0  0  0
  7  9  1  0  0  0  0
 21 22  1  0  0  0  0
 21 23  1  0  0  0  0
 21 24  1  0  0  0  0
 19 20  1  0  0  0  0
 19 21  1  0  0  0  0
M  CHG  1  15  -1
M  END
$$$$
default_name
  -OEChem-01062215323D

 24 23  0     1  0  0  0  0  0999 V2000
   -2.8347   -3.7166    0.8034 H   0  0  0  0  0  0  0  0  0  0  0  0
   -2.7728   -2.7096    0.3954 C   0  0  0  0  0  0  0  0  0  0  0  0
   -3.4267   -2.0426    0.9524 H   0  0  0  0  0  0  0  0  0  0  0  0
   -3.0538   -2.7186   -0.6556 H   0  0  0  0  0  0  0  0  0  0  0  0
   -1.3498   -2.2206    0.5184 C   0  0  0  0  0  0  0  0  0  0  0  0
   -0.4997   -2.9426    1.0194 O   0  0  0  0  0  0  0  0  0  0  0  0
   -1.1198   -0.9926    0.0674 N   0  0  0  0  0  0  0  0  0  0  0  0
   -1.8978   -0.4486   -0.2716 H   0  0  0  0  0  0  0  0  0  0  0  0
    0.1693   -0.2866    0.0854 C   0  0  1  0  0  0  0  0  0  0  0  0
    0.0074    0.7437    0.4069 H   0  0  0  0  0  0  0  0  0  0  0  0
    1.1099   -0.9692    1.1020 C   0  0  0  0  0  0  0  0  0  0  0  0
    1.1362   -2.0397    0.8910 H   0  0  0  0  0  0  0  0  0  0  0  0
    2.1202   -0.5778    0.9645 H   0  0  0  0  0  0  0  0  0  0  0  0
    0.6948   -0.7954    2.5714 C   0  0  0  0  0  0  0  0  0  0  0  0
    0.0611    0.2362    2.8968 O   0  5  0  0  0  0  0  0  0  0  0  0
    1.0355   -1.6966    3.3676 O   0  0  0  0  0  0  0  0  0  0  0  0
    0.7695   -0.2598   -1.3394 C   0  0  0  0  0  0  0  0  0  0  0  0
    1.9623    0.0176   -1.5117 O   0  0  0  0  0  0  0  0  0  0  0  0
   -0.0368   -0.5603   -2.3623 N   0  0  0  0  0  0  0  0  0  0  0  0
   -1.0229   -0.6894   -2.1279 H   0  0  0  0  0  0  0  0  0  0  0  0
    0.3546   -0.5688   -3.7679 C   0  0  0  0  0  0  0  0  0  0  0  0
    1.3163   -1.0714   -3.8790 H   0  0  0  0  0  0  0  0  0  0  0  0
   -0.4014   -1.0898   -4.3547 H   0  0  0  0  0  0  0  0  0  0  0  0
    0.4453    0.4584   -4.1218 H   0  0  0  0  0  0  0  0  0  0  0  0
  5  6  2  0  0  0  0
  5  7  1  0  0  0  0
  2  3  1  0  0  0  0
  2  4  1  0  0  0  0
  2  5  1  0  0  0  0
  1  2  1  0  0  0  0
 17 18  2  0  0  0  0
 17 19  1  0  0  0  0
 14 15  1  0  0  0  0
 14 16  2  0  0  0  0
 11 12  1  0  0  0  0
 11 13  1  0  0  0  0
 11 14  1  0  0  0  0
  9 10  1  0  0  0  0
  9 11  1  0  0  0  0
  9 17  1  0  0  0  0
  7  8  1  0  0  0  0
  7  9  1  0  0  0  0
 21 22  1  0  0  0  0
 21 23  1  0  0  0  0
 21 24  1  0  0  0  0
 19 20  1  0  0  0  0
 19 21  1  0  0  0  0
M  CHG  1  15  -1
M  END
$$$$
default_name
  -OEChem-01062215323D

 24 23  0     1  0  0  0  0  0999 V2000
   -2.8347   -3.7166    0.8034 H   0  0  0  0  0  0  0  0  0  0  0  0
   -2.7728   -2.7096    0.3954 C   0  0  0  0  0  0  0  0  0  0  0  0
   -3.4267   -2.0426    0.9524 H   0  0  0  0  0  0  0  0  0  0  0  0
   -3.0538   -2.7186   -0.6556 H   0  0  0  0  0  0  0  0  0  0  0  0
   -1.3498   -2.2206    0.5184 C   0  0  0  0  0  0  0  0  0  0  0  0
   -0.4997   -2.9426    1.0194 O   0  0  0  0  0  0  0  0  0  0  0  0
   -1.1198   -0.9926    0.0674 N   0  0  0  0  0  0  0  0  0  0  0  0
   -1.8978   -0.4486   -0.2716 H   0  0  0  0  0  0  0  0  0  0  0  0
    0.1693   -0.2866    0.0854 C   0  0  1  0  0  0  0  0  0  0  0  0
    0.0074    0.7437    0.4069 H   0  0  0  0  0  0  0  0  0  0  0  0
    1.1099   -0.9692    1.1020 C   0  0  0  0  0  0  0  0  0  0  0  0
    1.1362   -2.0397    0.8910 H   0  0  0  0  0  0  0  0  0  0  0  0
    2.1202   -0.5778    0.9645 H   0  0  0  0  0  0  0  0  0  0  0  0
    0.6948   -0.7954    2.5714 C   0  0  0  0  0  0  0  0  0  0  0  0
    0.0611    0.2362    2.8968 O   0  5  0  0  0  0  0  0  0  0  0  0
    1.0355   -1.6966    3.3676 O   0  0  0  0  0  0  0  0  0  0  0  0
    0.7695   -0.2598   -1.3394 C   0  0  0  0  0  0  0  0  0  0  0  0
    1.9954   -0.2586   -1.5030 O   0  0  0  0  0  0  0  0  0  0  0  0
   -0.0773   -0.2546   -2.3736 N   0  0  0  0  0  0  0  0  0  0  0  0
   -1.0675   -0.1681   -2.1369 H   0  0  0  0  0  0  0  0  0  0  0  0
    0.3115   -0.2141   -3.7793 C   0  0  0  0  0  0  0  0  0  0  0  0
    1.1263   -0.9175   -3.9562 H   0  0  0  0  0  0  0  0  0  0  0  0
   -0.5425   -0.4779   -4.4026 H   0  0  0  0  0  0  0  0  0  0  0  0
    0.6475    0.7922   -4.0303 H   0  0  0  0  0  0  0  0  0  0  0  0
  5  6  2  0  0  0  0
  5  7  1  0  0  0  0
  2  3  1  0  0  0  0
  2  4  1  0  0  0  0
  2  5  1  0  0  0  0
  1  2  1  0  0  0  0
 17 18  2  0  0  0  0
 17 19  1  0  0  0  0
 14 15  1  0  0  0  0
 14 16  2  0  0  0  0
 11 12  1  0  0  0  0
 11 13  1  0  0  0  0
 11 14  1  0  0  0  0
  9 10  1  0  0  0  0
  9 11  1  0  0  0  0
  9 17  1  0  0  0  0
  7  8  1  0  0  0  0
  7  9  1  0  0  0  0
 21 22  1  0  0  0  0
 21 23  1  0  0  0  0
 21 24  1  0  0  0  0
 19 20  1  0  0  0  0
 19 21  1  0  0  0  0
M  CHG  1  15  -1
M  END
$$$$
default_name
  -OEChem-01062215323D

 24 23  0     1  0  0  0  0  0999 V2000
   -2.8347   -3.7166    0.8034 H   0  0  0  0  0  0  0  0  0  0  0  0
   -2.7728   -2.7096    0.3954 C   0  0  0  0  0  0  0  0  0  0  0  0
   -3.4267   -2.0426    0.9524 H   0  0  0  0  0  0  0  0  0  0  0  0
   -3.0538   -2.7186   -0.6556 H   0  0  0  0  0  0  0  0  0  0  0  0
   -1.3498   -2.2206    0.5184 C   0  0  0  0  0  0  0  0  0  0  0  0
   -0.4997   -2.9426    1.0194 O   0  0  0  0  0  0  0  0  0  0  0  0
   -1.1198   -0.9926    0.0674 N   0  0  0  0  0  0  0  0  0  0  0  0
   -1.8978   -0.4486   -0.2716 H   0  0  0  0  0  0  0  0  0  0  0  0
    0.1693   -0.2866    0.0854 C   0  0  1  0  0  0  0  0  0  0  0  0
    0.0074    0.7437    0.4069 H   0  0  0  0  0  0  0  0  0  0  0  0
    1.1099   -0.9692    1.1020 C   0  0  0  0  0  0  0  0  0  0  0  0
    1.1362   -2.0397    0.8910 H   0  0  0  0  0  0  0  0  0  0  0  0
    2.1202   -0.5778    0.9645 H   0  0  0  0  0  0  0  0  0  0  0  0
    0.6948   -0.7954    2.5714 C   0  0  0  0  0  0  0  0  0  0  0  0
    0.0611    0.2362    2.8968 O   0  5  0  0  0  0  0  0  0  0  0  0
    1.0355   -1.6966    3.3676 O   0  0  0  0  0  0  0  0  0  0  0  0
    0.7695   -0.2598   -1.3394 C   0  0  0  0  0  0  0  0  0  0  0  0
    1.9614   -0.5342   -1.5225 O   0  0  0  0  0  0  0  0  0  0  0  0
   -0.0436    0.0514   -2.3537 N   0  0  0  0  0  0  0  0  0  0  0  0
   -0.9863    0.3470   -2.0930 H   0  0  0  0  0  0  0  0  0  0  0  0
    0.3545    0.1399   -3.7546 C   0  0  0  0  0  0  0  0  0  0  0  0
    0.9791   -0.7157   -4.0144 H   0  0  0  0  0  0  0  0  0  0  0  0
   -0.5330    0.1515   -4.3868 H   0  0  0  0  0  0  0  0  0  0  0  0
    0.9229    1.0572   -3.9093 H   0  0  0  0  0  0  0  0  0  0  0  0
  5  6  2  0  0  0  0
  5  7  1  0  0  0  0
  2  3  1  0  0  0  0
  2  4  1  0  0  0  0
  2  5  1  0  0  0  0
  1  2  1  0  0  0  0
 17 18  2  0  0  0  0
 17 19  1  0  0  0  0
 14 15  1  0  0  0  0
 14 16  2  0  0  0  0
 11 12  1  0  0  0  0
 11 13  1  0  0  0  0
 11 14  1  0  0  0  0
  9 10  1  0  0  0  0
  9 11  1  0  0  0  0
  9 17  1  0  0  0  0
  7  8  1  0  0  0  0
  7  9  1  0  0  0  0
 21 22  1  0  0  0  0
 21 23  1  0  0  0  0
 21 24  1  0  0  0  0
 19 20  1  0  0  0  0
 19 21  1  0  0  0  0
M  CHG  1  15  -1
M  END
$$$$
default_name
  -OEChem-01062215323D

 24 23  0     1  0  0  0  0  0999 V2000
   -2.8347   -3.7166    0.8034 H   0  0  0  0  0  0  0  0  0  0  0  0
   -2.7728   -2.7096    0.3954 C   0  0  0  0  0  0  0  0  0  0  0  0
   -3.4267   -2.0426    0.9524 H   0  0  0  0  0  0  0  0  0  0  0  0
   -3.0538   -2.7186   -0.6556 H   0  0  0  0  0  0  0  0  0  0  0  0
   -1.3498   -2.2206    0.5184 C   0  0  0  0  0  0  0  0  0  0  0  0
   -0.4997   -2.9426    1.0194 O   0  0  0  0  0  0  0  0  0  0  0  0
   -1.1198   -0.9926    0.0674 N   0  0  0  0  0  0  0  0  0  0  0  0
   -1.8978   -0.4486   -0.2716 H   0  0  0  0  0  0  0  0  0  0  0  0
    0.1693   -0.2866    0.0854 C   0  0  1  0  0  0  0  0  0  0  0  0
    0.0074    0.7437    0.4069 H   0  0  0  0  0  0  0  0  0  0  0  0
    1.1099   -0.9692    1.1020 C   0  0  0  0  0  0  0  0  0  0  0  0
    1.1362   -2.0397    0.8910 H   0  0  0  0  0  0  0  0  0  0  0  0
    2.1202   -0.5778    0.9645 H   0  0  0  0  0  0  0  0  0  0  0  0
    0.6948   -0.7954    2.5714 C   0  0  0  0  0  0  0  0  0  0  0  0
    0.0611    0.2362    2.8968 O   0  5  0  0  0  0  0  0  0  0  0  0
    1.0355   -1.6966    3.3676 O   0  0  0  0  0  0  0  0  0  0  0  0
    0.7695   -0.2598   -1.3394 C   0  0  0  0  0  0  0  0  0  0  0  0
    1.8629   -0.7903   -1.5688 O   0  0  0  0  0  0  0  0  0  0  0  0
    0.0620    0.3370   -2.3038 N   0  0  0  0  0  0  0  0  0  0  0  0
   -0.7848    0.8208   -1.9992 H   0  0  0  0  0  0  0  0  0  0  0  0
    0.4805    0.4692   -3.6953 C   0  0  0  0  0  0  0  0  0  0  0  0
    0.8848   -0.4799   -4.0497 H   0  0  0  0  0  0  0  0  0  0  0  0
   -0.3736    0.7556   -4.3083 H   0  0  0  0  0  0  0  0  0  0  0  0
    1.2526    1.2354   -3.7670 H   0  0  0  0  0  0  0  0  0  0  0  0
  5  6  2  0  0  0  0
  5  7  1  0  0  0  0
  2  3  1  0  0  0  0
  2  4  1  0  0  0  0
  2  5  1  0  0  0  0
  1  2  1  0  0  0  0
 17 18  2  0  0  0  0
 17 19  1  0  0  0  0
 14 15  1  0  0  0  0
 14 16  2  0  0  0  0
 11 12  1  0  0  0  0
 11 13  1  0  0  0  0
 11 14  1  0  0  0  0
  9 10  1  0  0  0  0
  9 11  1  0  0  0  0
  9 17  1  0  0  0  0
  7  8  1  0  0  0  0
  7  9  1  0  0  0  0
 21 22  1  0  0  0  0
 21 23  1  0  0  0  0
 21 24  1  0  0  0  0
 19 20  1  0  0  0  0
 19 21  1  0  0  0  0
M  CHG  1  15  -1
M  END
$$$$
default_name
  -OEChem-01062215323D

 24 23  0     1  0  0  0  0  0999 V2000
   -2.8347   -3.7166    0.8034 H   0  0  0  0  0  0  0  0  0  0  0  0
   -2.7728   -2.7096    0.3954 C   0  0  0  0  0  0  0  0  0  0  0  0
   -3.4267   -2.0426    0.9524 H   0  0  0  0  0  0  0  0  0  0  0  0
   -3.0538   -2.7186   -0.6556 H   0  0  0  0  0  0  0  0  0  0  0  0
   -1.3498   -2.2206    0.5184 C   0  0  0  0  0  0  0  0  0  0  0  0
   -0.4997   -2.9426    1.0194 O   0  0  0  0  0  0  0  0  0  0  0  0
   -1.1198   -0.9926    0.0674 N   0  0  0  0  0  0  0  0  0  0  0  0
   -1.8978   -0.4486   -0.2716 H   0  0  0  0  0  0  0  0  0  0  0  0
    0.1693   -0.2866    0.0854 C   0  0  1  0  0  0  0  0  0  0  0  0
    0.0074    0.7437    0.4069 H   0  0  0  0  0  0  0  0  0  0  0  0
    1.1099   -0.9692    1.1020 C   0  0  0  0  0  0  0  0  0  0  0  0
    1.1362   -2.0397    0.8910 H   0  0  0  0  0  0  0  0  0  0  0  0
    2.1202   -0.5778    0.9645 H   0  0  0  0  0  0  0  0  0  0  0  0
    0.6948   -0.7954    2.5714 C   0  0  0  0  0  0  0  0  0  0  0  0
    0.0611    0.2362    2.8968 O   0  5  0  0  0  0  0  0  0  0  0  0
    1.0355   -1.6966    3.3676 O   0  0  0  0  0  0  0  0  0  0  0  0
    0.7695   -0.2598   -1.3394 C   0  0  0  0  0  0  0  0  0  0  0  0
    1.7063   -1.0096   -1.6389 O   0  0  0  0  0  0  0  0  0  0  0  0
    0.2324    0.5826   -2.2274 N   0  0  0  0  0  0  0  0  0  0  0  0
   -0.4768    1.2209   -1.8619 H   0  0  0  0  0  0  0  0  0  0  0  0
    0.6810    0.7512   -3.6055 C   0  0  0  0  0  0  0  0  0  0  0  0
    0.8498   -0.2261   -4.0596 H   0  0  0  0  0  0  0  0  0  0  0  0
   -0.0753    1.2933   -4.1725 H   0  0  0  0  0  0  0  0  0  0  0  0
    1.6143    1.3146   -3.6132 H   0  0  0  0  0  0  0  0  0  0  0  0
  5  6  2  0  0  0  0
  5  7  1  0  0  0  0
  2  3  1  0  0  0  0
  2  4  1  0  0  0  0
  2  5  1  0  0  0  0
  1  2  1  0  0  0  0
 17 18  2  0  0  0  0
 17 19  1  0  0  0  0
 14 15  1  0  0  0  0
 14 16  2  0  0  0  0
 11 12  1  0  0  0  0
 11 13  1  0  0  0  0
 11 14  1  0  0  0  0
  9 10  1  0  0  0  0
  9 11  1  0  0  0  0
  9 17  1  0  0  0  0
  7  8  1  0  0  0  0
  7  9  1  0  0  0  0
 21 22  1  0  0  0  0
 21 23  1  0  0  0  0
 21 24  1  0  0  0  0
 19 20  1  0  0  0  0
 19 21  1  0  0  0  0
M  CHG  1  15  -1
M  END
$$$$
default_name
  -OEChem-01062215323D

 24 23  0     1  0  0  0  0  0999 V2000
   -2.8347   -3.7166    0.8034 H   0  0  0  0  0  0  0  0  0  0  0  0
   -2.7728   -2.7096    0.3954 C   0  0  0  0  0  0  0  0  0  0  0  0
   -3.4267   -2.0426    0.9524 H   0  0  0  0  0  0  0  0  0  0  0  0
   -3.0538   -2.7186   -0.6556 H   0  0  0  0  0  0  0  0  0  0  0  0
   -1.3498   -2.2206    0.5184 C   0  0  0  0  0  0  0  0  0  0  0  0
   -0.4997   -2.9426    1.0194 O   0  0  0  0  0  0  0  0  0  0  0  0
   -1.1198   -0.9926    0.0674 N   0  0  0  0  0  0  0  0  0  0  0  0
   -1.8978   -0.4486   -0.2716 H   0  0  0  0  0  0  0  0  0  0  0  0
    0.1693   -0.2866    0.0854 C   0  0  1  0  0  0  0  0  0  0  0  0
    0.0074    0.7437    0.4069 H   0  0  0  0  0  0  0  0  0  0  0  0
    1.1099   -0.9692    1.1020 C   0  0  0  0  0  0  0  0  0  0  0  0
    1.1362   -2.0397    0.8910 H   0  0  0  0  0  0  0  0  0  0  0  0
    2.1202   -0.5778    0.9645 H   0  0  0  0  0  0  0  0  0  0  0  0
    0.6948   -0.7954    2.5714 C   0  0  0  0  0  0  0  0  0  0  0  0
    0.0611    0.2362    2.8968 O   0  5  0  0  0  0  0  0  0  0  0  0
    1.0355   -1.6966    3.3676 O   0  0  0  0  0  0  0  0  0  0  0  0
    0.7695   -0.2598   -1.3394 C   0  0  0  0  0  0  0  0  0  0  0  0
    1.5026   -1.1770   -1.7279 O   0  0  0  0  0  0  0  0  0  0  0  0
    0.4559    0.7716   -2.1297 N   0  0  0  0  0  0  0  0  0  0  0  0
   -0.0833    1.5202   -1.6905 H   0  0  0  0  0  0  0  0  0  0  0  0
    0.9424    0.9667   -3.4913 C   0  0  0  0  0  0  0  0  0  0  0  0
    0.8764    0.0284   -4.0436 H   0  0  0  0  0  0  0  0  0  0  0  0
    0.3417    1.7278   -3.9886 H   0  0  0  0  0  0  0  0  0  0  0  0
    1.9832    1.2894   -3.4582 H   0  0  0  0  0  0  0  0  0  0  0  0
  5  6  2  0  0  0  0
  5  7  1  0  0  0  0
  2  3  1  0  0  0  0
  2  4  1  0  0  0  0
  2  5  1  0  0  0  0
  1  2  1  0  0  0  0
 17 18  2  0  0  0  0
 17 19  1  0  0  0  0
 14 15  1  0  0  0  0
 14 16  2  0  0  0  0
 11 12  1  0  0  0  0
 11 13  1  0  0  0  0
 11 14  1  0  0  0  0
  9 10  1  0  0  0  0
  9 11  1  0  0  0  0
  9 17  1  0  0  0  0
  7  8  1  0  0  0  0
  7  9  1  0  0  0  0
 21 22  1  0  0  0  0
 21 23  1  0  0  0  0
 21 24  1  0  0  0  0
 19 20  1  0  0  0  0
 19 21  1  0  0  0  0
M  CHG  1  15  -1
M  END
$$$$
default_name
  -OEChem-01062215323D

 24 23  0     1  0  0  0  0  0999 V2000
   -2.8347   -3.7166    0.8034 H   0  0  0  0  0  0  0  0  0  0  0  0
   -2.7728   -2.7096    0.3954 C   0  0  0  0  0  0  0  0  0  0  0  0
   -3.4267   -2.0426    0.9524 H   0  0  0  0  0  0  0  0  0  0  0  0
   -3.0538   -2.7186   -0.6556 H   0  0  0  0  0  0  0  0  0  0  0  0
   -1.3498   -2.2206    0.5184 C   0  0  0  0  0  0  0  0  0  0  0  0
   -0.4997   -2.9426    1.0194 O   0  0  0  0  0  0  0  0  0  0  0  0
   -1.1198   -0.9926    0.0674 N   0  0  0  0  0  0  0  0  0  0  0  0
   -1.8978   -0.4486   -0.2716 H   0  0  0  0  0  0  0  0  0  0  0  0
    0.1693   -0.2866    0.0854 C   0  0  1  0  0  0  0  0  0  0  0  0
    0.0074    0.7437    0.4069 H   0  0  0  0  0  0  0  0  0  0  0  0
    1.1099   -0.9692    1.1020 C   0  0  0  0  0  0  0  0  0  0  0  0
    1.1362   -2.0397    0.8910 H   0  0  0  0  0  0  0  0  0  0  0  0
    2.1202   -0.5778    0.9645 H   0  0  0  0  0  0  0  0  0  0  0  0
    0.6948   -0.7954    2.5714 C   0  0  0  0  0  0  0  0  0  0  0  0
    0.0611    0.2362    2.8968 O   0  5  0  0  0  0  0  0  0  0  0  0
    1.0355   -1.6966    3.3676 O   0  0  0  0  0  0  0  0  0  0  0  0
    0.7695   -0.2598   -1.3394 C   0  0  0  0  0  0  0  0  0  0  0  0
    1.2654   -1.2812   -1.8298 O   0  0  0  0  0  0  0  0  0  0  0  0
    0.7173    0.8910   -2.0174 N   0  0  0  0  0  0  0  0  0  0  0  0
    0.3690    1.6982   -1.4966 H   0  0  0  0  0  0  0  0  0  0  0  0
    1.2467    1.1011   -3.3606 C   0  0  0  0  0  0  0  0  0  0  0  0
    0.9630    0.2662   -4.0027 H   0  0  0  0  0  0  0  0  0  0  0  0
    0.8490    2.0297   -3.7692 H   0  0  0  0  0  0  0  0  0  0  0  0
    2.3342    1.1615   -3.3128 H   0  0  0  0  0  0  0  0  0  0  0  0
  5  6  2  0  0  0  0
  5  7  1  0  0  0  0
  2  3  1  0  0  0  0
  2  4  1  0  0  0  0
  2  5  1  0  0  0  0
  1  2  1  0  0  0  0
 17 18  2  0  0  0  0
 17 19  1  0  0  0  0
 14 15  1  0  0  0  0
 14 16  2  0  0  0  0
 11 12  1  0  0  0  0
 11 13  1  0  0  0  0
 11 14  1  0  0  0  0
  9 10  1  0  0  0  0
  9 11  1  0  0  0  0
  9 17  1  0  0  0  0
  7  8  1  0  0  0  0
  7  9  1  0  0  0  0
 21 22  1  0  0  0  0
 21 23  1  0  0  0  0
 21 24  1  0  0  0  0
 19 20  1  0  0  0  0
 19 21  1  0  0  0  0
M  CHG  1  15  -1
M  END
$$$$
default_name
  -OEChem-01062215323D

 24 23  0     1  0  0  0  0  0999 V2000
   -2.8347   -3.7166    0.8034 H   0  0  0  0  0  0  0  0  0  0  0  0
   -2.7728   -2.7096    0.3954 C   0  0  0  0  0  0  0  0  0  0  0  0
   -3.4267   -2.0426    0.9524 H   0  0  0  0  0  0  0  0  0  0  0  0
   -3.0538   -2.7186   -0.6556 H   0  0  0  0  0  0  0  0  0  0  0  0
   -1.3498   -2.2206    0.5184 C   0  0  0  0  0  0  0  0  0  0  0  0
   -0.4997   -2.9426    1.0194 O   0  0  0  0  0  0  0  0  0  0  0  0
   -1.1198   -0.9926    0.0674 N   0  0  0  0  0  0  0  0  0  0  0  0
   -1.8978   -0.4486   -0.2716 H   0  0  0  0  0  0  0  0  0  0  0  0
    0.1693   -0.2866    0.0854 C   0  0  1  0  0  0  0  0  0  0  0  0
    0.0074    0.7437    0.4069 H   0  0  0  0  0  0  0  0  0  0  0  0
    1.1099   -0.9692    1.1020 C   0  0  0  0  0  0  0  0  0  0  0  0
    1.1362   -2.0397    0.8910 H   0  0  0  0  0  0  0  0  0  0  0  0
    2.1202   -0.5778    0.9645 H   0  0  0  0  0  0  0  0  0  0  0  0
    0.6948   -0.7954    2.5714 C   0  0  0  0  0  0  0  0  0  0  0  0
    0.0611    0.2362    2.8968 O   0  5  0  0  0  0  0  0  0  0  0  0
    1.0355   -1.6966    3.3676 O   0  0  0  0  0  0  0  0  0  0  0  0
    0.7695   -0.2598   -1.3394 C   0  0  0  0  0  0  0  0  0  0  0  0
    1.0110   -1.3150   -1.9376 O   0  0  0  0  0  0  0  0  0  0  0  0
    0.9987    0.9328   -1.8980 N   0  0  0  0  0  0  0  0  0  0  0  0
    0.8492    1.7428   -1.2934 H   0  0  0  0  0  0  0  0  0  0  0  0
    1.5733    1.1452   -3.2222 C   0  0  0  0  0  0  0  0  0  0  0  0
    1.1034    0.4713   -3.9396 H   0  0  0  0  0  0  0  0  0  0  0  0
    1.4119    2.1782   -3.5293 H   0  0  0  0  0  0  0  0  0  0  0  0
    2.6434    0.9396   -3.1867 H   0  0  0  0  0  0  0  0  0  0  0  0
  5  6  2  0  0  0  0
  5  7  1  0  0  0  0
  2  3  1  0  0  0  0
  2  4  1  0  0  0  0
  2  5  1  0  0  0  0
  1  2  1  0  0  0  0
 17 18  2  0  0  0  0
 17 19  1  0  0  0  0
 14 15  1  0  0  0  0
 14 16  2  0  0  0  0
 11 12  1  0  0  0  0
 11 13  1  0  0  0  0
 11 14  1  0  0  0  0
  9 10  1  0  0  0  0
  9 11  1  0  0  0  0
  9 17  1  0  0  0  0
  7  8  1  0  0  0  0
  7  9  1  0  0  0  0
 21 22  1  0  0  0  0
 21 23  1  0  0  0  0
 21 24  1  0  0  0  0
 19 20  1  0  0  0  0
 19 21  1  0  0  0  0
M  CHG  1  15  -1
M  END
$$$$
default_name
  -OEChem-01062215323D

 24 23  0     1  0  0  0  0  0999 V2000
   -2.8347   -3.7166    0.8034 H   0  0  0  0  0  0  0  0  0  0  0  0
   -2.7728   -2.7096    0.3954 C   0  0  0  0  0  0  0  0  0  0  0  0
   -3.4267   -2.0426    0.9524 H   0  0  0  0  0  0  0  0  0  0  0  0
   -3.0538   -2.7186   -0.6556 H   0  0  0  0  0  0  0  0  0  0  0  0
   -1.3498   -2.2206    0.5184 C   0  0  0  0  0  0  0  0  0  0  0  0
   -0.4997   -2.9426    1.0194 O   0  0  0  0  0  0  0  0  0  0  0  0
   -1.1198   -0.9926    0.0674 N   0  0  0  0  0  0  0  0  0  0  0  0
   -1.8978   -0.4486   -0.2716 H   0  0  0  0  0  0  0  0  0  0  0  0
    0.1693   -0.2866    0.0854 C   0  0  1  0  0  0  0  0  0  0  0  0
    0.0074    0.7437    0.4069 H   0  0  0  0  0  0  0  0  0  0  0  0
    1.1099   -0.9692    1.1020 C   0  0  0  0  0  0  0  0  0  0  0  0
    1.1362   -2.0397    0.8910 H   0  0  0  0  0  0  0  0  0  0  0  0
    2.1202   -0.5778    0.9645 H   0  0  0  0  0  0  0  0  0  0  0  0
    0.6948   -0.7954    2.5714 C   0  0  0  0  0  0  0  0  0  0  0  0
    0.0611    0.2362    2.8968 O   0  5  0  0  0  0  0  0  0  0  0  0
    1.0355   -1.6966    3.3676 O   0  0  0  0  0  0  0  0  0  0  0  0
    0.7695   -0.2598   -1.3394 C   0  0  0  0  0  0  0  0  0  0  0  0
    0.7568   -1.2761   -2.0440 O   0  0  0  0  0  0  0  0  0  0  0  0
    1.2810    0.8939   -1.7798 N   0  0  0  0  0  0  0  0  0  0  0  0
    1.3246    1.6509   -1.0949 H   0  0  0  0  0  0  0  0  0  0  0  0
    1.9000    1.0960   -3.0855 C   0  0  0  0  0  0  0  0  0  0  0  0
    1.2883    0.6294   -3.8588 H   0  0  0  0  0  0  0  0  0  0  0  0
    1.9921    2.1633   -3.2851 H   0  0  0  0  0  0  0  0  0  0  0  0
    2.8897    0.6389   -3.0886 H   0  0  0  0  0  0  0  0  0  0  0  0
  5  6  2  0  0  0  0
  5  7  1  0  0  0  0
  2  3  1  0  0  0  0
  2  4  1  0  0  0  0
  2  5  1  0  0  0  0
  1  2  1  0  0  0  0
 17 18  2  0  0  0  0
 17 19  1  0  0  0  0
 14 15  1  0  0  0  0
 14 16  2  0  0  0  0
 11 12  1  0  0  0  0
 11 13  1  0  0  0  0
 11 14  1  0  0  0  0
  9 10  1  0  0  0  0
  9 11  1  0  0  0  0
  9 17  1  0  0  0  0
  7  8  1  0  0  0  0
  7  9  1  0  0  0  0
 21 22  1  0  0  0  0
 21 23  1  0  0  0  0
 21 24  1  0  0  0  0
 19 20  1  0  0  0  0
 19 21  1  0  0  0  0
M  CHG  1  15  -1
M  END
$$$$
default_name
  -OEChem-01062215323D

 24 23  0     1  0  0  0  0  0999 V2000
   -2.8347   -3.7166    0.8034 H   0  0  0  0  0  0  0  0  0  0  0  0
   -2.7728   -2.7096    0.3954 C   0  0  0  0  0  0  0  0  0  0  0  0
   -3.4267   -2.0426    0.9524 H   0  0  0  0  0  0  0  0  0  0  0  0
   -3.0538   -2.7186   -0.6556 H   0  0  0  0  0  0  0  0  0  0  0  0
   -1.3498   -2.2206    0.5184 C   0  0  0  0  0  0  0  0  0  0  0  0
   -0.4997   -2.9426    1.0194 O   0  0  0  0  0  0  0  0  0  0  0  0
   -1.1198   -0.9926    0.0674 N   0  0  0  0  0  0  0  0  0  0  0  0
   -1.8978   -0.4486   -0.2716 H   0  0  0  0  0  0  0  0  0  0  0  0
    0.1693   -0.2866    0.0854 C   0  0  1  0  0  0  0  0  0  0  0  0
    0.0074    0.7437    0.4069 H   0  0  0  0  0  0  0  0  0  0  0  0
    1.1099   -0.9692    1.1020 C   0  0  0  0  0  0  0  0  0  0  0  0
    1.1362   -2.0397    0.8910 H   0  0  0  0  0  0  0  0  0  0  0  0
    2.1202   -0.5778    0.9645 H   0  0  0  0  0  0  0  0  0  0  0  0
    0.6948   -0.7954    2.5714 C   0  0  0  0  0  0  0  0  0  0  0  0
    0.0611    0.2362    2.8968 O   0  5  0  0  0  0  0  0  0  0  0  0
    1.0355   -1.6966    3.3676 O   0  0  0  0  0  0  0  0  0  0  0  0
    0.7695   -0.2598   -1.3394 C   0  0  0  0  0  0  0  0  0  0  0  0
    0.5199   -1.1673   -2.1417 O   0  0  0  0  0  0  0  0  0  0  0  0
    1.5450    0.7773   -1.6708 N   0  0  0  0  0  0  0  0  0  0  0  0
    1.7628    1.4289   -0.9145 H   0  0  0  0  0  0  0  0  0  0  0  0
    2.2044    0.9569   -2.9599 C   0  0  0  0  0  0  0  0  0  0  0  0
    1.5050    0.7300   -3.7656 H   0  0  0  0  0  0  0  0  0  0  0  0
    2.5502    1.9860   -3.0534 H   0  0  0  0  0  0  0  0  0  0  0  0
    3.0563    0.2799   -3.0251 H   0  0  0  0  0  0  0  0  0  0  0  0
  5  6  2  0  0  0  0
  5  7  1  0  0  0  0
  2  3  1  0  0  0  0
  2  4  1  0  0  0  0
  2  5  1  0  0  0  0
  1  2  1  0  0  0  0
 17 18  2  0  0  0  0
 17 19  1  0  0  0  0
 14 15  1  0  0  0  0
 14 16  2  0  0  0  0
 11 12  1  0  0  0  0
 11 13  1  0  0  0  0
 11 14  1  0  0  0  0
  9 10  1  0  0  0  0
  9 11  1  0  0  0  0
  9 17  1  0  0  0  0
  7  8  1  0  0  0  0
  7  9  1  0  0  0  0
 21 22  1  0  0  0  0
 21 23  1  0  0  0  0
 21 24  1  0  0  0  0
 19 20  1  0  0  0  0
 19 21  1  0  0  0  0
M  CHG  1  15  -1
M  END
$$$$
default_name
  -OEChem-01062215323D

 24 23  0     1  0  0  0  0  0999 V2000
   -2.8347   -3.7166    0.8034 H   0  0  0  0  0  0  0  0  0  0  0  0
   -2.7728   -2.7096    0.3954 C   0  0  0  0  0  0  0  0  0  0  0  0
   -3.4267   -2.0426    0.9524 H   0  0  0  0  0  0  0  0  0  0  0  0
   -3.0538   -2.7186   -0.6556 H   0  0  0  0  0  0  0  0  0  0  0  0
   -1.3498   -2.2206    0.5184 C   0  0  0  0  0  0  0  0  0  0  0  0
   -0.4997   -2.9426    1.0194 O   0  0  0  0  0  0  0  0  0  0  0  0
   -1.1198   -0.9926    0.0674 N   0  0  0  0  0  0  0  0  0  0  0  0
   -1.8978   -0.4486   -0.2716 H   0  0  0  0  0  0  0  0  0  0  0  0
    0.1693   -0.2866    0.0854 C   0  0  1  0  0  0  0  0  0  0  0  0
    0.0074    0.7437    0.4069 H   0  0  0  0  0  0  0  0  0  0  0  0
    1.1099   -0.9692    1.1020 C   0  0  0  0  0  0  0  0  0  0  0  0
    1.1362   -2.0397    0.8910 H   0  0  0  0  0  0  0  0  0  0  0  0
    2.1202   -0.5778    0.9645 H   0  0  0  0  0  0  0  0  0  0  0  0
    0.6948   -0.7954    2.5714 C   0  0  0  0  0  0  0  0  0  0  0  0
    0.0611    0.2362    2.8968 O   0  5  0  0  0  0  0  0  0  0  0  0
    1.0355   -1.6966    3.3676 O   0  0  0  0  0  0  0  0  0  0  0  0
    0.7695   -0.2598   -1.3394 C   0  0  0  0  0  0  0  0  0  0  0  0
    0.3167   -0.9959   -2.2241 O   0  0  0  0  0  0  0  0  0  0  0  0
    1.7727    0.5906   -1.5784 N   0  0  0  0  0  0  0  0  0  0  0  0
    2.1339    1.0918   -0.7645 H   0  0  0  0  0  0  0  0  0  0  0  0
    2.4657    0.7373   -2.8539 C   0  0  0  0  0  0  0  0  0  0  0  0
    1.7387    0.7662   -3.6665 H   0  0  0  0  0  0  0  0  0  0  0  0
    3.0479    1.6584   -2.8498 H   0  0  0  0  0  0  0  0  0  0  0  0
    3.1319   -0.1131   -3.0007 H   0  0  0  0  0  0  0  0  0  0  0  0
  5  6  2  0  0  0  0
  5  7  1  0  0  0  0
  2  3  1  0  0  0  0
  2  4  1  0  0  0  0
  2  5  1  0  0  0  0
  1  2  1  0  0  0  0
 17 18  2  0  0  0  0
 17 19  1  0  0  0  0
 14 15  1  0  0  0  0
 14 16  2  0  0  0  0
 11 12  1  0  0  0  0
 11 13  1  0  0  0  0
 11 14  1  0  0  0  0
  9 10  1  0  0  0  0
  9 11  1  0  0  0  0
  9 17  1  0  0  0  0
  7  8  1  0  0  0  0
  7  9  1  0  0  0  0
 21 22  1  0  0  0  0
 21 23  1  0  0  0  0
 21 24  1  0  0  0  0
 19 20  1  0  0  0  0
 19 21  1  0  0  0  0
M  CHG  1  15  -1
M  END
$$$$
default_name
  -OEChem-01062215323D

 24 23  0     1  0  0  0  0  0999 V2000
   -2.8347   -3.7166    0.8034 H   0  0  0  0  0  0  0  0  0  0  0  0
   -2.7728   -2.7096    0.3954 C   0  0  0  0  0  0  0  0  0  0  0  0
   -3.4267   -2.0426    0.9524 H   0  0  0  0  0  0  0  0  0  0  0  0
   -3.0538   -2.7186   -0.6556 H   0  0  0  0  0  0  0  0  0  0  0  0
   -1.3498   -2.2206    0.5184 C   0  0  0  0  0  0  0  0  0  0  0  0
   -0.4997   -2.9426    1.0194 O   0  0  0  0  0  0  0  0  0  0  0  0
   -1.1198   -0.9926    0.0674 N   0  0  0  0  0  0  0  0  0  0  0  0
   -1.8978   -0.4486   -0.2716 H   0  0  0  0  0  0  0  0  0  0  0  0
    0.1693   -0.2866    0.0854 C   0  0  1  0  0  0  0  0  0  0  0  0
    0.0603    0.6410    0.6501 H   0  0  0  0  0  0  0  0  0  0  0  0
    1.2216   -1.1654    0.7957 C   0  0  0  0  0  0  0  0  0  0  0  0
    1.2094   -2.1595    0.3454 H   0  0  0  0  0  0  0  0  0  0  0  0
    2.2112   -0.7354    0.6266 H   0  0  0  0  0  0  0  0  0  0  0  0
    0.9949   -1.3366    2.3059 C   0  0  0  0  0  0  0  0  0  0  0  0
    0.4184   -0.4170    2.9332 O   0  5  0  0  0  0  0  0  0  0  0  0
    1.4222   -2.3888    2.8280 O   0  0  0  0  0  0  0  0  0  0  0  0
    0.5874    0.0731   -1.3592 C   0  0  0  0  0  0  0  0  0  0  0  0
   -0.1401   -0.2233   -2.3144 O   0  0  0  0  0  0  0  0  0  0  0  0
    1.7428    0.7229   -1.5312 N   0  0  0  0  0  0  0  0  0  0  0  0
    2.3132    0.8450   -0.6923 H   0  0  0  0  0  0  0  0  0  0  0  0
    2.2983    1.1252   -2.8190 C   0  0  0  0  0  0  0  0  0  0  0  0
    1.5151    1.5688   -3.4351 H   0  0  0  0  0  0  0  0  0  0  0  0
    3.0965    1.8503   -2.6624 H   0  0  0  0  0  0  0  0  0  0  0  0
    2.6989    0.2479   -3.3273 H   0  0  0  0  0  0  0  0  0  0  0  0
  5  6  2  0  0  0  0
  5  7  1  0  0  0  0
  2  3  1  0  0  0  0
  2  4  1  0  0  0  0
  2  5  1  0  0  0  0
  1  2  1  0  0  0  0
 17 18  2  0  0  0  0
 17 19  1  0  0  0  0
 14 15  1  0  0  0  0
 14 16  2  0  0  0  0
 11 12  1  0  0  0  0
 11 13  1  0  0  0  0
 11 14  1  0  0  0  0
  9 10  1  0  0  0  0
  9 11  1  0  0  0  0
  9 17  1  0  0  0  0
  7  8  1  0  0  0  0
  7  9  1  0  0  0  0
 21 22  1  0  0  0  0
 21 23  1  0  0  0  0
 21 24  1  0  0  0  0
 19 20  1  0  0  0  0
 19 21  1  0  0  0  0
M  CHG  1  15  -1
M  END
$$$$
default_name
  -OEChem-01062215323D

 24 23  0     1  0  0  0  0  0999 V2000
   -2.8347   -3.7166    0.8034 H   0  0  0  0  0  0  0  0  0  0  0  0
   -2.7728   -2.7096    0.3954 C   0  0  0  0  0  0  0  0  0  0  0  0
   -3.4267   -2.0426    0.9524 H   0  0  0  0  0  0  0  0  0  0  0  0
   -3.0538   -2.7186   -0.6556 H   0  0  0  0  0  0  0  0  0  0  0  0
   -1.3498   -2.2206    0.5184 C   0  0  0  0  0  0  0  0  0  0  0  0
   -0.4997   -2.9426    1.0194 O   0  0  0  0  0  0  0  0  0  0  0  0
   -1.1198   -0.9926    0.0674 N   0  0  0  0  0  0  0  0  0  0  0  0
   -1.8978   -0.4486   -0.2716 H   0  0  0  0  0  0  0  0  0  0  0  0
    0.1693   -0.2866    0.0854 C   0  0  1  0  0  0  0  0  0  0  0  0
    0.0603    0.6410    0.6501 H   0  0  0  0  0  0  0  0  0  0  0  0
    1.2216   -1.1654    0.7957 C   0  0  0  0  0  0  0  0  0  0  0  0
    1.2094   -2.1595    0.3454 H   0  0  0  0  0  0  0  0  0  0  0  0
    2.2112   -0.7354    0.6266 H   0  0  0  0  0  0  0  0  0  0  0  0
    0.9949   -1.3366    2.3059 C   0  0  0  0  0  0  0  0  0  0  0  0
    0.4184   -0.4170    2.9332 O   0  5  0  0  0  0  0  0  0  0  0  0
    1.4222   -2.3888    2.8280 O   0  0  0  0  0  0  0  0  0  0  0  0
    0.5874    0.0731   -1.3592 C   0  0  0  0  0  0  0  0  0  0  0  0
   -0.2387    0.0346   -2.2787 O   0  0  0  0  0  0  0  0  0  0  0  0
    1.8560    0.4384   -1.5693 N   0  0  0  0  0  0  0  0  0  0  0  0
    2.4814    0.3549   -0.7657 H   0  0  0  0  0  0  0  0  0  0  0  0
    2.4256    0.7943   -2.8646 C   0  0  0  0  0  0  0  0  0  0  0  0
    1.7435    1.4589   -3.3964 H   0  0  0  0  0  0  0  0  0  0  0  0
    3.3835    1.2926   -2.7182 H   0  0  0  0  0  0  0  0  0  0  0  0
    2.5733   -0.1114   -3.4532 H   0  0  0  0  0  0  0  0  0  0  0  0
  5  6  2  0  0  0  0
  5  7  1  0  0  0  0
  2  3  1  0  0  0  0
  2  4  1  0  0  0  0
  2  5  1  0  0  0  0
  1  2  1  0  0  0  0
 17 18  2  0  0  0  0
 17 19  1  0  0  0  0
 14 15  1  0  0  0  0
 14 16  2  0  0  0  0
 11 12  1  0  0  0  0
 11 13  1  0  0  0  0
 11 14  1  0  0  0  0
  9 10  1  0  0  0  0
  9 11  1  0  0  0  0
  9 17  1  0  0  0  0
  7  8  1  0  0  0  0
  7  9  1  0  0  0  0
 21 22  1  0  0  0  0
 21 23  1  0  0  0  0
 21 24  1  0  0  0  0
 19 20  1  0  0  0  0
 19 21  1  0  0  0  0
M  CHG  1  15  -1
M  END
$$$$
default_name
  -OEChem-01062215323D

 24 23  0     1  0  0  0  0  0999 V2000
   -2.8347   -3.7166    0.8034 H   0  0  0  0  0  0  0  0  0  0  0  0
   -2.7728   -2.7096    0.3954 C   0  0  0  0  0  0  0  0  0  0  0  0
   -3.4267   -2.0426    0.9524 H   0  0  0  0  0  0  0  0  0  0  0  0
   -3.0538   -2.7186   -0.6556 H   0  0  0  0  0  0  0  0  0  0  0  0
   -1.3498   -2.2206    0.5184 C   0  0  0  0  0  0  0  0  0  0  0  0
   -0.4997   -2.9426    1.0194 O   0  0  0  0  0  0  0  0  0  0  0  0
   -1.1198   -0.9926    0.0674 N   0  0  0  0  0  0  0  0  0  0  0  0
   -1.8978   -0.4486   -0.2716 H   0  0  0  0  0  0  0  0  0  0  0  0
    0.1693   -0.2866    0.0854 C   0  0  1  0  0  0  0  0  0  0  0  0
    0.0603    0.6410    0.6501 H   0  0  0  0  0  0  0  0  0  0  0  0
    1.2216   -1.1654    0.7957 C   0  0  0  0  0  0  0  0  0  0  0  0
    1.2094   -2.1595    0.3454 H   0  0  0  0  0  0  0  0  0  0  0  0
    2.2112   -0.7354    0.6266 H   0  0  0  0  0  0  0  0  0  0  0  0
    0.9949   -1.3366    2.3059 C   0  0  0  0  0  0  0  0  0  0  0  0
    0.4184   -0.4170    2.9332 O   0  5  0  0  0  0  0  0  0  0  0  0
    1.4222   -2.3888    2.8280 O   0  0  0  0  0  0  0  0  0  0  0  0
    0.5874    0.0731   -1.3592 C   0  0  0  0  0  0  0  0  0  0  0  0
   -0.2695    0.3050   -2.2203 O   0  0  0  0  0  0  0  0  0  0  0  0
    1.8942    0.1389   -1.6329 N   0  0  0  0  0  0  0  0  0  0  0  0
    2.5210   -0.1540   -0.8810 H   0  0  0  0  0  0  0  0  0  0  0  0
    2.4658    0.4470   -2.9394 C   0  0  0  0  0  0  0  0  0  0  0  0
    1.9399    1.2949   -3.3804 H   0  0  0  0  0  0  0  0  0  0  0  0
    3.5225    0.6884   -2.8284 H   0  0  0  0  0  0  0  0  0  0  0  0
    2.3575   -0.4193   -3.5923 H   0  0  0  0  0  0  0  0  0  0  0  0
  5  6  2  0  0  0  0
  5  7  1  0  0  0  0
  2  3  1  0  0  0  0
  2  4  1  0  0  0  0
  2  5  1  0  0  0  0
  1  2  1  0  0  0  0
 17 18  2  0  0  0  0
 17 19  1  0  0  0  0
 14 15  1  0  0  0  0
 14 16  2  0  0  0  0
 11 12  1  0  0  0  0
 11 13  1  0  0  0  0
 11 14  1  0  0  0  0
  9 10  1  0  0  0  0
  9 11  1  0  0  0  0
  9 17  1  0  0  0  0
  7  8  1  0  0  0  0
  7  9  1  0  0  0  0
 21 22  1  0  0  0  0
 21 23  1  0  0  0  0
 21 24  1  0  0  0  0
 19 20  1  0  0  0  0
 19 21  1  0  0  0  0
M  CHG  1  15  -1
M  END
$$$$
default_name
  -OEChem-01062215323D

 24 23  0     1  0  0  0  0  0999 V2000
   -2.8347   -3.7166    0.8034 H   0  0  0  0  0  0  0  0  0  0  0  0
   -2.7728   -2.7096    0.3954 C   0  0  0  0  0  0  0  0  0  0  0  0
   -3.4267   -2.0426    0.9524 H   0  0  0  0  0  0  0  0  0  0  0  0
   -3.0538   -2.7186   -0.6556 H   0  0  0  0  0  0  0  0  0  0  0  0
   -1.3498   -2.2206    0.5184 C   0  0  0  0  0  0  0  0  0  0  0  0
   -0.4997   -2.9426    1.0194 O   0  0  0  0  0  0  0  0  0  0  0  0
   -1.1198   -0.9926    0.0674 N   0  0  0  0  0  0  0  0  0  0  0  0
   -1.8978   -0.4486   -0.2716 H   0  0  0  0  0  0  0  0  0  0  0  0
    0.1693   -0.2866    0.0854 C   0  0  1  0  0  0  0  0  0  0  0  0
    0.0603    0.6410    0.6501 H   0  0  0  0  0  0  0  0  0  0  0  0
    1.2216   -1.1654    0.7957 C   0  0  0  0  0  0  0  0  0  0  0  0
    1.2094   -2.1595    0.3454 H   0  0  0  0  0  0  0  0  0  0  0  0
    2.2112   -0.7354    0.6266 H   0  0  0  0  0  0  0  0  0  0  0  0
    0.9949   -1.3366    2.3059 C   0  0  0  0  0  0  0  0  0  0  0  0
    0.4184   -0.4170    2.9332 O   0  5  0  0  0  0  0  0  0  0  0  0
    1.4222   -2.3888    2.8280 O   0  0  0  0  0  0  0  0  0  0  0  0
    0.5874    0.0731   -1.3592 C   0  0  0  0  0  0  0  0  0  0  0  0
   -0.2303    0.5695   -2.1430 O   0  0  0  0  0  0  0  0  0  0  0  0
    1.8548   -0.1552   -1.7175 N   0  0  0  0  0  0  0  0  0  0  0  0
    2.4292   -0.6471   -1.0303 H   0  0  0  0  0  0  0  0  0  0  0  0
    2.4161    0.1071   -3.0384 C   0  0  0  0  0  0  0  0  0  0  0  0
    2.0909    1.0878   -3.3882 H   0  0  0  0  0  0  0  0  0  0  0  0
    3.5041    0.0789   -2.9855 H   0  0  0  0  0  0  0  0  0  0  0  0
    2.0662   -0.6548   -3.7352 H   0  0  0  0  0  0  0  0  0  0  0  0
  5  6  2  0  0  0  0
  5  7  1  0  0  0  0
  2  3  1  0  0  0  0
  2  4  1  0  0  0  0
  2  5  1  0  0  0  0
  1  2  1  0  0  0  0
 17 18  2  0  0  0  0
 17 19  1  0  0  0  0
 14 15  1  0  0  0  0
 14 16  2  0  0  0  0
 11 12  1  0  0  0  0
 11 13  1  0  0  0  0
 11 14  1  0  0  0  0
  9 10  1  0  0  0  0
  9 11  1  0  0  0  0
  9 17  1  0  0  0  0
  7  8  1  0  0  0  0
  7  9  1  0  0  0  0
 21 22  1  0  0  0  0
 21 23  1  0  0  0  0
 21 24  1  0  0  0  0
 19 20  1  0  0  0  0
 19 21  1  0  0  0  0
M  CHG  1  15  -1
M  END
$$$$
default_name
  -OEChem-01062215323D

 24 23  0     1  0  0  0  0  0999 V2000
   -2.8347   -3.7166    0.8034 H   0  0  0  0  0  0  0  0  0  0  0  0
   -2.7728   -2.7096    0.3954 C   0  0  0  0  0  0  0  0  0  0  0  0
   -3.4267   -2.0426    0.9524 H   0  0  0  0  0  0  0  0  0  0  0  0
   -3.0538   -2.7186   -0.6556 H   0  0  0  0  0  0  0  0  0  0  0  0
   -1.3498   -2.2206    0.5184 C   0  0  0  0  0  0  0  0  0  0  0  0
   -0.4997   -2.9426    1.0194 O   0  0  0  0  0  0  0  0  0  0  0  0
   -1.1198   -0.9926    0.0674 N   0  0  0  0  0  0  0  0  0  0  0  0
   -1.8978   -0.4486   -0.2716 H   0  0  0  0  0  0  0  0  0  0  0  0
    0.1693   -0.2866    0.0854 C   0  0  1  0  0  0  0  0  0  0  0  0
    0.0603    0.6410    0.6501 H   0  0  0  0  0  0  0  0  0  0  0  0
    1.2216   -1.1654    0.7957 C   0  0  0  0  0  0  0  0  0  0  0  0
    1.2094   -2.1595    0.3454 H   0  0  0  0  0  0  0  0  0  0  0  0
    2.2112   -0.7354    0.6266 H   0  0  0  0  0  0  0  0  0  0  0  0
    0.9949   -1.3366    2.3059 C   0  0  0  0  0  0  0  0  0  0  0  0
    0.4184   -0.4170    2.9332 O   0  5  0  0  0  0  0  0  0  0  0  0
    1.4222   -2.3888    2.8280 O   0  0  0  0  0  0  0  0  0  0  0  0
    0.5874    0.0731   -1.3592 C   0  0  0  0  0  0  0  0  0  0  0  0
   -0.1239    0.8101   -2.0523 O   0  0  0  0  0  0  0  0  0  0  0  0
    1.7406   -0.4238   -1.8174 N   0  0  0  0  0  0  0  0  0  0  0  0
    2.2123   -1.0907   -1.2036 H   0  0  0  0  0  0  0  0  0  0  0  0
    2.2800   -0.2022   -3.1549 C   0  0  0  0  0  0  0  0  0  0  0  0
    2.1863    0.8518   -3.4194 H   0  0  0  0  0  0  0  0  0  0  0  0
    3.3295   -0.4944   -3.1788 H   0  0  0  0  0  0  0  0  0  0  0  0
    1.7194   -0.8018   -3.8723 H   0  0  0  0  0  0  0  0  0  0  0  0
  5  6  2  0  0  0  0
  5  7  1  0  0  0  0
  2  3  1  0  0  0  0
  2  4  1  0  0  0  0
  2  5  1  0  0  0  0
  1  2  1  0  0  0  0
 17 18  2  0  0  0  0
 17 19  1  0  0  0  0
 14 15  1  0  0  0  0
 14 16  2  0  0  0  0
 11 12  1  0  0  0  0
 11 13  1  0  0  0  0
 11 14  1  0  0  0  0
  9 10  1  0  0  0  0
  9 11  1  0  0  0  0
  9 17  1  0  0  0  0
  7  8  1  0  0  0  0
  7  9  1  0  0  0  0
 21 22  1  0  0  0  0
 21 23  1  0  0  0  0
 21 24  1  0  0  0  0
 19 20  1  0  0  0  0
 19 21  1  0  0  0  0
M  CHG  1  15  -1
M  END
$$$$
default_name
  -OEChem-01062215323D

 24 23  0     1  0  0  0  0  0999 V2000
   -2.8347   -3.7166    0.8034 H   0  0  0  0  0  0  0  0  0  0  0  0
   -2.7728   -2.7096    0.3954 C   0  0  0  0  0  0  0  0  0  0  0  0
   -3.4267   -2.0426    0.9524 H   0  0  0  0  0  0  0  0  0  0  0  0
   -3.0538   -2.7186   -0.6556 H   0  0  0  0  0  0  0  0  0  0  0  0
   -1.3498   -2.2206    0.5184 C   0  0  0  0  0  0  0  0  0  0  0  0
   -0.4997   -2.9426    1.0194 O   0  0  0  0  0  0  0  0  0  0  0  0
   -1.1198   -0.9926    0.0674 N   0  0  0  0  0  0  0  0  0  0  0  0
   -1.8978   -0.4486   -0.2716 H   0  0  0  0  0  0  0  0  0  0  0  0
    0.1693   -0.2866    0.0854 C   0  0  1  0  0  0  0  0  0  0  0  0
    0.0603    0.6410    0.6501 H   0  0  0  0  0  0  0  0  0  0  0  0
    1.2216   -1.1654    0.7957 C   0  0  0  0  0  0  0  0  0  0  0  0
    1.2094   -2.1595    0.3454 H   0  0  0  0  0  0  0  0  0  0  0  0
    2.2112   -0.7354    0.6266 H   0  0  0  0  0  0  0  0  0  0  0  0
    0.9949   -1.3366    2.3059 C   0  0  0  0  0  0  0  0  0  0  0  0
    0.4184   -0.4170    2.9332 O   0  5  0  0  0  0  0  0  0  0  0  0
    1.4222   -2.3888    2.8280 O   0  0  0  0  0  0  0  0  0  0  0  0
    0.5874    0.0731   -1.3592 C   0  0  0  0  0  0  0  0  0  0  0  0
    0.0426    1.0105   -1.9542 O   0  0  0  0  0  0  0  0  0  0  0  0
    1.5593   -0.6487   -1.9259 N   0  0  0  0  0  0  0  0  0  0  0  0
    1.8851   -1.4546   -1.3889 H   0  0  0  0  0  0  0  0  0  0  0  0
    2.0667   -0.4600   -3.2808 C   0  0  0  0  0  0  0  0  0  0  0  0
    2.2194    0.6030   -3.4718 H   0  0  0  0  0  0  0  0  0  0  0  0
    3.0106   -0.9924   -3.3952 H   0  0  0  0  0  0  0  0  0  0  0  0
    1.3405   -0.8503   -3.9940 H   0  0  0  0  0  0  0  0  0  0  0  0
  5  6  2  0  0  0  0
  5  7  1  0  0  0  0
  2  3  1  0  0  0  0
  2  4  1  0  0  0  0
  2  5  1  0  0  0  0
  1  2  1  0  0  0  0
 17 18  2  0  0  0  0
 17 19  1  0  0  0  0
 14 15  1  0  0  0  0
 14 16  2  0  0  0  0
 11 12  1  0  0  0  0
 11 13  1  0  0  0  0
 11 14  1  0  0  0  0
  9 10  1  0  0  0  0
  9 11  1  0  0  0  0
  9 17  1  0  0  0  0
  7  8  1  0  0  0  0
  7  9  1  0  0  0  0
 21 22  1  0  0  0  0
 21 23  1  0  0  0  0
 21 24  1  0  0  0  0
 19 20  1  0  0  0  0
 19 21  1  0  0  0  0
M  CHG  1  15  -1
M  END
$$$$
default_name
  -OEChem-01062215323D

 24 23  0     1  0  0  0  0  0999 V2000
   -2.8347   -3.7166    0.8034 H   0  0  0  0  0  0  0  0  0  0  0  0
   -2.7728   -2.7096    0.3954 C   0  0  0  0  0  0  0  0  0  0  0  0
   -3.4267   -2.0426    0.9524 H   0  0  0  0  0  0  0  0  0  0  0  0
   -3.0538   -2.7186   -0.6556 H   0  0  0  0  0  0  0  0  0  0  0  0
   -1.3498   -2.2206    0.5184 C   0  0  0  0  0  0  0  0  0  0  0  0
   -0.4997   -2.9426    1.0194 O   0  0  0  0  0  0  0  0  0  0  0  0
   -1.1198   -0.9926    0.0674 N   0  0  0  0  0  0  0  0  0  0  0  0
   -1.8978   -0.4486   -0.2716 H   0  0  0  0  0  0  0  0  0  0  0  0
    0.1693   -0.2866    0.0854 C   0  0  1  0  0  0  0  0  0  0  0  0
    0.0603    0.6410    0.6501 H   0  0  0  0  0  0  0  0  0  0  0  0
    1.2216   -1.1654    0.7957 C   0  0  0  0  0  0  0  0  0  0  0  0
    1.2094   -2.1595    0.3454 H   0  0  0  0  0  0  0  0  0  0  0  0
    2.2112   -0.7354    0.6266 H   0  0  0  0  0  0  0  0  0  0  0  0
    0.9949   -1.3366    2.3059 C   0  0  0  0  0  0  0  0  0  0  0  0
    0.4184   -0.4170    2.9332 O   0  5  0  0  0  0  0  0  0  0  0  0
    1.4222   -2.3888    2.8280 O   0  0  0  0  0  0  0  0  0  0  0  0
    0.5874    0.0731   -1.3592 C   0  0  0  0  0  0  0  0  0  0  0  0
    0.2578    1.1569   -1.8555 O   0  0  0  0  0  0  0  0  0  0  0  0
    1.3233   -0.8145   -2.0355 N   0  0  0  0  0  0  0  0  0  0  0  0
    1.4700   -1.7141   -1.5737 H   0  0  0  0  0  0  0  0  0  0  0  0
    1.7908   -0.6486   -3.4076 C   0  0  0  0  0  0  0  0  0  0  0  0
    2.1881    0.3584   -3.5417 H   0  0  0  0  0  0  0  0  0  0  0  0
    2.5691   -1.3811   -3.6198 H   0  0  0  0  0  0  0  0  0  0  0  0
    0.9555   -0.7971   -4.0922 H   0  0  0  0  0  0  0  0  0  0  0  0
  5  6  2  0  0  0  0
  5  7  1  0  0  0  0
  2  3  1  0  0  0  0
  2  4  1  0  0  0  0
  2  5  1  0  0  0  0
  1  2  1  0  0  0  0
 17 18  2  0  0  0  0
 17 19  1  0  0  0  0
 14 15  1  0  0  0  0
 14 16  2  0  0  0  0
 11 12  1  0  0  0  0
 11 13  1  0  0  0  0
 11 14  1  0  0  0  0
  9 10  1  0  0  0  0
  9 11  1  0  0  0  0
  9 17  1  0  0  0  0
  7  8  1  0  0  0  0
  7  9  1  0  0  0  0
 21 22  1  0  0  0  0
 21 23  1  0  0  0  0
 21 24  1  0  0  0  0
 19 20  1  0  0  0  0
 19 21  1  0  0  0  0
M  CHG  1  15  -1
M  END
$$$$
default_name
  -OEChem-01062215323D

 24 23  0     1  0  0  0  0  0999 V2000
   -2.8347   -3.7166    0.8034 H   0  0  0  0  0  0  0  0  0  0  0  0
   -2.7728   -2.7096    0.3954 C   0  0  0  0  0  0  0  0  0  0  0  0
   -3.4267   -2.0426    0.9524 H   0  0  0  0  0  0  0  0  0  0  0  0
   -3.0538   -2.7186   -0.6556 H   0  0  0  0  0  0  0  0  0  0  0  0
   -1.3498   -2.2206    0.5184 C   0  0  0  0  0  0  0  0  0  0  0  0
   -0.4997   -2.9426    1.0194 O   0  0  0  0  0  0  0  0  0  0  0  0
   -1.1198   -0.9926    0.0674 N   0  0  0  0  0  0  0  0  0  0  0  0
   -1.8978   -0.4486   -0.2716 H   0  0  0  0  0  0  0  0  0  0  0  0
    0.1693   -0.2866    0.0854 C   0  0  1  0  0  0  0  0  0  0  0  0
    0.0603    0.6410    0.6501 H   0  0  0  0  0  0  0  0  0  0  0  0
    1.2216   -1.1654    0.7957 C   0  0  0  0  0  0  0  0  0  0  0  0
    1.2094   -2.1595    0.3454 H   0  0  0  0  0  0  0  0  0  0  0  0
    2.2112   -0.7354    0.6266 H   0  0  0  0  0  0  0  0  0  0  0  0
    0.9949   -1.3366    2.3059 C   0  0  0  0  0  0  0  0  0  0  0  0
    0.4184   -0.4170    2.9332 O   0  5  0  0  0  0  0  0  0  0  0  0
    1.4222   -2.3888    2.8280 O   0  0  0  0  0  0  0  0  0  0  0  0
    0.5874    0.0731   -1.3592 C   0  0  0  0  0  0  0  0  0  0  0  0
    0.5069    1.2394   -1.7628 O   0  0  0  0  0  0  0  0  0  0  0  0
    1.0486   -0.9099   -2.1388 N   0  0  0  0  0  0  0  0  0  0  0  0
    0.9951   -1.8514   -1.7454 H   0  0  0  0  0  0  0  0  0  0  0  0
    1.4710   -0.7551   -3.5267 C   0  0  0  0  0  0  0  0  0  0  0  0
    2.0945    0.1345   -3.6246 H   0  0  0  0  0  0  0  0  0  0  0  0
    2.0351   -1.6342   -3.8374 H   0  0  0  0  0  0  0  0  0  0  0  0
    0.5905   -0.6457   -4.1602 H   0  0  0  0  0  0  0  0  0  0  0  0
  5  6  2  0  0  0  0
  5  7  1  0  0  0  0
  2  3  1  0  0  0  0
  2  4  1  0  0  0  0
  2  5  1  0  0  0  0
  1  2  1  0  0  0  0
 17 18  2  0  0  0  0
 17 19  1  0  0  0  0
 14 15  1  0  0  0  0
 14 16  2  0  0  0  0
 11 12  1  0  0  0  0
 11 13  1  0  0  0  0
 11 14  1  0  0  0  0
  9 10  1  0  0  0  0
  9 11  1  0  0  0  0
  9 17  1  0  0  0  0
  7  8  1  0  0  0  0
  7  9  1  0  0  0  0
 21 22  1  0  0  0  0
 21 23  1  0  0  0  0
 21 24  1  0  0  0  0
 19 20  1  0  0  0  0
 19 21  1  0  0  0  0
M  CHG  1  15  -1
M  END
$$$$
default_name
  -OEChem-01062215323D

 24 23  0     1  0  0  0  0  0999 V2000
   -2.8347   -3.7166    0.8034 H   0  0  0  0  0  0  0  0  0  0  0  0
   -2.7728   -2.7096    0.3954 C   0  0  0  0  0  0  0  0  0  0  0  0
   -3.4267   -2.0426    0.9524 H   0  0  0  0  0  0  0  0  0  0  0  0
   -3.0538   -2.7186   -0.6556 H   0  0  0  0  0  0  0  0  0  0  0  0
   -1.3498   -2.2206    0.5184 C   0  0  0  0  0  0  0  0  0  0  0  0
   -0.4997   -2.9426    1.0194 O   0  0  0  0  0  0  0  0  0  0  0  0
   -1.1198   -0.9926    0.0674 N   0  0  0  0  0  0  0  0  0  0  0  0
   -1.8978   -0.4486   -0.2716 H   0  0  0  0  0  0  0  0  0  0  0  0
    0.1693   -0.2866    0.0854 C   0  0  1  0  0  0  0  0  0  0  0  0
    0.0603    0.6410    0.6501 H   0  0  0  0  0  0  0  0  0  0  0  0
    1.2216   -1.1654    0.7957 C   0  0  0  0  0  0  0  0  0  0  0  0
    1.2094   -2.1595    0.3454 H   0  0  0  0  0  0  0  0  0  0  0  0
    2.2112   -0.7354    0.6266 H   0  0  0  0  0  0  0  0  0  0  0  0
    0.9949   -1.3366    2.3059 C   0  0  0  0  0  0  0  0  0  0  0  0
    0.4184   -0.4170    2.9332 O   0  5  0  0  0  0  0  0  0  0  0  0
    1.4222   -2.3888    2.8280 O   0  0  0  0  0  0  0  0  0  0  0  0
    0.5874    0.0731   -1.3592 C   0  0  0  0  0  0  0  0  0  0  0  0
    0.7731    1.2523   -1.6825 O   0  0  0  0  0  0  0  0  0  0  0  0
    0.7540   -0.9284   -2.2287 N   0  0  0  0  0  0  0  0  0  0  0  0
    0.4928   -1.8571   -1.8922 H   0  0  0  0  0  0  0  0  0  0  0  0
    1.1292   -0.7724   -3.6300 C   0  0  0  0  0  0  0  0  0  0  0  0
    1.9450   -0.0533   -3.7147 H   0  0  0  0  0  0  0  0  0  0  0  0
    1.4450   -1.7343   -4.0331 H   0  0  0  0  0  0  0  0  0  0  0  0
    0.2705   -0.4065   -4.1932 H   0  0  0  0  0  0  0  0  0  0  0  0
  5  6  2  0  0  0  0
  5  7  1  0  0  0  0
  2  3  1  0  0  0  0
  2  4  1  0  0  0  0
  2  5  1  0  0  0  0
  1  2  1  0  0  0  0
 17 18  2  0  0  0  0
 17 19  1  0  0  0  0
 14 15  1  0  0  0  0
 14 16  2  0  0  0  0
 11 12  1  0  0  0  0
 11 13  1  0  0  0  0
 11 14  1  0  0  0  0
  9 10  1  0  0  0  0
  9 11  1  0  0  0  0
  9 17  1  0  0  0  0
  7  8  1  0  0  0  0
  7  9  1  0  0  0  0
 21 22  1  0  0  0  0
 21 23  1  0  0  0  0
 21 24  1  0  0  0  0
 19 20  1  0  0  0  0
 19 21  1  0  0  0  0
M  CHG  1  15  -1
M  END
$$$$
default_name
  -OEChem-01062215323D

 24 23  0     1  0  0  0  0  0999 V2000
   -2.8347   -3.7166    0.8034 H   0  0  0  0  0  0  0  0  0  0  0  0
   -2.7728   -2.7096    0.3954 C   0  0  0  0  0  0  0  0  0  0  0  0
   -3.4267   -2.0426    0.9524 H   0  0  0  0  0  0  0  0  0  0  0  0
   -3.0538   -2.7186   -0.6556 H   0  0  0  0  0  0  0  0  0  0  0  0
   -1.3498   -2.2206    0.5184 C   0  0  0  0  0  0  0  0  0  0  0  0
   -0.4997   -2.9426    1.0194 O   0  0  0  0  0  0  0  0  0  0  0  0
   -1.1198   -0.9926    0.0674 N   0  0  0  0  0  0  0  0  0  0  0  0
   -1.8978   -0.4486   -0.2716 H   0  0  0  0  0  0  0  0  0  0  0  0
    0.1693   -0.2866    0.0854 C   0  0  1  0  0  0  0  0  0  0  0  0
    0.0603    0.6410    0.6501 H   0  0  0  0  0  0  0  0  0  0  0  0
    1.2216   -1.1654    0.7957 C   0  0  0  0  0  0  0  0  0  0  0  0
    1.2094   -2.1595    0.3454 H   0  0  0  0  0  0  0  0  0  0  0  0
    2.2112   -0.7354    0.6266 H   0  0  0  0  0  0  0  0  0  0  0  0
    0.9949   -1.3366    2.3059 C   0  0  0  0  0  0  0  0  0  0  0  0
    0.4184   -0.4170    2.9332 O   0  5  0  0  0  0  0  0  0  0  0  0
    1.4222   -2.3888    2.8280 O   0  0  0  0  0  0  0  0  0  0  0  0
    0.5874    0.0731   -1.3592 C   0  0  0  0  0  0  0  0  0  0  0  0
    1.0382    1.1948   -1.6201 O   0  0  0  0  0  0  0  0  0  0  0  0
    0.4596   -0.8687   -2.2990 N   0  0  0  0  0  0  0  0  0  0  0  0
   -0.0026   -1.7310   -2.0042 H   0  0  0  0  0  0  0  0  0  0  0  0
    0.7886   -0.6993   -3.7103 C   0  0  0  0  0  0  0  0  0  0  0  0
    1.7497   -0.1922   -3.8058 H   0  0  0  0  0  0  0  0  0  0  0  0
    0.8390   -1.6746   -4.1937 H   0  0  0  0  0  0  0  0  0  0  0  0
    0.0173   -0.0958   -4.1892 H   0  0  0  0  0  0  0  0  0  0  0  0
  5  6  2  0  0  0  0
  5  7  1  0  0  0  0
  2  3  1  0  0  0  0
  2  4  1  0  0  0  0
  2  5  1  0  0  0  0
  1  2  1  0  0  0  0
 17 18  2  0  0  0  0
 17 19  1  0  0  0  0
 14 15  1  0  0  0  0
 14 16  2  0  0  0  0
 11 12  1  0  0  0  0
 11 13  1  0  0  0  0
 11 14  1  0  0  0  0
  9 10  1  0  0  0  0
  9 11  1  0  0  0  0
  9 17  1  0  0  0  0
  7  8  1  0  0  0  0
  7  9  1  0  0  0  0
 21 22  1  0  0  0  0
 21 23  1  0  0  0  0
 21 24  1  0  0  0  0
 19 20  1  0  0  0  0
 19 21  1  0  0  0  0
M  CHG  1  15  -1
M  END
$$$$
default_name
  -OEChem-01062215323D

 24 23  0     1  0  0  0  0  0999 V2000
   -2.8347   -3.7166    0.8034 H   0  0  0  0  0  0  0  0  0  0  0  0
   -2.7728   -2.7096    0.3954 C   0  0  0  0  0  0  0  0  0  0  0  0
   -3.4267   -2.0426    0.9524 H   0  0  0  0  0  0  0  0  0  0  0  0
   -3.0538   -2.7186   -0.6556 H   0  0  0  0  0  0  0  0  0  0  0  0
   -1.3498   -2.2206    0.5184 C   0  0  0  0  0  0  0  0  0  0  0  0
   -0.4997   -2.9426    1.0194 O   0  0  0  0  0  0  0  0  0  0  0  0
   -1.1198   -0.9926    0.0674 N   0  0  0  0  0  0  0  0  0  0  0  0
   -1.8978   -0.4486   -0.2716 H   0  0  0  0  0  0  0  0  0  0  0  0
    0.1693   -0.2866    0.0854 C   0  0  1  0  0  0  0  0  0  0  0  0
    0.0603    0.6410    0.6501 H   0  0  0  0  0  0  0  0  0  0  0  0
    1.2216   -1.1654    0.7957 C   0  0  0  0  0  0  0  0  0  0  0  0
    1.2094   -2.1595    0.3454 H   0  0  0  0  0  0  0  0  0  0  0  0
    2.2112   -0.7354    0.6266 H   0  0  0  0  0  0  0  0  0  0  0  0
    0.9949   -1.3366    2.3059 C   0  0  0  0  0  0  0  0  0  0  0  0
    0.4184   -0.4170    2.9332 O   0  5  0  0  0  0  0  0  0  0  0  0
    1.4222   -2.3888    2.8280 O   0  0  0  0  0  0  0  0  0  0  0  0
    0.5874    0.0731   -1.3592 C   0  0  0  0  0  0  0  0  0  0  0  0
    1.2841    1.0708   -1.5798 O   0  0  0  0  0  0  0  0  0  0  0  0
    0.1854   -0.7350   -2.3451 N   0  0  0  0  0  0  0  0  0  0  0  0
   -0.4573   -1.4815   -2.0737 H   0  0  0  0  0  0  0  0  0  0  0  0
    0.4725   -0.5406   -3.7623 C   0  0  0  0  0  0  0  0  0  0  0  0
    1.5220   -0.2729   -3.8918 H   0  0  0  0  0  0  0  0  0  0  0  0
    0.2585   -1.4591   -4.3081 H   0  0  0  0  0  0  0  0  0  0  0  0
   -0.1520    0.2654   -4.1482 H   0  0  0  0  0  0  0  0  0  0  0  0
  5  6  2  0  0  0  0
  5  7  1  0  0  0  0
  2  3  1  0  0  0  0
  2  4  1  0  0  0  0
  2  5  1  0  0  0  0
  1  2  1  0  0  0  0
 17 18  2  0  0  0  0
 17 19  1  0  0  0  0
 14 15  1  0  0  0  0
 14 16  2  0  0  0  0
 11 12  1  0  0  0  0
 11 13  1  0  0  0  0
 11 14  1  0  0  0  0
  9 10  1  0  0  0  0
  9 11  1  0  0  0  0
  9 17  1  0  0  0  0
  7  8  1  0  0  0  0
  7  9  1  0  0  0  0
 21 22  1  0  0  0  0
 21 23  1  0  0  0  0
 21 24  1  0  0  0  0
 19 20  1  0  0  0  0
 19 21  1  0  0  0  0
M  CHG  1  15  -1
M  END
$$$$
default_name
  -OEChem-01062215323D

 24 23  0     1  0  0  0  0  0999 V2000
   -2.8347   -3.7166    0.8034 H   0  0  0  0  0  0  0  0  0  0  0  0
   -2.7728   -2.7096    0.3954 C   0  0  0  0  0  0  0  0  0  0  0  0
   -3.4267   -2.0426    0.9524 H   0  0  0  0  0  0  0  0  0  0  0  0
   -3.0538   -2.7186   -0.6556 H   0  0  0  0  0  0  0  0  0  0  0  0
   -1.3498   -2.2206    0.5184 C   0  0  0  0  0  0  0  0  0  0  0  0
   -0.4997   -2.9426    1.0194 O   0  0  0  0  0  0  0  0  0  0  0  0
   -1.1198   -0.9926    0.0674 N   0  0  0  0  0  0  0  0  0  0  0  0
   -1.8978   -0.4486   -0.2716 H   0  0  0  0  0  0  0  0  0  0  0  0
    0.1693   -0.2866    0.0854 C   0  0  1  0  0  0  0  0  0  0  0  0
    0.0603    0.6410    0.6501 H   0  0  0  0  0  0  0  0  0  0  0  0
    1.2216   -1.1654    0.7957 C   0  0  0  0  0  0  0  0  0  0  0  0
    1.2094   -2.1595    0.3454 H   0  0  0  0  0  0  0  0  0  0  0  0
    2.2112   -0.7354    0.6266 H   0  0  0  0  0  0  0  0  0  0  0  0
    0.9949   -1.3366    2.3059 C   0  0  0  0  0  0  0  0  0  0  0  0
    0.4184   -0.4170    2.9332 O   0  5  0  0  0  0  0  0  0  0  0  0
    1.4222   -2.3888    2.8280 O   0  0  0  0  0  0  0  0  0  0  0  0
    0.5874    0.0731   -1.3592 C   0  0  0  0  0  0  0  0  0  0  0  0
    1.4941    0.8888   -1.5643 O   0  0  0  0  0  0  0  0  0  0  0  0
   -0.0499   -0.5363   -2.3638 N   0  0  0  0  0  0  0  0  0  0  0  0
   -0.8404   -1.1257   -2.0960 H   0  0  0  0  0  0  0  0  0  0  0  0
    0.2025   -0.3073   -3.7824 C   0  0  0  0  0  0  0  0  0  0  0  0
    1.2774   -0.2897   -3.9668 H   0  0  0  0  0  0  0  0  0  0  0  0
   -0.2571   -1.1027   -4.3686 H   0  0  0  0  0  0  0  0  0  0  0  0
   -0.2256    0.6522   -4.0732 H   0  0  0  0  0  0  0  0  0  0  0  0
  5  6  2  0  0  0  0
  5  7  1  0  0  0  0
  2  3  1  0  0  0  0
  2  4  1  0  0  0  0
  2  5  1  0  0  0  0
  1  2  1  0  0  0  0
 17 18  2  0  0  0  0
 17 19  1  0  0  0  0
 14 15  1  0  0  0  0
 14 16  2  0  0  0  0
 11 12  1  0  0  0  0
 11 13  1  0  0  0  0
 11 14  1  0  0  0  0
  9 10  1  0  0  0  0
  9 11  1  0  0  0  0
  9 17  1  0  0  0  0
  7  8  1  0  0  0  0
  7  9  1  0  0  0  0
 21 22  1  0  0  0  0
 21 23  1  0  0  0  0
 21 24  1  0  0  0  0
 19 20  1  0  0  0  0
 19 21  1  0  0  0  0
M  CHG  1  15  -1
M  END
$$$$
default_name
  -OEChem-01062215323D

 24 23  0     1  0  0  0  0  0999 V2000
   -2.8347   -3.7166    0.8034 H   0  0  0  0  0  0  0  0  0  0  0  0
   -2.7728   -2.7096    0.3954 C   0  0  0  0  0  0  0  0  0  0  0  0
   -3.4267   -2.0426    0.9524 H   0  0  0  0  0  0  0  0  0  0  0  0
   -3.0538   -2.7186   -0.6556 H   0  0  0  0  0  0  0  0  0  0  0  0
   -1.3498   -2.2206    0.5184 C   0  0  0  0  0  0  0  0  0  0  0  0
   -0.4997   -2.9426    1.0194 O   0  0  0  0  0  0  0  0  0  0  0  0
   -1.1198   -0.9926    0.0674 N   0  0  0  0  0  0  0  0  0  0  0  0
   -1.8978   -0.4486   -0.2716 H   0  0  0  0  0  0  0  0  0  0  0  0
    0.1693   -0.2866    0.0854 C   0  0  1  0  0  0  0  0  0  0  0  0
    0.0603    0.6410    0.6501 H   0  0  0  0  0  0  0  0  0  0  0  0
    1.2216   -1.1654    0.7957 C   0  0  0  0  0  0  0  0  0  0  0  0
    1.2094   -2.1595    0.3454 H   0  0  0  0  0  0  0  0  0  0  0  0
    2.2112   -0.7354    0.6266 H   0  0  0  0  0  0  0  0  0  0  0  0
    0.9949   -1.3366    2.3059 C   0  0  0  0  0  0  0  0  0  0  0  0
    0.4184   -0.4170    2.9332 O   0  5  0  0  0  0  0  0  0  0  0  0
    1.4222   -2.3888    2.8280 O   0  0  0  0  0  0  0  0  0  0  0  0
    0.5874    0.0731   -1.3592 C   0  0  0  0  0  0  0  0  0  0  0  0
    1.6539    0.6611   -1.5748 O   0  0  0  0  0  0  0  0  0  0  0  0
   -0.2303   -0.2861   -2.3537 N   0  0  0  0  0  0  0  0  0  0  0  0
   -1.1258   -0.6879   -2.0696 H   0  0  0  0  0  0  0  0  0  0  0  0
   -0.0032   -0.0152   -3.7692 C   0  0  0  0  0  0  0  0  0  0  0  0
    1.0325   -0.2415   -4.0256 H   0  0  0  0  0  0  0  0  0  0  0  0
   -0.6725   -0.6295   -4.3710 H   0  0  0  0  0  0  0  0  0  0  0  0
   -0.1988    1.0385   -3.9692 H   0  0  0  0  0  0  0  0  0  0  0  0
  5  6  2  0  0  0  0
  5  7  1  0  0  0  0
  2  3  1  0  0  0  0
  2  4  1  0  0  0  0
  2  5  1  0  0  0  0
  1  2  1  0  0  0  0
 17 18  2  0  0  0  0
 17 19  1  0  0  0  0
 14 15  1  0  0  0  0
 14 16  2  0  0  0  0
 11 12  1  0  0  0  0
 11 13  1  0  0  0  0
 11 14  1  0  0  0  0
  9 10  1  0  0  0  0
  9 11  1  0  0  0  0
  9 17  1  0  0  0  0
  7  8  1  0  0  0  0
  7  9  1  0  0  0  0
 21 22  1  0  0  0  0
 21 23  1  0  0  0  0
 21 24  1  0  0  0  0
 19 20  1  0  0  0  0
 19 21  1  0  0  0  0
M  CHG  1  15  -1
M  END
$$$$
default_name
  -OEChem-01062215323D

 24 23  0     1  0  0  0  0  0999 V2000
   -2.8347   -3.7166    0.8034 H   0  0  0  0  0  0  0  0  0  0  0  0
   -2.7728   -2.7096    0.3954 C   0  0  0  0  0  0  0  0  0  0  0  0
   -3.4267   -2.0426    0.9524 H   0  0  0  0  0  0  0  0  0  0  0  0
   -3.0538   -2.7186   -0.6556 H   0  0  0  0  0  0  0  0  0  0  0  0
   -1.3498   -2.2206    0.5184 C   0  0  0  0  0  0  0  0  0  0  0  0
   -0.4997   -2.9426    1.0194 O   0  0  0  0  0  0  0  0  0  0  0  0
   -1.1198   -0.9926    0.0674 N   0  0  0  0  0  0  0  0  0  0  0  0
   -1.8978   -0.4486   -0.2716 H   0  0  0  0  0  0  0  0  0  0  0  0
    0.1693   -0.2866    0.0854 C   0  0  1  0  0  0  0  0  0  0  0  0
    0.0603    0.6410    0.6501 H   0  0  0  0  0  0  0  0  0  0  0  0
    1.2216   -1.1654    0.7957 C   0  0  0  0  0  0  0  0  0  0  0  0
    1.2094   -2.1595    0.3454 H   0  0  0  0  0  0  0  0  0  0  0  0
    2.2112   -0.7354    0.6266 H   0  0  0  0  0  0  0  0  0  0  0  0
    0.9949   -1.3366    2.3059 C   0  0  0  0  0  0  0  0  0  0  0  0
    0.4184   -0.4170    2.9332 O   0  5  0  0  0  0  0  0  0  0  0  0
    1.4222   -2.3888    2.8280 O   0  0  0  0  0  0  0  0  0  0  0  0
    0.5874    0.0731   -1.3592 C   0  0  0  0  0  0  0  0  0  0  0  0
    1.7525    0.4033   -1.6105 O   0  0  0  0  0  0  0  0  0  0  0  0
   -0.3434   -0.0016   -2.3156 N   0  0  0  0  0  0  0  0  0  0  0  0
   -1.2940   -0.1978   -1.9962 H   0  0  0  0  0  0  0  0  0  0  0  0
   -0.1305    0.3157   -3.7237 C   0  0  0  0  0  0  0  0  0  0  0  0
    0.8041   -0.1316   -4.0644 H   0  0  0  0  0  0  0  0  0  0  0  0
   -0.9596   -0.0718   -4.3152 H   0  0  0  0  0  0  0  0  0  0  0  0
   -0.0731    1.3978   -3.8434 H   0  0  0  0  0  0  0  0  0  0  0  0
  5  6  2  0  0  0  0
  5  7  1  0  0  0  0
  2  3  1  0  0  0  0
  2  4  1  0  0  0  0
  2  5  1  0  0  0  0
  1  2  1  0  0  0  0
 17 18  2  0  0  0  0
 17 19  1  0  0  0  0
 14 15  1  0  0  0  0
 14 16  2  0  0  0  0
 11 12  1  0  0  0  0
 11 13  1  0  0  0  0
 11 14  1  0  0  0  0
  9 10  1  0  0  0  0
  9 11  1  0  0  0  0
  9 17  1  0  0  0  0
  7  8  1  0  0  0  0
  7  9  1  0  0  0  0
 21 22  1  0  0  0  0
 21 23  1  0  0  0  0
 21 24  1  0  0  0  0
 19 20  1  0  0  0  0
 19 21  1  0  0  0  0
M  CHG  1  15  -1
M  END
$$$$
default_name
  -OEChem-01062215323D

 24 23  0     1  0  0  0  0  0999 V2000
   -2.8347   -3.7166    0.8034 H   0  0  0  0  0  0  0  0  0  0  0  0
   -2.7728   -2.7096    0.3954 C   0  0  0  0  0  0  0  0  0  0  0  0
   -3.4267   -2.0426    0.9524 H   0  0  0  0  0  0  0  0  0  0  0  0
   -3.0538   -2.7186   -0.6556 H   0  0  0  0  0  0  0  0  0  0  0  0
   -1.3498   -2.2206    0.5184 C   0  0  0  0  0  0  0  0  0  0  0  0
   -0.4997   -2.9426    1.0194 O   0  0  0  0  0  0  0  0  0  0  0  0
   -1.1198   -0.9926    0.0674 N   0  0  0  0  0  0  0  0  0  0  0  0
   -1.8978   -0.4486   -0.2716 H   0  0  0  0  0  0  0  0  0  0  0  0
    0.1693   -0.2866    0.0854 C   0  0  1  0  0  0  0  0  0  0  0  0
    0.0603    0.6410    0.6501 H   0  0  0  0  0  0  0  0  0  0  0  0
    1.2216   -1.1654    0.7957 C   0  0  0  0  0  0  0  0  0  0  0  0
    1.2094   -2.1595    0.3454 H   0  0  0  0  0  0  0  0  0  0  0  0
    2.2112   -0.7354    0.6266 H   0  0  0  0  0  0  0  0  0  0  0  0
    0.9949   -1.3366    2.3059 C   0  0  0  0  0  0  0  0  0  0  0  0
    0.4184   -0.4170    2.9332 O   0  5  0  0  0  0  0  0  0  0  0  0
    1.4222   -2.3888    2.8280 O   0  0  0  0  0  0  0  0  0  0  0  0
    0.5874    0.0731   -1.3592 C   0  0  0  0  0  0  0  0  0  0  0  0
    1.7833    0.1329   -1.6689 O   0  0  0  0  0  0  0  0  0  0  0  0
   -0.3816    0.2979   -2.2520 N   0  0  0  0  0  0  0  0  0  0  0  0
   -1.3335    0.3111   -1.8809 H   0  0  0  0  0  0  0  0  0  0  0  0
   -0.1707    0.6630   -3.6488 C   0  0  0  0  0  0  0  0  0  0  0  0
    0.6077    0.0324   -4.0804 H   0  0  0  0  0  0  0  0  0  0  0  0
   -1.0986    0.5324   -4.2050 H   0  0  0  0  0  0  0  0  0  0  0  0
    0.1426    1.7057   -3.7043 H   0  0  0  0  0  0  0  0  0  0  0  0
  5  6  2  0  0  0  0
  5  7  1  0  0  0  0
  2  3  1  0  0  0  0
  2  4  1  0  0  0  0
  2  5  1  0  0  0  0
  1  2  1  0  0  0  0
 17 18  2  0  0  0  0
 17 19  1  0  0  0  0
 14 15  1  0  0  0  0
 14 16  2  0  0  0  0
 11 12  1  0  0  0  0
 11 13  1  0  0  0  0
 11 14  1  0  0  0  0
  9 10  1  0  0  0  0
  9 11  1  0  0  0  0
  9 17  1  0  0  0  0
  7  8  1  0  0  0  0
  7  9  1  0  0  0  0
 21 22  1  0  0  0  0
 21 23  1  0  0  0  0
 21 24  1  0  0  0  0
 19 20  1  0  0  0  0
 19 21  1  0  0  0  0
M  CHG  1  15  -1
M  END
$$$$
default_name
  -OEChem-01062215323D

 24 23  0     1  0  0  0  0  0999 V2000
   -2.8347   -3.7166    0.8034 H   0  0  0  0  0  0  0  0  0  0  0  0
   -2.7728   -2.7096    0.3954 C   0  0  0  0  0  0  0  0  0  0  0  0
   -3.4267   -2.0426    0.9524 H   0  0  0  0  0  0  0  0  0  0  0  0
   -3.0538   -2.7186   -0.6556 H   0  0  0  0  0  0  0  0  0  0  0  0
   -1.3498   -2.2206    0.5184 C   0  0  0  0  0  0  0  0  0  0  0  0
   -0.4997   -2.9426    1.0194 O   0  0  0  0  0  0  0  0  0  0  0  0
   -1.1198   -0.9926    0.0674 N   0  0  0  0  0  0  0  0  0  0  0  0
   -1.8978   -0.4486   -0.2716 H   0  0  0  0  0  0  0  0  0  0  0  0
    0.1693   -0.2866    0.0854 C   0  0  1  0  0  0  0  0  0  0  0  0
    0.0603    0.6410    0.6501 H   0  0  0  0  0  0  0  0  0  0  0  0
    1.2216   -1.1654    0.7957 C   0  0  0  0  0  0  0  0  0  0  0  0
    1.2094   -2.1595    0.3454 H   0  0  0  0  0  0  0  0  0  0  0  0
    2.2112   -0.7354    0.6266 H   0  0  0  0  0  0  0  0  0  0  0  0
    0.9949   -1.3366    2.3059 C   0  0  0  0  0  0  0  0  0  0  0  0
    0.4184   -0.4170    2.9332 O   0  5  0  0  0  0  0  0  0  0  0  0
    1.4222   -2.3888    2.8280 O   0  0  0  0  0  0  0  0  0  0  0  0
    0.5874    0.0731   -1.3592 C   0  0  0  0  0  0  0  0  0  0  0  0
    1.7441   -0.1317   -1.7461 O   0  0  0  0  0  0  0  0  0  0  0  0
   -0.3423    0.5920   -2.1674 N   0  0  0  0  0  0  0  0  0  0  0  0
   -1.2417    0.8042   -1.7316 H   0  0  0  0  0  0  0  0  0  0  0  0
   -0.1210    1.0028   -3.5498 C   0  0  0  0  0  0  0  0  0  0  0  0
    0.4567    0.2395   -4.0726 H   0  0  0  0  0  0  0  0  0  0  0  0
   -1.0802    1.1419   -4.0478 H   0  0  0  0  0  0  0  0  0  0  0  0
    0.4339    1.9411   -3.5613 H   0  0  0  0  0  0  0  0  0  0  0  0
  5  6  2  0  0  0  0
  5  7  1  0  0  0  0
  2  3  1  0  0  0  0
  2  4  1  0  0  0  0
  2  5  1  0  0  0  0
  1  2  1  0  0  0  0
 17 18  2  0  0  0  0
 17 19  1  0  0  0  0
 14 15  1  0  0  0  0
 14 16  2  0  0  0  0
 11 12  1  0  0  0  0
 11 13  1  0  0  0  0
 11 14  1  0  0  0  0
  9 10  1  0  0  0  0
  9 11  1  0  0  0  0
  9 17  1  0  0  0  0
  7  8  1  0  0  0  0
  7  9  1  0  0  0  0
 21 22  1  0  0  0  0
 21 23  1  0  0  0  0
 21 24  1  0  0  0  0
 19 20  1  0  0  0  0
 19 21  1  0  0  0  0
M  CHG  1  15  -1
M  END
$$$$
default_name
  -OEChem-01062215323D

 24 23  0     1  0  0  0  0  0999 V2000
   -2.8347   -3.7166    0.8034 H   0  0  0  0  0  0  0  0  0  0  0  0
   -2.7728   -2.7096    0.3954 C   0  0  0  0  0  0  0  0  0  0  0  0
   -3.4267   -2.0426    0.9524 H   0  0  0  0  0  0  0  0  0  0  0  0
   -3.0538   -2.7186   -0.6556 H   0  0  0  0  0  0  0  0  0  0  0  0
   -1.3498   -2.2206    0.5184 C   0  0  0  0  0  0  0  0  0  0  0  0
   -0.4997   -2.9426    1.0194 O   0  0  0  0  0  0  0  0  0  0  0  0
   -1.1198   -0.9926    0.0674 N   0  0  0  0  0  0  0  0  0  0  0  0
   -1.8978   -0.4486   -0.2716 H   0  0  0  0  0  0  0  0  0  0  0  0
    0.1693   -0.2866    0.0854 C   0  0  1  0  0  0  0  0  0  0  0  0
    0.0603    0.6410    0.6501 H   0  0  0  0  0  0  0  0  0  0  0  0
    1.2216   -1.1654    0.7957 C   0  0  0  0  0  0  0  0  0  0  0  0
    1.2094   -2.1595    0.3454 H   0  0  0  0  0  0  0  0  0  0  0  0
    2.2112   -0.7354    0.6266 H   0  0  0  0  0  0  0  0  0  0  0  0
    0.9949   -1.3366    2.3059 C   0  0  0  0  0  0  0  0  0  0  0  0
    0.4184   -0.4170    2.9332 O   0  5  0  0  0  0  0  0  0  0  0  0
    1.4222   -2.3888    2.8280 O   0  0  0  0  0  0  0  0  0  0  0  0
    0.5874    0.0731   -1.3592 C   0  0  0  0  0  0  0  0  0  0  0  0
    1.6376   -0.3723   -1.8369 O   0  0  0  0  0  0  0  0  0  0  0  0
   -0.2281    0.8606   -2.0675 N   0  0  0  0  0  0  0  0  0  0  0  0
   -1.0249    1.2478   -1.5583 H   0  0  0  0  0  0  0  0  0  0  0  0
    0.0151    1.3122   -3.4334 C   0  0  0  0  0  0  0  0  0  0  0  0
    0.3614    0.4754   -4.0414 H   0  0  0  0  0  0  0  0  0  0  0  0
   -0.9055    1.7152   -3.8545 H   0  0  0  0  0  0  0  0  0  0  0  0
    0.7808    2.0882   -3.4243 H   0  0  0  0  0  0  0  0  0  0  0  0
  5  6  2  0  0  0  0
  5  7  1  0  0  0  0
  2  3  1  0  0  0  0
  2  4  1  0  0  0  0
  2  5  1  0  0  0  0
  1  2  1  0  0  0  0
 17 18  2  0  0  0  0
 17 19  1  0  0  0  0
 14 15  1  0  0  0  0
 14 16  2  0  0  0  0
 11 12  1  0  0  0  0
 11 13  1  0  0  0  0
 11 14  1  0  0  0  0
  9 10  1  0  0  0  0
  9 11  1  0  0  0  0
  9 17  1  0  0  0  0
  7  8  1  0  0  0  0
  7  9  1  0  0  0  0
 21 22  1  0  0  0  0
 21 23  1  0  0  0  0
 21 24  1  0  0  0  0
 19 20  1  0  0  0  0
 19 21  1  0  0  0  0
M  CHG  1  15  -1
M  END
$$$$
default_name
  -OEChem-01062215323D

 24 23  0     1  0  0  0  0  0999 V2000
   -2.8347   -3.7166    0.8034 H   0  0  0  0  0  0  0  0  0  0  0  0
   -2.7728   -2.7096    0.3954 C   0  0  0  0  0  0  0  0  0  0  0  0
   -3.4267   -2.0426    0.9524 H   0  0  0  0  0  0  0  0  0  0  0  0
   -3.0538   -2.7186   -0.6556 H   0  0  0  0  0  0  0  0  0  0  0  0
   -1.3498   -2.2206    0.5184 C   0  0  0  0  0  0  0  0  0  0  0  0
   -0.4997   -2.9426    1.0194 O   0  0  0  0  0  0  0  0  0  0  0  0
   -1.1198   -0.9926    0.0674 N   0  0  0  0  0  0  0  0  0  0  0  0
   -1.8978   -0.4486   -0.2716 H   0  0  0  0  0  0  0  0  0  0  0  0
    0.1693   -0.2866    0.0854 C   0  0  1  0  0  0  0  0  0  0  0  0
    0.0603    0.6410    0.6501 H   0  0  0  0  0  0  0  0  0  0  0  0
    1.2216   -1.1654    0.7957 C   0  0  0  0  0  0  0  0  0  0  0  0
    1.2094   -2.1595    0.3454 H   0  0  0  0  0  0  0  0  0  0  0  0
    2.2112   -0.7354    0.6266 H   0  0  0  0  0  0  0  0  0  0  0  0
    0.9949   -1.3366    2.3059 C   0  0  0  0  0  0  0  0  0  0  0  0
    0.4184   -0.4170    2.9332 O   0  5  0  0  0  0  0  0  0  0  0  0
    1.4222   -2.3888    2.8280 O   0  0  0  0  0  0  0  0  0  0  0  0
    0.5874    0.0731   -1.3592 C   0  0  0  0  0  0  0  0  0  0  0  0
    1.4712   -0.5727   -1.9349 O   0  0  0  0  0  0  0  0  0  0  0  0
   -0.0468    1.0855   -1.9590 N   0  0  0  0  0  0  0  0  0  0  0  0
   -0.6977    1.6117   -1.3730 H   0  0  0  0  0  0  0  0  0  0  0  0
    0.2284    1.5700   -3.3074 C   0  0  0  0  0  0  0  0  0  0  0  0
    0.3283    0.7242   -3.9890 H   0  0  0  0  0  0  0  0  0  0  0  0
   -0.5866    2.2132   -3.6382 H   0  0  0  0  0  0  0  0  0  0  0  0
    1.1596    2.1367   -3.3025 H   0  0  0  0  0  0  0  0  0  0  0  0
  5  6  2  0  0  0  0
  5  7  1  0  0  0  0
  2  3  1  0  0  0  0
  2  4  1  0  0  0  0
  2  5  1  0  0  0  0
  1  2  1  0  0  0  0
 17 18  2  0  0  0  0
 17 19  1  0  0  0  0
 14 15  1  0  0  0  0
 14 16  2  0  0  0  0
 11 12  1  0  0  0  0
 11 13  1  0  0  0  0
 11 14  1  0  0  0  0
  9 10  1  0  0  0  0
  9 11  1  0  0  0  0
  9 17  1  0  0  0  0
  7  8  1  0  0  0  0
  7  9  1  0  0  0  0
 21 22  1  0  0  0  0
 21 23  1  0  0  0  0
 21 24  1  0  0  0  0
 19 20  1  0  0  0  0
 19 21  1  0  0  0  0
M  CHG  1  15  -1
M  END
$$$$
default_name
  -OEChem-01062215323D

 24 23  0     1  0  0  0  0  0999 V2000
   -2.8347   -3.7166    0.8034 H   0  0  0  0  0  0  0  0  0  0  0  0
   -2.7728   -2.7096    0.3954 C   0  0  0  0  0  0  0  0  0  0  0  0
   -3.4267   -2.0426    0.9524 H   0  0  0  0  0  0  0  0  0  0  0  0
   -3.0538   -2.7186   -0.6556 H   0  0  0  0  0  0  0  0  0  0  0  0
   -1.3498   -2.2206    0.5184 C   0  0  0  0  0  0  0  0  0  0  0  0
   -0.4997   -2.9426    1.0194 O   0  0  0  0  0  0  0  0  0  0  0  0
   -1.1198   -0.9926    0.0674 N   0  0  0  0  0  0  0  0  0  0  0  0
   -1.8978   -0.4486   -0.2716 H   0  0  0  0  0  0  0  0  0  0  0  0
    0.1693   -0.2866    0.0854 C   0  0  1  0  0  0  0  0  0  0  0  0
    0.0603    0.6410    0.6501 H   0  0  0  0  0  0  0  0  0  0  0  0
    1.2216   -1.1654    0.7957 C   0  0  0  0  0  0  0  0  0  0  0  0
    1.2094   -2.1595    0.3454 H   0  0  0  0  0  0  0  0  0  0  0  0
    2.2112   -0.7354    0.6266 H   0  0  0  0  0  0  0  0  0  0  0  0
    0.9949   -1.3366    2.3059 C   0  0  0  0  0  0  0  0  0  0  0  0
    0.4184   -0.4170    2.9332 O   0  5  0  0  0  0  0  0  0  0  0  0
    1.4222   -2.3888    2.8280 O   0  0  0  0  0  0  0  0  0  0  0  0
    0.5874    0.0731   -1.3592 C   0  0  0  0  0  0  0  0  0  0  0  0
    1.2560   -0.7191   -2.0337 O   0  0  0  0  0  0  0  0  0  0  0  0
    0.1893    1.2512   -1.8494 N   0  0  0  0  0  0  0  0  0  0  0  0
   -0.2825    1.8712   -1.1882 H   0  0  0  0  0  0  0  0  0  0  0  0
    0.5043    1.7586   -3.1806 C   0  0  0  0  0  0  0  0  0  0  0  0
    0.3596    0.9689   -3.9190 H   0  0  0  0  0  0  0  0  0  0  0  0
   -0.1451    2.6020   -3.4136 H   0  0  0  0  0  0  0  0  0  0  0  0
    1.5447    2.0835   -3.2043 H   0  0  0  0  0  0  0  0  0  0  0  0
  5  6  2  0  0  0  0
  5  7  1  0  0  0  0
  2  3  1  0  0  0  0
  2  4  1  0  0  0  0
  2  5  1  0  0  0  0
  1  2  1  0  0  0  0
 17 18  2  0  0  0  0
 17 19  1  0  0  0  0
 14 15  1  0  0  0  0
 14 16  2  0  0  0  0
 11 12  1  0  0  0  0
 11 13  1  0  0  0  0
 11 14  1  0  0  0  0
  9 10  1  0  0  0  0
  9 11  1  0  0  0  0
  9 17  1  0  0  0  0
  7  8  1  0  0  0  0
  7  9  1  0  0  0  0
 21 22  1  0  0  0  0
 21 23  1  0  0  0  0
 21 24  1  0  0  0  0
 19 20  1  0  0  0  0
 19 21  1  0  0  0  0
M  CHG  1  15  -1
M  END
$$$$
default_name
  -OEChem-01062215323D

 24 23  0     1  0  0  0  0  0999 V2000
   -2.8347   -3.7166    0.8034 H   0  0  0  0  0  0  0  0  0  0  0  0
   -2.7728   -2.7096    0.3954 C   0  0  0  0  0  0  0  0  0  0  0  0
   -3.4267   -2.0426    0.9524 H   0  0  0  0  0  0  0  0  0  0  0  0
   -3.0538   -2.7186   -0.6556 H   0  0  0  0  0  0  0  0  0  0  0  0
   -1.3498   -2.2206    0.5184 C   0  0  0  0  0  0  0  0  0  0  0  0
   -0.4997   -2.9426    1.0194 O   0  0  0  0  0  0  0  0  0  0  0  0
   -1.1198   -0.9926    0.0674 N   0  0  0  0  0  0  0  0  0  0  0  0
   -1.8978   -0.4486   -0.2716 H   0  0  0  0  0  0  0  0  0  0  0  0
    0.1693   -0.2866    0.0854 C   0  0  1  0  0  0  0  0  0  0  0  0
    0.0603    0.6410    0.6501 H   0  0  0  0  0  0  0  0  0  0  0  0
    1.2216   -1.1654    0.7957 C   0  0  0  0  0  0  0  0  0  0  0  0
    1.2094   -2.1595    0.3454 H   0  0  0  0  0  0  0  0  0  0  0  0
    2.2112   -0.7354    0.6266 H   0  0  0  0  0  0  0  0  0  0  0  0
    0.9949   -1.3366    2.3059 C   0  0  0  0  0  0  0  0  0  0  0  0
    0.4184   -0.4170    2.9332 O   0  5  0  0  0  0  0  0  0  0  0  0
    1.4222   -2.3888    2.8280 O   0  0  0  0  0  0  0  0  0  0  0  0
    0.5874    0.0731   -1.3592 C   0  0  0  0  0  0  0  0  0  0  0  0
    1.0068   -0.8015   -2.1264 O   0  0  0  0  0  0  0  0  0  0  0  0
    0.4639    1.3466   -1.7461 N   0  0  0  0  0  0  0  0  0  0  0  0
    0.1924    2.0085   -1.0165 H   0  0  0  0  0  0  0  0  0  0  0  0
    0.8241    1.8651   -3.0615 C   0  0  0  0  0  0  0  0  0  0  0  0
    0.4532    1.1928   -3.8362 H   0  0  0  0  0  0  0  0  0  0  0  0
    0.3889    2.8550   -3.1960 H   0  0  0  0  0  0  0  0  0  0  0  0
    1.9096    1.9321   -3.1364 H   0  0  0  0  0  0  0  0  0  0  0  0
  5  6  2  0  0  0  0
  5  7  1  0  0  0  0
  2  3  1  0  0  0  0
  2  4  1  0  0  0  0
  2  5  1  0  0  0  0
  1  2  1  0  0  0  0
 17 18  2  0  0  0  0
 17 19  1  0  0  0  0
 14 15  1  0  0  0  0
 14 16  2  0  0  0  0
 11 12  1  0  0  0  0
 11 13  1  0  0  0  0
 11 14  1  0  0  0  0
  9 10  1  0  0  0  0
  9 11  1  0  0  0  0
  9 17  1  0  0  0  0
  7  8  1  0  0  0  0
  7  9  1  0  0  0  0
 21 22  1  0  0  0  0
 21 23  1  0  0  0  0
 21 24  1  0  0  0  0
 19 20  1  0  0  0  0
 19 21  1  0  0  0  0
M  CHG  1  15  -1
M  END
$$$$
default_name
  -OEChem-01062215323D

 24 23  0     1  0  0  0  0  0999 V2000
   -2.8347   -3.7166    0.8034 H   0  0  0  0  0  0  0  0  0  0  0  0
   -2.7728   -2.7096    0.3954 C   0  0  0  0  0  0  0  0  0  0  0  0
   -3.4267   -2.0426    0.9524 H   0  0  0  0  0  0  0  0  0  0  0  0
   -3.0538   -2.7186   -0.6556 H   0  0  0  0  0  0  0  0  0  0  0  0
   -1.3498   -2.2206    0.5184 C   0  0  0  0  0  0  0  0  0  0  0  0
   -0.4997   -2.9426    1.0194 O   0  0  0  0  0  0  0  0  0  0  0  0
   -1.1198   -0.9926    0.0674 N   0  0  0  0  0  0  0  0  0  0  0  0
   -1.8978   -0.4486   -0.2716 H   0  0  0  0  0  0  0  0  0  0  0  0
    0.1693   -0.2866    0.0854 C   0  0  1  0  0  0  0  0  0  0  0  0
    0.0603    0.6410    0.6501 H   0  0  0  0  0  0  0  0  0  0  0  0
    1.2216   -1.1654    0.7957 C   0  0  0  0  0  0  0  0  0  0  0  0
    1.2094   -2.1595    0.3454 H   0  0  0  0  0  0  0  0  0  0  0  0
    2.2112   -0.7354    0.6266 H   0  0  0  0  0  0  0  0  0  0  0  0
    0.9949   -1.3366    2.3059 C   0  0  0  0  0  0  0  0  0  0  0  0
    0.4184   -0.4170    2.9332 O   0  5  0  0  0  0  0  0  0  0  0  0
    1.4222   -2.3888    2.8280 O   0  0  0  0  0  0  0  0  0  0  0  0
    0.5874    0.0731   -1.3592 C   0  0  0  0  0  0  0  0  0  0  0  0
    0.7406   -0.8145   -2.2066 O   0  0  0  0  0  0  0  0  0  0  0  0
    0.7585    1.3651   -1.6562 N   0  0  0  0  0  0  0  0  0  0  0  0
    0.6947    2.0142   -0.8697 H   0  0  0  0  0  0  0  0  0  0  0  0
    1.1659    1.8824   -2.9582 C   0  0  0  0  0  0  0  0  0  0  0  0
    0.6027    1.3806   -3.7461 H   0  0  0  0  0  0  0  0  0  0  0  0
    0.9790    2.9551   -3.0002 H   0  0  0  0  0  0  0  0  0  0  0  0
    2.2296    1.6929   -3.1033 H   0  0  0  0  0  0  0  0  0  0  0  0
  5  6  2  0  0  0  0
  5  7  1  0  0  0  0
  2  3  1  0  0  0  0
  2  4  1  0  0  0  0
  2  5  1  0  0  0  0
  1  2  1  0  0  0  0
 17 18  2  0  0  0  0
 17 19  1  0  0  0  0
 14 15  1  0  0  0  0
 14 16  2  0  0  0  0
 11 12  1  0  0  0  0
 11 13  1  0  0  0  0
 11 14  1  0  0  0  0
  9 10  1  0  0  0  0
  9 11  1  0  0  0  0
  9 17  1  0  0  0  0
  7  8  1  0  0  0  0
  7  9  1  0  0  0  0
 21 22  1  0  0  0  0
 21 23  1  0  0  0  0
 21 24  1  0  0  0  0
 19 20  1  0  0  0  0
 19 21  1  0  0  0  0
M  CHG  1  15  -1
M  END
$$$$
default_name
  -OEChem-01062215323D

 24 23  0     1  0  0  0  0  0999 V2000
   -2.8347   -3.7166    0.8034 H   0  0  0  0  0  0  0  0  0  0  0  0
   -2.7728   -2.7096    0.3954 C   0  0  0  0  0  0  0  0  0  0  0  0
   -3.4267   -2.0426    0.9524 H   0  0  0  0  0  0  0  0  0  0  0  0
   -3.0538   -2.7186   -0.6556 H   0  0  0  0  0  0  0  0  0  0  0  0
   -1.3498   -2.2206    0.5184 C   0  0  0  0  0  0  0  0  0  0  0  0
   -0.4997   -2.9426    1.0194 O   0  0  0  0  0  0  0  0  0  0  0  0
   -1.1198   -0.9926    0.0674 N   0  0  0  0  0  0  0  0  0  0  0  0
   -1.8978   -0.4486   -0.2716 H   0  0  0  0  0  0  0  0  0  0  0  0
    0.1693   -0.2866    0.0854 C   0  0  1  0  0  0  0  0  0  0  0  0
    0.0603    0.6410    0.6501 H   0  0  0  0  0  0  0  0  0  0  0  0
    1.2216   -1.1654    0.7957 C   0  0  0  0  0  0  0  0  0  0  0  0
    1.2094   -2.1595    0.3454 H   0  0  0  0  0  0  0  0  0  0  0  0
    2.2112   -0.7354    0.6266 H   0  0  0  0  0  0  0  0  0  0  0  0
    0.9949   -1.3366    2.3059 C   0  0  0  0  0  0  0  0  0  0  0  0
    0.4184   -0.4170    2.9332 O   0  5  0  0  0  0  0  0  0  0  0  0
    1.4222   -2.3888    2.8280 O   0  0  0  0  0  0  0  0  0  0  0  0
    0.5874    0.0731   -1.3592 C   0  0  0  0  0  0  0  0  0  0  0  0
    0.4756   -0.7570   -2.2691 O   0  0  0  0  0  0  0  0  0  0  0  0
    1.0529    1.3055   -1.5858 N   0  0  0  0  0  0  0  0  0  0  0  0
    1.1900    1.8881   -0.7577 H   0  0  0  0  0  0  0  0  0  0  0  0
    1.5064    1.8092   -2.8779 C   0  0  0  0  0  0  0  0  0  0  0  0
    0.7980    1.5195   -3.6550 H   0  0  0  0  0  0  0  0  0  0  0  0
    1.5849    2.8954   -2.8397 H   0  0  0  0  0  0  0  0  0  0  0  0
    2.4829    1.3821   -3.1074 H   0  0  0  0  0  0  0  0  0  0  0  0
  5  6  2  0  0  0  0
  5  7  1  0  0  0  0
  2  3  1  0  0  0  0
  2  4  1  0  0  0  0
  2  5  1  0  0  0  0
  1  2  1  0  0  0  0
 17 18  2  0  0  0  0
 17 19  1  0  0  0  0
 14 15  1  0  0  0  0
 14 16  2  0  0  0  0
 11 12  1  0  0  0  0
 11 13  1  0  0  0  0
 11 14  1  0  0  0  0
  9 10  1  0  0  0  0
  9 11  1  0  0  0  0
  9 17  1  0  0  0  0
  7  8  1  0  0  0  0
  7  9  1  0  0  0  0
 21 22  1  0  0  0  0
 21 23  1  0  0  0  0
 21 24  1  0  0  0  0
 19 20  1  0  0  0  0
 19 21  1  0  0  0  0
M  CHG  1  15  -1
M  END
$$$$
default_name
  -OEChem-01062215323D

 24 23  0     1  0  0  0  0  0999 V2000
   -2.8347   -3.7166    0.8034 H   0  0  0  0  0  0  0  0  0  0  0  0
   -2.7728   -2.7096    0.3954 C   0  0  0  0  0  0  0  0  0  0  0  0
   -3.4267   -2.0426    0.9524 H   0  0  0  0  0  0  0  0  0  0  0  0
   -3.0538   -2.7186   -0.6556 H   0  0  0  0  0  0  0  0  0  0  0  0
   -1.3498   -2.2206    0.5184 C   0  0  0  0  0  0  0  0  0  0  0  0
   -0.4997   -2.9426    1.0194 O   0  0  0  0  0  0  0  0  0  0  0  0
   -1.1198   -0.9926    0.0674 N   0  0  0  0  0  0  0  0  0  0  0  0
   -1.8978   -0.4486   -0.2716 H   0  0  0  0  0  0  0  0  0  0  0  0
    0.1693   -0.2866    0.0854 C   0  0  1  0  0  0  0  0  0  0  0  0
    0.0603    0.6410    0.6501 H   0  0  0  0  0  0  0  0  0  0  0  0
    1.2216   -1.1654    0.7957 C   0  0  0  0  0  0  0  0  0  0  0  0
    1.2094   -2.1595    0.3454 H   0  0  0  0  0  0  0  0  0  0  0  0
    2.2112   -0.7354    0.6266 H   0  0  0  0  0  0  0  0  0  0  0  0
    0.9949   -1.3366    2.3059 C   0  0  0  0  0  0  0  0  0  0  0  0
    0.4184   -0.4170    2.9332 O   0  5  0  0  0  0  0  0  0  0  0  0
    1.4222   -2.3888    2.8280 O   0  0  0  0  0  0  0  0  0  0  0  0
    0.5874    0.0731   -1.3592 C   0  0  0  0  0  0  0  0  0  0  0  0
    0.2296   -0.6330   -2.3094 O   0  0  0  0  0  0  0  0  0  0  0  0
    1.3272    1.1717   -1.5398 N   0  0  0  0  0  0  0  0  0  0  0  0
    1.6448    1.6386   -0.6882 H   0  0  0  0  0  0  0  0  0  0  0  0
    1.8225    1.6506   -2.8259 C   0  0  0  0  0  0  0  0  0  0  0  0
    1.0257    1.6001   -3.5690 H   0  0  0  0  0  0  0  0  0  0  0  0
    2.1655    2.6800   -2.7253 H   0  0  0  0  0  0  0  0  0  0  0  0
    2.6521    1.0210   -3.1483 H   0  0  0  0  0  0  0  0  0  0  0  0
  5  6  2  0  0  0  0
  5  7  1  0  0  0  0
  2  3  1  0  0  0  0
  2  4  1  0  0  0  0
  2  5  1  0  0  0  0
  1  2  1  0  0  0  0
 17 18  2  0  0  0  0
 17 19  1  0  0  0  0
 14 15  1  0  0  0  0
 14 16  2  0  0  0  0
 11 12  1  0  0  0  0
 11 13  1  0  0  0  0
 11 14  1  0  0  0  0
  9 10  1  0  0  0  0
  9 11  1  0  0  0  0
  9 17  1  0  0  0  0
  7  8  1  0  0  0  0
  7  9  1  0  0  0  0
 21 22  1  0  0  0  0
 21 23  1  0  0  0  0
 21 24  1  0  0  0  0
 19 20  1  0  0  0  0
 19 21  1  0  0  0  0
M  CHG  1  15  -1
M  END
$$$$
default_name
  -OEChem-01062215323D

 24 23  0     1  0  0  0  0  0999 V2000
   -2.8347   -3.7166    0.8034 H   0  0  0  0  0  0  0  0  0  0  0  0
   -2.7728   -2.7096    0.3954 C   0  0  0  0  0  0  0  0  0  0  0  0
   -3.4267   -2.0426    0.9524 H   0  0  0  0  0  0  0  0  0  0  0  0
   -3.0538   -2.7186   -0.6556 H   0  0  0  0  0  0  0  0  0  0  0  0
   -1.3498   -2.2206    0.5184 C   0  0  0  0  0  0  0  0  0  0  0  0
   -0.4997   -2.9426    1.0194 O   0  0  0  0  0  0  0  0  0  0  0  0
   -1.1198   -0.9926    0.0674 N   0  0  0  0  0  0  0  0  0  0  0  0
   -1.8978   -0.4486   -0.2716 H   0  0  0  0  0  0  0  0  0  0  0  0
    0.1693   -0.2866    0.0854 C   0  0  1  0  0  0  0  0  0  0  0  0
    0.0603    0.6410    0.6501 H   0  0  0  0  0  0  0  0  0  0  0  0
    1.2216   -1.1654    0.7957 C   0  0  0  0  0  0  0  0  0  0  0  0
    1.2094   -2.1595    0.3454 H   0  0  0  0  0  0  0  0  0  0  0  0
    2.2112   -0.7354    0.6266 H   0  0  0  0  0  0  0  0  0  0  0  0
    0.9949   -1.3366    2.3059 C   0  0  0  0  0  0  0  0  0  0  0  0
    0.4184   -0.4170    2.9332 O   0  5  0  0  0  0  0  0  0  0  0  0
    1.4222   -2.3888    2.8280 O   0  0  0  0  0  0  0  0  0  0  0  0
    0.5874    0.0731   -1.3592 C   0  0  0  0  0  0  0  0  0  0  0  0
    0.0196   -0.4510   -2.3248 O   0  0  0  0  0  0  0  0  0  0  0  0
    1.5625    0.9730   -1.5211 N   0  0  0  0  0  0  0  0  0  0  0  0
    2.0279    1.2828   -0.6659 H   0  0  0  0  0  0  0  0  0  0  0  0
    2.0926    1.4173   -2.8058 C   0  0  0  0  0  0  0  0  0  0  0  0
    1.2703    1.6169   -3.4940 H   0  0  0  0  0  0  0  0  0  0  0  0
    2.6810    2.3235   -2.6648 H   0  0  0  0  0  0  0  0  0  0  0  0
    2.7258    0.6342   -3.2233 H   0  0  0  0  0  0  0  0  0  0  0  0
  5  6  2  0  0  0  0
  5  7  1  0  0  0  0
  2  3  1  0  0  0  0
  2  4  1  0  0  0  0
  2  5  1  0  0  0  0
  1  2  1  0  0  0  0
 17 18  2  0  0  0  0
 17 19  1  0  0  0  0
 14 15  1  0  0  0  0
 14 16  2  0  0  0  0
 11 12  1  0  0  0  0
 11 13  1  0  0  0  0
 11 14  1  0  0  0  0
  9 10  1  0  0  0  0
  9 11  1  0  0  0  0
  9 17  1  0  0  0  0
  7  8  1  0  0  0  0
  7  9  1  0  0  0  0
 21 22  1  0  0  0  0
 21 23  1  0  0  0  0
 21 24  1  0  0  0  0
 19 20  1  0  0  0  0
 19 21  1  0  0  0  0
M  CHG  1  15  -1
M  END
$$$$
default_name
  -OEChem-01062215323D

 24 23  0     1  0  0  0  0  0999 V2000
   -2.8347   -3.7166    0.8034 H   0  0  0  0  0  0  0  0  0  0  0  0
   -2.7728   -2.7096    0.3954 C   0  0  0  0  0  0  0  0  0  0  0  0
   -3.4267   -2.0426    0.9524 H   0  0  0  0  0  0  0  0  0  0  0  0
   -3.0538   -2.7186   -0.6556 H   0  0  0  0  0  0  0  0  0  0  0  0
   -1.3498   -2.2206    0.5184 C   0  0  0  0  0  0  0  0  0  0  0  0
   -0.4997   -2.9426    1.0194 O   0  0  0  0  0  0  0  0  0  0  0  0
   -1.1198   -0.9926    0.0674 N   0  0  0  0  0  0  0  0  0  0  0  0
   -1.8978   -0.4486   -0.2716 H   0  0  0  0  0  0  0  0  0  0  0  0
    0.1693   -0.2866    0.0854 C   0  0  1  0  0  0  0  0  0  0  0  0
    0.1420    0.4867    0.8551 H   0  0  0  0  0  0  0  0  0  0  0  0
    1.2921   -1.2850    0.4414 C   0  0  0  0  0  0  0  0  0  0  0  0
    1.2127   -2.1511   -0.2179 H   0  0  0  0  0  0  0  0  0  0  0  0
    2.2576   -0.8105    0.2531 H   0  0  0  0  0  0  0  0  0  0  0  0
    1.2535   -1.7982    1.8894 C   0  0  0  0  0  0  0  0  0  0  0  0
    0.7700   -1.0551    2.7757 O   0  5  0  0  0  0  0  0  0  0  0  0
    1.7308   -2.9337    2.1017 O   0  0  0  0  0  0  0  0  0  0  0  0
    0.4080    0.3986   -1.2801 C   0  0  0  0  0  0  0  0  0  0  0  0
   -0.4362    0.3139   -2.1799 O   0  0  0  0  0  0  0  0  0  0  0  0
    1.5402    1.0906   -1.4418 N   0  0  0  0  0  0  0  0  0  0  0  0
    2.2121    1.0293   -0.6745 H   0  0  0  0  0  0  0  0  0  0  0  0
    1.9352    1.7842   -2.6632 C   0  0  0  0  0  0  0  0  0  0  0  0
    1.0863    2.3421   -3.0605 H   0  0  0  0  0  0  0  0  0  0  0  0
    2.7547    2.4688   -2.4461 H   0  0  0  0  0  0  0  0  0  0  0  0
    2.2595    1.0522   -3.4032 H   0  0  0  0  0  0  0  0  0  0  0  0
  5  6  2  0  0  0  0
  5  7  1  0  0  0  0
  2  3  1  0  0  0  0
  2  4  1  0  0  0  0
  2  5  1  0  0  0  0
  1  2  1  0  0  0  0
 17 18  2  0  0  0  0
 17 19  1  0  0  0  0
 14 15  1  0  0  0  0
 14 16  2  0  0  0  0
 11 12  1  0  0  0  0
 11 13  1  0  0  0  0
 11 14  1  0  0  0  0
  9 10  1  0  0  0  0
  9 11  1  0  0  0  0
  9 17  1  0  0  0  0
  7  8  1  0  0  0  0
  7  9  1  0  0  0  0
 21 22  1  0  0  0  0
 21 23  1  0  0  0  0
 21 24  1  0  0  0  0
 19 20  1  0  0  0  0
 19 21  1  0  0  0  0
M  CHG  1  15  -1
M  END
$$$$
default_name
  -OEChem-01062215323D

 24 23  0     1  0  0  0  0  0999 V2000
   -2.8347   -3.7166    0.8034 H   0  0  0  0  0  0  0  0  0  0  0  0
   -2.7728   -2.7096    0.3954 C   0  0  0  0  0  0  0  0  0  0  0  0
   -3.4267   -2.0426    0.9524 H   0  0  0  0  0  0  0  0  0  0  0  0
   -3.0538   -2.7186   -0.6556 H   0  0  0  0  0  0  0  0  0  0  0  0
   -1.3498   -2.2206    0.5184 C   0  0  0  0  0  0  0  0  0  0  0  0
   -0.4997   -2.9426    1.0194 O   0  0  0  0  0  0  0  0  0  0  0  0
   -1.1198   -0.9926    0.0674 N   0  0  0  0  0  0  0  0  0  0  0  0
   -1.8978   -0.4486   -0.2716 H   0  0  0  0  0  0  0  0  0  0  0  0
    0.1693   -0.2866    0.0854 C   0  0  1  0  0  0  0  0  0  0  0  0
    0.1420    0.4867    0.8551 H   0  0  0  0  0  0  0  0  0  0  0  0
    1.2921   -1.2850    0.4414 C   0  0  0  0  0  0  0  0  0  0  0  0
    1.2127   -2.1511   -0.2179 H   0  0  0  0  0  0  0  0  0  0  0  0
    2.2576   -0.8105    0.2531 H   0  0  0  0  0  0  0  0  0  0  0  0
    1.2535   -1.7982    1.8894 C   0  0  0  0  0  0  0  0  0  0  0  0
    0.7700   -1.0551    2.7757 O   0  5  0  0  0  0  0  0  0  0  0  0
    1.7308   -2.9337    2.1017 O   0  0  0  0  0  0  0  0  0  0  0  0
    0.4080    0.3986   -1.2801 C   0  0  0  0  0  0  0  0  0  0  0  0
   -0.5267    0.5551   -2.0746 O   0  0  0  0  0  0  0  0  0  0  0  0
    1.6445    0.8242   -1.5573 N   0  0  0  0  0  0  0  0  0  0  0  0
    2.3643    0.5716   -0.8775 H   0  0  0  0  0  0  0  0  0  0  0  0
    2.0521    1.4745   -2.7982 C   0  0  0  0  0  0  0  0  0  0  0  0
    1.3165    2.2304   -3.0763 H   0  0  0  0  0  0  0  0  0  0  0  0
    3.0263    1.9434   -2.6623 H   0  0  0  0  0  0  0  0  0  0  0  0
    2.1151    0.7286   -3.5908 H   0  0  0  0  0  0  0  0  0  0  0  0
  5  6  2  0  0  0  0
  5  7  1  0  0  0  0
  2  3  1  0  0  0  0
  2  4  1  0  0  0  0
  2  5  1  0  0  0  0
  1  2  1  0  0  0  0
 17 18  2  0  0  0  0
 17 19  1  0  0  0  0
 14 15  1  0  0  0  0
 14 16  2  0  0  0  0
 11 12  1  0  0  0  0
 11 13  1  0  0  0  0
 11 14  1  0  0  0  0
  9 10  1  0  0  0  0
  9 11  1  0  0  0  0
  9 17  1  0  0  0  0
  7  8  1  0  0  0  0
  7  9  1  0  0  0  0
 21 22  1  0  0  0  0
 21 23  1  0  0  0  0
 21 24  1  0  0  0  0
 19 20  1  0  0  0  0
 19 21  1  0  0  0  0
M  CHG  1  15  -1
M  END
$$$$
default_name
  -OEChem-01062215323D

 24 23  0     1  0  0  0  0  0999 V2000
   -2.8347   -3.7166    0.8034 H   0  0  0  0  0  0  0  0  0  0  0  0
   -2.7728   -2.7096    0.3954 C   0  0  0  0  0  0  0  0  0  0  0  0
   -3.4267   -2.0426    0.9524 H   0  0  0  0  0  0  0  0  0  0  0  0
   -3.0538   -2.7186   -0.6556 H   0  0  0  0  0  0  0  0  0  0  0  0
   -1.3498   -2.2206    0.5184 C   0  0  0  0  0  0  0  0  0  0  0  0
   -0.4997   -2.9426    1.0194 O   0  0  0  0  0  0  0  0  0  0  0  0
   -1.1198   -0.9926    0.0674 N   0  0  0  0  0  0  0  0  0  0  0  0
   -1.8978   -0.4486   -0.2716 H   0  0  0  0  0  0  0  0  0  0  0  0
    0.1693   -0.2866    0.0854 C   0  0  1  0  0  0  0  0  0  0  0  0
    0.1420    0.4867    0.8551 H   0  0  0  0  0  0  0  0  0  0  0  0
    1.2921   -1.2850    0.4414 C   0  0  0  0  0  0  0  0  0  0  0  0
    1.2127   -2.1511   -0.2179 H   0  0  0  0  0  0  0  0  0  0  0  0
    2.2576   -0.8105    0.2531 H   0  0  0  0  0  0  0  0  0  0  0  0
    1.2535   -1.7982    1.8894 C   0  0  0  0  0  0  0  0  0  0  0  0
    0.7700   -1.0551    2.7757 O   0  5  0  0  0  0  0  0  0  0  0  0
    1.7308   -2.9337    2.1017 O   0  0  0  0  0  0  0  0  0  0  0  0
    0.4080    0.3986   -1.2801 C   0  0  0  0  0  0  0  0  0  0  0  0
   -0.5469    0.8046   -1.9529 O   0  0  0  0  0  0  0  0  0  0  0  0
    1.6711    0.5476   -1.6915 N   0  0  0  0  0  0  0  0  0  0  0  0
    2.3835    0.1029   -1.1094 H   0  0  0  0  0  0  0  0  0  0  0  0
    2.0788    1.1540   -2.9543 C   0  0  0  0  0  0  0  0  0  0  0  0
    1.5116    2.0704   -3.1225 H   0  0  0  0  0  0  0  0  0  0  0  0
    3.1438    1.3824   -2.9233 H   0  0  0  0  0  0  0  0  0  0  0  0
    1.8802    0.4566   -3.7684 H   0  0  0  0  0  0  0  0  0  0  0  0
  5  6  2  0  0  0  0
  5  7  1  0  0  0  0
  2  3  1  0  0  0  0
  2  4  1  0  0  0  0
  2  5  1  0  0  0  0
  1  2  1  0  0  0  0
 17 18  2  0  0  0  0
 17 19  1  0  0  0  0
 14 15  1  0  0  0  0
 14 16  2  0  0  0  0
 11 12  1  0  0  0  0
 11 13  1  0  0  0  0
 11 14  1  0  0  0  0
  9 10  1  0  0  0  0
  9 11  1  0  0  0  0
  9 17  1  0  0  0  0
  7  8  1  0  0  0  0
  7  9  1  0  0  0  0
 21 22  1  0  0  0  0
 21 23  1  0  0  0  0
 21 24  1  0  0  0  0
 19 20  1  0  0  0  0
 19 21  1  0  0  0  0
M  CHG  1  15  -1
M  END
$$$$
default_name
  -OEChem-01062215323D

 24 23  0     1  0  0  0  0  0999 V2000
   -2.8347   -3.7166    0.8034 H   0  0  0  0  0  0  0  0  0  0  0  0
   -2.7728   -2.7096    0.3954 C   0  0  0  0  0  0  0  0  0  0  0  0
   -3.4267   -2.0426    0.9524 H   0  0  0  0  0  0  0  0  0  0  0  0
   -3.0538   -2.7186   -0.6556 H   0  0  0  0  0  0  0  0  0  0  0  0
   -1.3498   -2.2206    0.5184 C   0  0  0  0  0  0  0  0  0  0  0  0
   -0.4997   -2.9426    1.0194 O   0  0  0  0  0  0  0  0  0  0  0  0
   -1.1198   -0.9926    0.0674 N   0  0  0  0  0  0  0  0  0  0  0  0
   -1.8978   -0.4486   -0.2716 H   0  0  0  0  0  0  0  0  0  0  0  0
    0.1693   -0.2866    0.0854 C   0  0  1  0  0  0  0  0  0  0  0  0
    0.1420    0.4867    0.8551 H   0  0  0  0  0  0  0  0  0  0  0  0
    1.2921   -1.2850    0.4414 C   0  0  0  0  0  0  0  0  0  0  0  0
    1.2127   -2.1511   -0.2179 H   0  0  0  0  0  0  0  0  0  0  0  0
    2.2576   -0.8105    0.2531 H   0  0  0  0  0  0  0  0  0  0  0  0
    1.2535   -1.7982    1.8894 C   0  0  0  0  0  0  0  0  0  0  0  0
    0.7700   -1.0551    2.7757 O   0  5  0  0  0  0  0  0  0  0  0  0
    1.7308   -2.9337    2.1017 O   0  0  0  0  0  0  0  0  0  0  0  0
    0.4080    0.3986   -1.2801 C   0  0  0  0  0  0  0  0  0  0  0  0
   -0.4955    1.0454   -1.8231 O   0  0  0  0  0  0  0  0  0  0  0  0
    1.6182    0.2798   -1.8351 N   0  0  0  0  0  0  0  0  0  0  0  0
    2.2683   -0.3450   -1.3543 H   0  0  0  0  0  0  0  0  0  0  0  0
    2.0133    0.8446   -3.1210 C   0  0  0  0  0  0  0  0  0  0  0  0
    1.6581    1.8732   -3.1958 H   0  0  0  0  0  0  0  0  0  0  0  0
    3.0991    0.8242   -3.2112 H   0  0  0  0  0  0  0  0  0  0  0  0
    1.5708    0.2546   -3.9239 H   0  0  0  0  0  0  0  0  0  0  0  0
  5  6  2  0  0  0  0
  5  7  1  0  0  0  0
  2  3  1  0  0  0  0
  2  4  1  0  0  0  0
  2  5  1  0  0  0  0
  1  2  1  0  0  0  0
 17 18  2  0  0  0  0
 17 19  1  0  0  0  0
 14 15  1  0  0  0  0
 14 16  2  0  0  0  0
 11 12  1  0  0  0  0
 11 13  1  0  0  0  0
 11 14  1  0  0  0  0
  9 10  1  0  0  0  0
  9 11  1  0  0  0  0
  9 17  1  0  0  0  0
  7  8  1  0  0  0  0
  7  9  1  0  0  0  0
 21 22  1  0  0  0  0
 21 23  1  0  0  0  0
 21 24  1  0  0  0  0
 19 20  1  0  0  0  0
 19 21  1  0  0  0  0
M  CHG  1  15  -1
M  END
$$$$
default_name
  -OEChem-01062215323D

 24 23  0     1  0  0  0  0  0999 V2000
   -2.8347   -3.7166    0.8034 H   0  0  0  0  0  0  0  0  0  0  0  0
   -2.7728   -2.7096    0.3954 C   0  0  0  0  0  0  0  0  0  0  0  0
   -3.4267   -2.0426    0.9524 H   0  0  0  0  0  0  0  0  0  0  0  0
   -3.0538   -2.7186   -0.6556 H   0  0  0  0  0  0  0  0  0  0  0  0
   -1.3498   -2.2206    0.5184 C   0  0  0  0  0  0  0  0  0  0  0  0
   -0.4997   -2.9426    1.0194 O   0  0  0  0  0  0  0  0  0  0  0  0
   -1.1198   -0.9926    0.0674 N   0  0  0  0  0  0  0  0  0  0  0  0
   -1.8978   -0.4486   -0.2716 H   0  0  0  0  0  0  0  0  0  0  0  0
    0.1693   -0.2866    0.0854 C   0  0  1  0  0  0  0  0  0  0  0  0
    0.1420    0.4867    0.8551 H   0  0  0  0  0  0  0  0  0  0  0  0
    1.2921   -1.2850    0.4414 C   0  0  0  0  0  0  0  0  0  0  0  0
    1.2127   -2.1511   -0.2179 H   0  0  0  0  0  0  0  0  0  0  0  0
    2.2576   -0.8105    0.2531 H   0  0  0  0  0  0  0  0  0  0  0  0
    1.2535   -1.7982    1.8894 C   0  0  0  0  0  0  0  0  0  0  0  0
    0.7700   -1.0551    2.7757 O   0  5  0  0  0  0  0  0  0  0  0  0
    1.7308   -2.9337    2.1017 O   0  0  0  0  0  0  0  0  0  0  0  0
    0.4080    0.3986   -1.2801 C   0  0  0  0  0  0  0  0  0  0  0  0
   -0.3758    1.2610   -1.6940 O   0  0  0  0  0  0  0  0  0  0  0  0
    1.4894    0.0388   -1.9786 N   0  0  0  0  0  0  0  0  0  0  0  0
    2.0265   -0.7415   -1.5956 H   0  0  0  0  0  0  0  0  0  0  0  0
    1.8603    0.5674   -3.2869 C   0  0  0  0  0  0  0  0  0  0  0  0
    1.7461    1.6522   -3.2914 H   0  0  0  0  0  0  0  0  0  0  0  0
    2.8953    0.3067   -3.5065 H   0  0  0  0  0  0  0  0  0  0  0  0
    1.2079    0.1364   -4.0466 H   0  0  0  0  0  0  0  0  0  0  0  0
  5  6  2  0  0  0  0
  5  7  1  0  0  0  0
  2  3  1  0  0  0  0
  2  4  1  0  0  0  0
  2  5  1  0  0  0  0
  1  2  1  0  0  0  0
 17 18  2  0  0  0  0
 17 19  1  0  0  0  0
 14 15  1  0  0  0  0
 14 16  2  0  0  0  0
 11 12  1  0  0  0  0
 11 13  1  0  0  0  0
 11 14  1  0  0  0  0
  9 10  1  0  0  0  0
  9 11  1  0  0  0  0
  9 17  1  0  0  0  0
  7  8  1  0  0  0  0
  7  9  1  0  0  0  0
 21 22  1  0  0  0  0
 21 23  1  0  0  0  0
 21 24  1  0  0  0  0
 19 20  1  0  0  0  0
 19 21  1  0  0  0  0
M  CHG  1  15  -1
M  END
$$$$
default_name
  -OEChem-01062215323D

 24 23  0     1  0  0  0  0  0999 V2000
   -2.8347   -3.7166    0.8034 H   0  0  0  0  0  0  0  0  0  0  0  0
   -2.7728   -2.7096    0.3954 C   0  0  0  0  0  0  0  0  0  0  0  0
   -3.4267   -2.0426    0.9524 H   0  0  0  0  0  0  0  0  0  0  0  0
   -3.0538   -2.7186   -0.6556 H   0  0  0  0  0  0  0  0  0  0  0  0
   -1.3498   -2.2206    0.5184 C   0  0  0  0  0  0  0  0  0  0  0  0
   -0.4997   -2.9426    1.0194 O   0  0  0  0  0  0  0  0  0  0  0  0
   -1.1198   -0.9926    0.0674 N   0  0  0  0  0  0  0  0  0  0  0  0
   -1.8978   -0.4486   -0.2716 H   0  0  0  0  0  0  0  0  0  0  0  0
    0.1693   -0.2866    0.0854 C   0  0  1  0  0  0  0  0  0  0  0  0
    0.1420    0.4867    0.8551 H   0  0  0  0  0  0  0  0  0  0  0  0
    1.2921   -1.2850    0.4414 C   0  0  0  0  0  0  0  0  0  0  0  0
    1.2127   -2.1511   -0.2179 H   0  0  0  0  0  0  0  0  0  0  0  0
    2.2576   -0.8105    0.2531 H   0  0  0  0  0  0  0  0  0  0  0  0
    1.2535   -1.7982    1.8894 C   0  0  0  0  0  0  0  0  0  0  0  0
    0.7700   -1.0551    2.7757 O   0  5  0  0  0  0  0  0  0  0  0  0
    1.7308   -2.9337    2.1017 O   0  0  0  0  0  0  0  0  0  0  0  0
    0.4080    0.3986   -1.2801 C   0  0  0  0  0  0  0  0  0  0  0  0
   -0.1962    1.4368   -1.5744 O   0  0  0  0  0  0  0  0  0  0  0  0
    1.2935   -0.1587   -2.1120 N   0  0  0  0  0  0  0  0  0  0  0  0
    1.6748   -1.0596   -1.8167 H   0  0  0  0  0  0  0  0  0  0  0  0
    1.6301    0.3412   -3.4407 C   0  0  0  0  0  0  0  0  0  0  0  0
    1.7697    1.4224   -3.4026 H   0  0  0  0  0  0  0  0  0  0  0  0
    2.5463   -0.1347   -3.7891 H   0  0  0  0  0  0  0  0  0  0  0  0
    0.8163    0.1101   -4.1283 H   0  0  0  0  0  0  0  0  0  0  0  0
  5  6  2  0  0  0  0
  5  7  1  0  0  0  0
  2  3  1  0  0  0  0
  2  4  1  0  0  0  0
  2  5  1  0  0  0  0
  1  2  1  0  0  0  0
 17 18  2  0  0  0  0
 17 19  1  0  0  0  0
 14 15  1  0  0  0  0
 14 16  2  0  0  0  0
 11 12  1  0  0  0  0
 11 13  1  0  0  0  0
 11 14  1  0  0  0  0
  9 10  1  0  0  0  0
  9 11  1  0  0  0  0
  9 17  1  0  0  0  0
  7  8  1  0  0  0  0
  7  9  1  0  0  0  0
 21 22  1  0  0  0  0
 21 23  1  0  0  0  0
 21 24  1  0  0  0  0
 19 20  1  0  0  0  0
 19 21  1  0  0  0  0
M  CHG  1  15  -1
M  END
$$$$
default_name
  -OEChem-01062215323D

 24 23  0     1  0  0  0  0  0999 V2000
   -2.8347   -3.7166    0.8034 H   0  0  0  0  0  0  0  0  0  0  0  0
   -2.7728   -2.7096    0.3954 C   0  0  0  0  0  0  0  0  0  0  0  0
   -3.4267   -2.0426    0.9524 H   0  0  0  0  0  0  0  0  0  0  0  0
   -3.0538   -2.7186   -0.6556 H   0  0  0  0  0  0  0  0  0  0  0  0
   -1.3498   -2.2206    0.5184 C   0  0  0  0  0  0  0  0  0  0  0  0
   -0.4997   -2.9426    1.0194 O   0  0  0  0  0  0  0  0  0  0  0  0
   -1.1198   -0.9926    0.0674 N   0  0  0  0  0  0  0  0  0  0  0  0
   -1.8978   -0.4486   -0.2716 H   0  0  0  0  0  0  0  0  0  0  0  0
    0.1693   -0.2866    0.0854 C   0  0  1  0  0  0  0  0  0  0  0  0
    0.1420    0.4867    0.8551 H   0  0  0  0  0  0  0  0  0  0  0  0
    1.2921   -1.2850    0.4414 C   0  0  0  0  0  0  0  0  0  0  0  0
    1.2127   -2.1511   -0.2179 H   0  0  0  0  0  0  0  0  0  0  0  0
    2.2576   -0.8105    0.2531 H   0  0  0  0  0  0  0  0  0  0  0  0
    1.2535   -1.7982    1.8894 C   0  0  0  0  0  0  0  0  0  0  0  0
    0.7700   -1.0551    2.7757 O   0  5  0  0  0  0  0  0  0  0  0  0
    1.7308   -2.9337    2.1017 O   0  0  0  0  0  0  0  0  0  0  0  0
    0.4080    0.3986   -1.2801 C   0  0  0  0  0  0  0  0  0  0  0  0
    0.0312    1.5608   -1.4724 O   0  0  0  0  0  0  0  0  0  0  0  0
    1.0438   -0.2994   -2.2262 N   0  0  0  0  0  0  0  0  0  0  0  0
    1.2369   -1.2776   -2.0027 H   0  0  0  0  0  0  0  0  0  0  0  0
    1.3384    0.1815   -3.5719 C   0  0  0  0  0  0  0  0  0  0  0  0
    1.7272    1.1994   -3.5219 H   0  0  0  0  0  0  0  0  0  0  0  0
    2.0759   -0.4701   -4.0397 H   0  0  0  0  0  0  0  0  0  0  0  0
    0.4227    0.1775   -4.1633 H   0  0  0  0  0  0  0  0  0  0  0  0
  5  6  2  0  0  0  0
  5  7  1  0  0  0  0
  2  3  1  0  0  0  0
  2  4  1  0  0  0  0
  2  5  1  0  0  0  0
  1  2  1  0  0  0  0
 17 18  2  0  0  0  0
 17 19  1  0  0  0  0
 14 15  1  0  0  0  0
 14 16  2  0  0  0  0
 11 12  1  0  0  0  0
 11 13  1  0  0  0  0
 11 14  1  0  0  0  0
  9 10  1  0  0  0  0
  9 11  1  0  0  0  0
  9 17  1  0  0  0  0
  7  8  1  0  0  0  0
  7  9  1  0  0  0  0
 21 22  1  0  0  0  0
 21 23  1  0  0  0  0
 21 24  1  0  0  0  0
 19 20  1  0  0  0  0
 19 21  1  0  0  0  0
M  CHG  1  15  -1
M  END
$$$$
default_name
  -OEChem-01062215323D

 24 23  0     1  0  0  0  0  0999 V2000
   -2.8347   -3.7166    0.8034 H   0  0  0  0  0  0  0  0  0  0  0  0
   -2.7728   -2.7096    0.3954 C   0  0  0  0  0  0  0  0  0  0  0  0
   -3.4267   -2.0426    0.9524 H   0  0  0  0  0  0  0  0  0  0  0  0
   -3.0538   -2.7186   -0.6556 H   0  0  0  0  0  0  0  0  0  0  0  0
   -1.3498   -2.2206    0.5184 C   0  0  0  0  0  0  0  0  0  0  0  0
   -0.4997   -2.9426    1.0194 O   0  0  0  0  0  0  0  0  0  0  0  0
   -1.1198   -0.9926    0.0674 N   0  0  0  0  0  0  0  0  0  0  0  0
   -1.8978   -0.4486   -0.2716 H   0  0  0  0  0  0  0  0  0  0  0  0
    0.1693   -0.2866    0.0854 C   0  0  1  0  0  0  0  0  0  0  0  0
    0.1420    0.4867    0.8551 H   0  0  0  0  0  0  0  0  0  0  0  0
    1.2921   -1.2850    0.4414 C   0  0  0  0  0  0  0  0  0  0  0  0
    1.2127   -2.1511   -0.2179 H   0  0  0  0  0  0  0  0  0  0  0  0
    2.2576   -0.8105    0.2531 H   0  0  0  0  0  0  0  0  0  0  0  0
    1.2535   -1.7982    1.8894 C   0  0  0  0  0  0  0  0  0  0  0  0
    0.7700   -1.0551    2.7757 O   0  5  0  0  0  0  0  0  0  0  0  0
    1.7308   -2.9337    2.1017 O   0  0  0  0  0  0  0  0  0  0  0  0
    0.4080    0.3986   -1.2801 C   0  0  0  0  0  0  0  0  0  0  0  0
    0.2909    1.6244   -1.3950 O   0  0  0  0  0  0  0  0  0  0  0  0
    0.7574   -0.3737   -2.3136 N   0  0  0  0  0  0  0  0  0  0  0  0
    0.7428   -1.3807   -2.1409 H   0  0  0  0  0  0  0  0  0  0  0  0
    1.0051    0.0991   -3.6715 C   0  0  0  0  0  0  0  0  0  0  0  0
    1.6215    0.9986   -3.6412 H   0  0  0  0  0  0  0  0  0  0  0  0
    1.5162   -0.6765   -4.2412 H   0  0  0  0  0  0  0  0  0  0  0  0
    0.0538    0.3339   -4.1493 H   0  0  0  0  0  0  0  0  0  0  0  0
  5  6  2  0  0  0  0
  5  7  1  0  0  0  0
  2  3  1  0  0  0  0
  2  4  1  0  0  0  0
  2  5  1  0  0  0  0
  1  2  1  0  0  0  0
 17 18  2  0  0  0  0
 17 19  1  0  0  0  0
 14 15  1  0  0  0  0
 14 16  2  0  0  0  0
 11 12  1  0  0  0  0
 11 13  1  0  0  0  0
 11 14  1  0  0  0  0
  9 10  1  0  0  0  0
  9 11  1  0  0  0  0
  9 17  1  0  0  0  0
  7  8  1  0  0  0  0
  7  9  1  0  0  0  0
 21 22  1  0  0  0  0
 21 23  1  0  0  0  0
 21 24  1  0  0  0  0
 19 20  1  0  0  0  0
 19 21  1  0  0  0  0
M  CHG  1  15  -1
M  END
$$$$
default_name
  -OEChem-01062215323D

 24 23  0     1  0  0  0  0  0999 V2000
   -2.8347   -3.7166    0.8034 H   0  0  0  0  0  0  0  0  0  0  0  0
   -2.7728   -2.7096    0.3954 C   0  0  0  0  0  0  0  0  0  0  0  0
   -3.4267   -2.0426    0.9524 H   0  0  0  0  0  0  0  0  0  0  0  0
   -3.0538   -2.7186   -0.6556 H   0  0  0  0  0  0  0  0  0  0  0  0
   -1.3498   -2.2206    0.5184 C   0  0  0  0  0  0  0  0  0  0  0  0
   -0.4997   -2.9426    1.0194 O   0  0  0  0  0  0  0  0  0  0  0  0
   -1.1198   -0.9926    0.0674 N   0  0  0  0  0  0  0  0  0  0  0  0
   -1.8978   -0.4486   -0.2716 H   0  0  0  0  0  0  0  0  0  0  0  0
    0.1693   -0.2866    0.0854 C   0  0  1  0  0  0  0  0  0  0  0  0
    0.1420    0.4867    0.8551 H   0  0  0  0  0  0  0  0  0  0  0  0
    1.2921   -1.2850    0.4414 C   0  0  0  0  0  0  0  0  0  0  0  0
    1.2127   -2.1511   -0.2179 H   0  0  0  0  0  0  0  0  0  0  0  0
    2.2576   -0.8105    0.2531 H   0  0  0  0  0  0  0  0  0  0  0  0
    1.2535   -1.7982    1.8894 C   0  0  0  0  0  0  0  0  0  0  0  0
    0.7700   -1.0551    2.7757 O   0  5  0  0  0  0  0  0  0  0  0  0
    1.7308   -2.9337    2.1017 O   0  0  0  0  0  0  0  0  0  0  0  0
    0.4080    0.3986   -1.2801 C   0  0  0  0  0  0  0  0  0  0  0  0
    0.5652    1.6235   -1.3475 O   0  0  0  0  0  0  0  0  0  0  0  0
    0.4537   -0.3765   -2.3681 N   0  0  0  0  0  0  0  0  0  0  0  0
    0.2261   -1.3618   -2.2217 H   0  0  0  0  0  0  0  0  0  0  0  0
    0.6530    0.0997   -3.7328 C   0  0  0  0  0  0  0  0  0  0  0  0
    1.4598    0.8335   -3.7523 H   0  0  0  0  0  0  0  0  0  0  0  0
    0.9052   -0.7400   -4.3798 H   0  0  0  0  0  0  0  0  0  0  0  0
   -0.2651    0.5687   -4.0873 H   0  0  0  0  0  0  0  0  0  0  0  0
  5  6  2  0  0  0  0
  5  7  1  0  0  0  0
  2  3  1  0  0  0  0
  2  4  1  0  0  0  0
  2  5  1  0  0  0  0
  1  2  1  0  0  0  0
 17 18  2  0  0  0  0
 17 19  1  0  0  0  0
 14 15  1  0  0  0  0
 14 16  2  0  0  0  0
 11 12  1  0  0  0  0
 11 13  1  0  0  0  0
 11 14  1  0  0  0  0
  9 10  1  0  0  0  0
  9 11  1  0  0  0  0
  9 17  1  0  0  0  0
  7  8  1  0  0  0  0
  7  9  1  0  0  0  0
 21 22  1  0  0  0  0
 21 23  1  0  0  0  0
 21 24  1  0  0  0  0
 19 20  1  0  0  0  0
 19 21  1  0  0  0  0
M  CHG  1  15  -1
M  END
$$$$
default_name
  -OEChem-01062215323D

 24 23  0     1  0  0  0  0  0999 V2000
   -2.8347   -3.7166    0.8034 H   0  0  0  0  0  0  0  0  0  0  0  0
   -2.7728   -2.7096    0.3954 C   0  0  0  0  0  0  0  0  0  0  0  0
   -3.4267   -2.0426    0.9524 H   0  0  0  0  0  0  0  0  0  0  0  0
   -3.0538   -2.7186   -0.6556 H   0  0  0  0  0  0  0  0  0  0  0  0
   -1.3498   -2.2206    0.5184 C   0  0  0  0  0  0  0  0  0  0  0  0
   -0.4997   -2.9426    1.0194 O   0  0  0  0  0  0  0  0  0  0  0  0
   -1.1198   -0.9926    0.0674 N   0  0  0  0  0  0  0  0  0  0  0  0
   -1.8978   -0.4486   -0.2716 H   0  0  0  0  0  0  0  0  0  0  0  0
    0.1693   -0.2866    0.0854 C   0  0  1  0  0  0  0  0  0  0  0  0
    0.1420    0.4867    0.8551 H   0  0  0  0  0  0  0  0  0  0  0  0
    1.2921   -1.2850    0.4414 C   0  0  0  0  0  0  0  0  0  0  0  0
    1.2127   -2.1511   -0.2179 H   0  0  0  0  0  0  0  0  0  0  0  0
    2.2576   -0.8105    0.2531 H   0  0  0  0  0  0  0  0  0  0  0  0
    1.2535   -1.7982    1.8894 C   0  0  0  0  0  0  0  0  0  0  0  0
    0.7700   -1.0551    2.7757 O   0  5  0  0  0  0  0  0  0  0  0  0
    1.7308   -2.9337    2.1017 O   0  0  0  0  0  0  0  0  0  0  0  0
    0.4080    0.3986   -1.2801 C   0  0  0  0  0  0  0  0  0  0  0  0
    0.8353    1.5580   -1.3331 O   0  0  0  0  0  0  0  0  0  0  0  0
    0.1535   -0.3076   -2.3860 N   0  0  0  0  0  0  0  0  0  0  0  0
   -0.2779   -1.2222   -2.2398 H   0  0  0  0  0  0  0  0  0  0  0  0
    0.3059    0.1832   -3.7515 C   0  0  0  0  0  0  0  0  0  0  0  0
    1.2531    0.7154   -3.8477 H   0  0  0  0  0  0  0  0  0  0  0  0
    0.2847   -0.6560   -4.4462 H   0  0  0  0  0  0  0  0  0  0  0  0
   -0.5124    0.8660   -3.9813 H   0  0  0  0  0  0  0  0  0  0  0  0
  5  6  2  0  0  0  0
  5  7  1  0  0  0  0
  2  3  1  0  0  0  0
  2  4  1  0  0  0  0
  2  5  1  0  0  0  0
  1  2  1  0  0  0  0
 17 18  2  0  0  0  0
 17 19  1  0  0  0  0
 14 15  1  0  0  0  0
 14 16  2  0  0  0  0
 11 12  1  0  0  0  0
 11 13  1  0  0  0  0
 11 14  1  0  0  0  0
  9 10  1  0  0  0  0
  9 11  1  0  0  0  0
  9 17  1  0  0  0  0
  7  8  1  0  0  0  0
  7  9  1  0  0  0  0
 21 22  1  0  0  0  0
 21 23  1  0  0  0  0
 21 24  1  0  0  0  0
 19 20  1  0  0  0  0
 19 21  1  0  0  0  0
M  CHG  1  15  -1
M  END
$$$$
default_name
  -OEChem-01062215323D

 24 23  0     1  0  0  0  0  0999 V2000
   -2.8347   -3.7166    0.8034 H   0  0  0  0  0  0  0  0  0  0  0  0
   -2.7728   -2.7096    0.3954 C   0  0  0  0  0  0  0  0  0  0  0  0
   -3.4267   -2.0426    0.9524 H   0  0  0  0  0  0  0  0  0  0  0  0
   -3.0538   -2.7186   -0.6556 H   0  0  0  0  0  0  0  0  0  0  0  0
   -1.3498   -2.2206    0.5184 C   0  0  0  0  0  0  0  0  0  0  0  0
   -0.4997   -2.9426    1.0194 O   0  0  0  0  0  0  0  0  0  0  0  0
   -1.1198   -0.9926    0.0674 N   0  0  0  0  0  0  0  0  0  0  0  0
   -1.8978   -0.4486   -0.2716 H   0  0  0  0  0  0  0  0  0  0  0  0
    0.1693   -0.2866    0.0854 C   0  0  1  0  0  0  0  0  0  0  0  0
    0.1420    0.4867    0.8551 H   0  0  0  0  0  0  0  0  0  0  0  0
    1.2921   -1.2850    0.4414 C   0  0  0  0  0  0  0  0  0  0  0  0
    1.2127   -2.1511   -0.2179 H   0  0  0  0  0  0  0  0  0  0  0  0
    2.2576   -0.8105    0.2531 H   0  0  0  0  0  0  0  0  0  0  0  0
    1.2535   -1.7982    1.8894 C   0  0  0  0  0  0  0  0  0  0  0  0
    0.7700   -1.0551    2.7757 O   0  5  0  0  0  0  0  0  0  0  0  0
    1.7308   -2.9337    2.1017 O   0  0  0  0  0  0  0  0  0  0  0  0
    0.4080    0.3986   -1.2801 C   0  0  0  0  0  0  0  0  0  0  0  0
    1.0829    1.4324   -1.3529 O   0  0  0  0  0  0  0  0  0  0  0  0
   -0.1228   -0.1717   -2.3662 N   0  0  0  0  0  0  0  0  0  0  0  0
   -0.7350   -0.9715   -2.1939 H   0  0  0  0  0  0  0  0  0  0  0  0
   -0.0124    0.3440   -3.7265 C   0  0  0  0  0  0  0  0  0  0  0  0
    1.0156    0.6524   -3.9208 H   0  0  0  0  0  0  0  0  0  0  0  0
   -0.3032   -0.4305   -4.4358 H   0  0  0  0  0  0  0  0  0  0  0  0
   -0.6711    1.2054   -3.8388 H   0  0  0  0  0  0  0  0  0  0  0  0
  5  6  2  0  0  0  0
  5  7  1  0  0  0  0
  2  3  1  0  0  0  0
  2  4  1  0  0  0  0
  2  5  1  0  0  0  0
  1  2  1  0  0  0  0
 17 18  2  0  0  0  0
 17 19  1  0  0  0  0
 14 15  1  0  0  0  0
 14 16  2  0  0  0  0
 11 12  1  0  0  0  0
 11 13  1  0  0  0  0
 11 14  1  0  0  0  0
  9 10  1  0  0  0  0
  9 11  1  0  0  0  0
  9 17  1  0  0  0  0
  7  8  1  0  0  0  0
  7  9  1  0  0  0  0
 21 22  1  0  0  0  0
 21 23  1  0  0  0  0
 21 24  1  0  0  0  0
 19 20  1  0  0  0  0
 19 21  1  0  0  0  0
M  CHG  1  15  -1
M  END
$$$$
default_name
  -OEChem-01062215323D

 24 23  0     1  0  0  0  0  0999 V2000
   -2.8347   -3.7166    0.8034 H   0  0  0  0  0  0  0  0  0  0  0  0
   -2.7728   -2.7096    0.3954 C   0  0  0  0  0  0  0  0  0  0  0  0
   -3.4267   -2.0426    0.9524 H   0  0  0  0  0  0  0  0  0  0  0  0
   -3.0538   -2.7186   -0.6556 H   0  0  0  0  0  0  0  0  0  0  0  0
   -1.3498   -2.2206    0.5184 C   0  0  0  0  0  0  0  0  0  0  0  0
   -0.4997   -2.9426    1.0194 O   0  0  0  0  0  0  0  0  0  0  0  0
   -1.1198   -0.9926    0.0674 N   0  0  0  0  0  0  0  0  0  0  0  0
   -1.8978   -0.4486   -0.2716 H   0  0  0  0  0  0  0  0  0  0  0  0
    0.1693   -0.2866    0.0854 C   0  0  1  0  0  0  0  0  0  0  0  0
    0.1420    0.4867    0.8551 H   0  0  0  0  0  0  0  0  0  0  0  0
    1.2921   -1.2850    0.4414 C   0  0  0  0  0  0  0  0  0  0  0  0
    1.2127   -2.1511   -0.2179 H   0  0  0  0  0  0  0  0  0  0  0  0
    2.2576   -0.8105    0.2531 H   0  0  0  0  0  0  0  0  0  0  0  0
    1.2535   -1.7982    1.8894 C   0  0  0  0  0  0  0  0  0  0  0  0
    0.7700   -1.0551    2.7757 O   0  5  0  0  0  0  0  0  0  0  0  0
    1.7308   -2.9337    2.1017 O   0  0  0  0  0  0  0  0  0  0  0  0
    0.4080    0.3986   -1.2801 C   0  0  0  0  0  0  0  0  0  0  0  0
    1.2911    1.2553   -1.4053 O   0  0  0  0  0  0  0  0  0  0  0  0
   -0.3564    0.0219   -2.3099 N   0  0  0  0  0  0  0  0  0  0  0  0
   -1.1139   -0.6267   -2.0872 H   0  0  0  0  0  0  0  0  0  0  0  0
   -0.2803    0.5710   -3.6595 C   0  0  0  0  0  0  0  0  0  0  0  0
    0.7634    0.6488   -3.9668 H   0  0  0  0  0  0  0  0  0  0  0  0
   -0.8182   -0.0787   -4.3494 H   0  0  0  0  0  0  0  0  0  0  0  0
   -0.7306    1.5638   -3.6693 H   0  0  0  0  0  0  0  0  0  0  0  0
  5  6  2  0  0  0  0
  5  7  1  0  0  0  0
  2  3  1  0  0  0  0
  2  4  1  0  0  0  0
  2  5  1  0  0  0  0
  1  2  1  0  0  0  0
 17 18  2  0  0  0  0
 17 19  1  0  0  0  0
 14 15  1  0  0  0  0
 14 16  2  0  0  0  0
 11 12  1  0  0  0  0
 11 13  1  0  0  0  0
 11 14  1  0  0  0  0
  9 10  1  0  0  0  0
  9 11  1  0  0  0  0
  9 17  1  0  0  0  0
  7  8  1  0  0  0  0
  7  9  1  0  0  0  0
 21 22  1  0  0  0  0
 21 23  1  0  0  0  0
 21 24  1  0  0  0  0
 19 20  1  0  0  0  0
 19 21  1  0  0  0  0
M  CHG  1  15  -1
M  END
$$$$
default_name
  -OEChem-01062215323D

 24 23  0     1  0  0  0  0  0999 V2000
   -2.8347   -3.7166    0.8034 H   0  0  0  0  0  0  0  0  0  0  0  0
   -2.7728   -2.7096    0.3954 C   0  0  0  0  0  0  0  0  0  0  0  0
   -3.4267   -2.0426    0.9524 H   0  0  0  0  0  0  0  0  0  0  0  0
   -3.0538   -2.7186   -0.6556 H   0  0  0  0  0  0  0  0  0  0  0  0
   -1.3498   -2.2206    0.5184 C   0  0  0  0  0  0  0  0  0  0  0  0
   -0.4997   -2.9426    1.0194 O   0  0  0  0  0  0  0  0  0  0  0  0
   -1.1198   -0.9926    0.0674 N   0  0  0  0  0  0  0  0  0  0  0  0
   -1.8978   -0.4486   -0.2716 H   0  0  0  0  0  0  0  0  0  0  0  0
    0.1693   -0.2866    0.0854 C   0  0  1  0  0  0  0  0  0  0  0  0
    0.1420    0.4867    0.8551 H   0  0  0  0  0  0  0  0  0  0  0  0
    1.2921   -1.2850    0.4414 C   0  0  0  0  0  0  0  0  0  0  0  0
    1.2127   -2.1511   -0.2179 H   0  0  0  0  0  0  0  0  0  0  0  0
    2.2576   -0.8105    0.2531 H   0  0  0  0  0  0  0  0  0  0  0  0
    1.2535   -1.7982    1.8894 C   0  0  0  0  0  0  0  0  0  0  0  0
    0.7700   -1.0551    2.7757 O   0  5  0  0  0  0  0  0  0  0  0  0
    1.7308   -2.9337    2.1017 O   0  0  0  0  0  0  0  0  0  0  0  0
    0.4080    0.3986   -1.2801 C   0  0  0  0  0  0  0  0  0  0  0  0
    1.4458    1.0388   -1.4870 O   0  0  0  0  0  0  0  0  0  0  0  0
   -0.5313    0.2600   -2.2209 N   0  0  0  0  0  0  0  0  0  0  0  0
   -1.3888   -0.2114   -1.9268 H   0  0  0  0  0  0  0  0  0  0  0  0
   -0.4795    0.8488   -3.5549 C   0  0  0  0  0  0  0  0  0  0  0  0
    0.5137    0.7048   -3.9823 H   0  0  0  0  0  0  0  0  0  0  0  0
   -1.2254    0.3754   -4.1927 H   0  0  0  0  0  0  0  0  0  0  0  0
   -0.6866    1.9168   -3.4844 H   0  0  0  0  0  0  0  0  0  0  0  0
  5  6  2  0  0  0  0
  5  7  1  0  0  0  0
  2  3  1  0  0  0  0
  2  4  1  0  0  0  0
  2  5  1  0  0  0  0
  1  2  1  0  0  0  0
 17 18  2  0  0  0  0
 17 19  1  0  0  0  0
 14 15  1  0  0  0  0
 14 16  2  0  0  0  0
 11 12  1  0  0  0  0
 11 13  1  0  0  0  0
 11 14  1  0  0  0  0
  9 10  1  0  0  0  0
  9 11  1  0  0  0  0
  9 17  1  0  0  0  0
  7  8  1  0  0  0  0
  7  9  1  0  0  0  0
 21 22  1  0  0  0  0
 21 23  1  0  0  0  0
 21 24  1  0  0  0  0
 19 20  1  0  0  0  0
 19 21  1  0  0  0  0
M  CHG  1  15  -1
M  END
$$$$
default_name
  -OEChem-01062215323D

 24 23  0     1  0  0  0  0  0999 V2000
   -2.8347   -3.7166    0.8034 H   0  0  0  0  0  0  0  0  0  0  0  0
   -2.7728   -2.7096    0.3954 C   0  0  0  0  0  0  0  0  0  0  0  0
   -3.4267   -2.0426    0.9524 H   0  0  0  0  0  0  0  0  0  0  0  0
   -3.0538   -2.7186   -0.6556 H   0  0  0  0  0  0  0  0  0  0  0  0
   -1.3498   -2.2206    0.5184 C   0  0  0  0  0  0  0  0  0  0  0  0
   -0.4997   -2.9426    1.0194 O   0  0  0  0  0  0  0  0  0  0  0  0
   -1.1198   -0.9926    0.0674 N   0  0  0  0  0  0  0  0  0  0  0  0
   -1.8978   -0.4486   -0.2716 H   0  0  0  0  0  0  0  0  0  0  0  0
    0.1693   -0.2866    0.0854 C   0  0  1  0  0  0  0  0  0  0  0  0
    0.1420    0.4867    0.8551 H   0  0  0  0  0  0  0  0  0  0  0  0
    1.2921   -1.2850    0.4414 C   0  0  0  0  0  0  0  0  0  0  0  0
    1.2127   -2.1511   -0.2179 H   0  0  0  0  0  0  0  0  0  0  0  0
    2.2576   -0.8105    0.2531 H   0  0  0  0  0  0  0  0  0  0  0  0
    1.2535   -1.7982    1.8894 C   0  0  0  0  0  0  0  0  0  0  0  0
    0.7700   -1.0551    2.7757 O   0  5  0  0  0  0  0  0  0  0  0  0
    1.7308   -2.9337    2.1017 O   0  0  0  0  0  0  0  0  0  0  0  0
    0.4080    0.3986   -1.2801 C   0  0  0  0  0  0  0  0  0  0  0  0
    1.5363    0.7975   -1.5922 O   0  0  0  0  0  0  0  0  0  0  0  0
   -0.6356    0.5264   -2.1055 N   0  0  0  0  0  0  0  0  0  0  0  0
   -1.5410    0.2463   -1.7238 H   0  0  0  0  0  0  0  0  0  0  0  0
   -0.5964    1.1585   -3.4199 C   0  0  0  0  0  0  0  0  0  0  0  0
    0.2834    0.8165   -3.9665 H   0  0  0  0  0  0  0  0  0  0  0  0
   -1.4970    0.9008   -3.9765 H   0  0  0  0  0  0  0  0  0  0  0  0
   -0.5423    2.2404   -3.2968 H   0  0  0  0  0  0  0  0  0  0  0  0
  5  6  2  0  0  0  0
  5  7  1  0  0  0  0
  2  3  1  0  0  0  0
  2  4  1  0  0  0  0
  2  5  1  0  0  0  0
  1  2  1  0  0  0  0
 17 18  2  0  0  0  0
 17 19  1  0  0  0  0
 14 15  1  0  0  0  0
 14 16  2  0  0  0  0
 11 12  1  0  0  0  0
 11 13  1  0  0  0  0
 11 14  1  0  0  0  0
  9 10  1  0  0  0  0
  9 11  1  0  0  0  0
  9 17  1  0  0  0  0
  7  8  1  0  0  0  0
  7  9  1  0  0  0  0
 21 22  1  0  0  0  0
 21 23  1  0  0  0  0
 21 24  1  0  0  0  0
 19 20  1  0  0  0  0
 19 21  1  0  0  0  0
M  CHG  1  15  -1
M  END
$$$$
default_name
  -OEChem-01062215323D

 24 23  0     1  0  0  0  0  0999 V2000
   -2.8347   -3.7166    0.8034 H   0  0  0  0  0  0  0  0  0  0  0  0
   -2.7728   -2.7096    0.3954 C   0  0  0  0  0  0  0  0  0  0  0  0
   -3.4267   -2.0426    0.9524 H   0  0  0  0  0  0  0  0  0  0  0  0
   -3.0538   -2.7186   -0.6556 H   0  0  0  0  0  0  0  0  0  0  0  0
   -1.3498   -2.2206    0.5184 C   0  0  0  0  0  0  0  0  0  0  0  0
   -0.4997   -2.9426    1.0194 O   0  0  0  0  0  0  0  0  0  0  0  0
   -1.1198   -0.9926    0.0674 N   0  0  0  0  0  0  0  0  0  0  0  0
   -1.8978   -0.4486   -0.2716 H   0  0  0  0  0  0  0  0  0  0  0  0
    0.1693   -0.2866    0.0854 C   0  0  1  0  0  0  0  0  0  0  0  0
    0.1420    0.4867    0.8551 H   0  0  0  0  0  0  0  0  0  0  0  0
    1.2921   -1.2850    0.4414 C   0  0  0  0  0  0  0  0  0  0  0  0
    1.2127   -2.1511   -0.2179 H   0  0  0  0  0  0  0  0  0  0  0  0
    2.2576   -0.8105    0.2531 H   0  0  0  0  0  0  0  0  0  0  0  0
    1.2535   -1.7982    1.8894 C   0  0  0  0  0  0  0  0  0  0  0  0
    0.7700   -1.0551    2.7757 O   0  5  0  0  0  0  0  0  0  0  0  0
    1.7308   -2.9337    2.1017 O   0  0  0  0  0  0  0  0  0  0  0  0
    0.4080    0.3986   -1.2801 C   0  0  0  0  0  0  0  0  0  0  0  0
    1.5565    0.5480   -1.7139 O   0  0  0  0  0  0  0  0  0  0  0  0
   -0.6622    0.8030   -1.9713 N   0  0  0  0  0  0  0  0  0  0  0  0
   -1.5602    0.7150   -1.4919 H   0  0  0  0  0  0  0  0  0  0  0  0
   -0.6230    1.4790   -3.2637 C   0  0  0  0  0  0  0  0  0  0  0  0
    0.0884    0.9765   -3.9204 H   0  0  0  0  0  0  0  0  0  0  0  0
   -1.6144    1.4617   -3.7156 H   0  0  0  0  0  0  0  0  0  0  0  0
   -0.3074    2.5124   -3.1192 H   0  0  0  0  0  0  0  0  0  0  0  0
  5  6  2  0  0  0  0
  5  7  1  0  0  0  0
  2  3  1  0  0  0  0
  2  4  1  0  0  0  0
  2  5  1  0  0  0  0
  1  2  1  0  0  0  0
 17 18  2  0  0  0  0
 17 19  1  0  0  0  0
 14 15  1  0  0  0  0
 14 16  2  0  0  0  0
 11 12  1  0  0  0  0
 11 13  1  0  0  0  0
 11 14  1  0  0  0  0
  9 10  1  0  0  0  0
  9 11  1  0  0  0  0
  9 17  1  0  0  0  0
  7  8  1  0  0  0  0
  7  9  1  0  0  0  0
 21 22  1  0  0  0  0
 21 23  1  0  0  0  0
 21 24  1  0  0  0  0
 19 20  1  0  0  0  0
 19 21  1  0  0  0  0
M  CHG  1  15  -1
M  END
$$$$
default_name
  -OEChem-01062215323D

 24 23  0     1  0  0  0  0  0999 V2000
   -2.8347   -3.7166    0.8034 H   0  0  0  0  0  0  0  0  0  0  0  0
   -2.7728   -2.7096    0.3954 C   0  0  0  0  0  0  0  0  0  0  0  0
   -3.4267   -2.0426    0.9524 H   0  0  0  0  0  0  0  0  0  0  0  0
   -3.0538   -2.7186   -0.6556 H   0  0  0  0  0  0  0  0  0  0  0  0
   -1.3498   -2.2206    0.5184 C   0  0  0  0  0  0  0  0  0  0  0  0
   -0.4997   -2.9426    1.0194 O   0  0  0  0  0  0  0  0  0  0  0  0
   -1.1198   -0.9926    0.0674 N   0  0  0  0  0  0  0  0  0  0  0  0
   -1.8978   -0.4486   -0.2716 H   0  0  0  0  0  0  0  0  0  0  0  0
    0.1693   -0.2866    0.0854 C   0  0  1  0  0  0  0  0  0  0  0  0
    0.1420    0.4867    0.8551 H   0  0  0  0  0  0  0  0  0  0  0  0
    1.2921   -1.2850    0.4414 C   0  0  0  0  0  0  0  0  0  0  0  0
    1.2127   -2.1511   -0.2179 H   0  0  0  0  0  0  0  0  0  0  0  0
    2.2576   -0.8105    0.2531 H   0  0  0  0  0  0  0  0  0  0  0  0
    1.2535   -1.7982    1.8894 C   0  0  0  0  0  0  0  0  0  0  0  0
    0.7700   -1.0551    2.7757 O   0  5  0  0  0  0  0  0  0  0  0  0
    1.7308   -2.9337    2.1017 O   0  0  0  0  0  0  0  0  0  0  0  0
    0.4080    0.3986   -1.2801 C   0  0  0  0  0  0  0  0  0  0  0  0
    1.5051    0.3072   -1.8437 O   0  0  0  0  0  0  0  0  0  0  0  0
   -0.6093    1.0709   -1.8277 N   0  0  0  0  0  0  0  0  0  0  0  0
   -1.4450    1.1629   -1.2470 H   0  0  0  0  0  0  0  0  0  0  0  0
   -0.5576    1.7884   -3.0970 C   0  0  0  0  0  0  0  0  0  0  0  0
   -0.0581    1.1737   -3.8470 H   0  0  0  0  0  0  0  0  0  0  0  0
   -1.5697    2.0199   -3.4276 H   0  0  0  0  0  0  0  0  0  0  0  0
    0.0020    2.7144   -2.9638 H   0  0  0  0  0  0  0  0  0  0  0  0
  5  6  2  0  0  0  0
  5  7  1  0  0  0  0
  2  3  1  0  0  0  0
  2  4  1  0  0  0  0
  2  5  1  0  0  0  0
  1  2  1  0  0  0  0
 17 18  2  0  0  0  0
 17 19  1  0  0  0  0
 14 15  1  0  0  0  0
 14 16  2  0  0  0  0
 11 12  1  0  0  0  0
 11 13  1  0  0  0  0
 11 14  1  0  0  0  0
  9 10  1  0  0  0  0
  9 11  1  0  0  0  0
  9 17  1  0  0  0  0
  7  8  1  0  0  0  0
  7  9  1  0  0  0  0
 21 22  1  0  0  0  0
 21 23  1  0  0  0  0
 21 24  1  0  0  0  0
 19 20  1  0  0  0  0
 19 21  1  0  0  0  0
M  CHG  1  15  -1
M  END
$$$$
default_name
  -OEChem-01062215323D

 24 23  0     1  0  0  0  0  0999 V2000
   -2.8347   -3.7166    0.8034 H   0  0  0  0  0  0  0  0  0  0  0  0
   -2.7728   -2.7096    0.3954 C   0  0  0  0  0  0  0  0  0  0  0  0
   -3.4267   -2.0426    0.9524 H   0  0  0  0  0  0  0  0  0  0  0  0
   -3.0538   -2.7186   -0.6556 H   0  0  0  0  0  0  0  0  0  0  0  0
   -1.3498   -2.2206    0.5184 C   0  0  0  0  0  0  0  0  0  0  0  0
   -0.4997   -2.9426    1.0194 O   0  0  0  0  0  0  0  0  0  0  0  0
   -1.1198   -0.9926    0.0674 N   0  0  0  0  0  0  0  0  0  0  0  0
   -1.8978   -0.4486   -0.2716 H   0  0  0  0  0  0  0  0  0  0  0  0
    0.1693   -0.2866    0.0854 C   0  0  1  0  0  0  0  0  0  0  0  0
    0.1420    0.4867    0.8551 H   0  0  0  0  0  0  0  0  0  0  0  0
    1.2921   -1.2850    0.4414 C   0  0  0  0  0  0  0  0  0  0  0  0
    1.2127   -2.1511   -0.2179 H   0  0  0  0  0  0  0  0  0  0  0  0
    2.2576   -0.8105    0.2531 H   0  0  0  0  0  0  0  0  0  0  0  0
    1.2535   -1.7982    1.8894 C   0  0  0  0  0  0  0  0  0  0  0  0
    0.7700   -1.0551    2.7757 O   0  5  0  0  0  0  0  0  0  0  0  0
    1.7308   -2.9337    2.1017 O   0  0  0  0  0  0  0  0  0  0  0  0
    0.4080    0.3986   -1.2801 C   0  0  0  0  0  0  0  0  0  0  0  0
    1.3854    0.0916   -1.9728 O   0  0  0  0  0  0  0  0  0  0  0  0
   -0.4805    1.3118   -1.6842 N   0  0  0  0  0  0  0  0  0  0  0  0
   -1.2033    1.5594   -1.0057 H   0  0  0  0  0  0  0  0  0  0  0  0
   -0.4046    2.0656   -2.9311 C   0  0  0  0  0  0  0  0  0  0  0  0
   -0.1461    1.3947   -3.7515 H   0  0  0  0  0  0  0  0  0  0  0  0
   -1.3660    2.5374   -3.1323 H   0  0  0  0  0  0  0  0  0  0  0  0
    0.3649    2.8326   -2.8410 H   0  0  0  0  0  0  0  0  0  0  0  0
  5  6  2  0  0  0  0
  5  7  1  0  0  0  0
  2  3  1  0  0  0  0
  2  4  1  0  0  0  0
  2  5  1  0  0  0  0
  1  2  1  0  0  0  0
 17 18  2  0  0  0  0
 17 19  1  0  0  0  0
 14 15  1  0  0  0  0
 14 16  2  0  0  0  0
 11 12  1  0  0  0  0
 11 13  1  0  0  0  0
 11 14  1  0  0  0  0
  9 10  1  0  0  0  0
  9 11  1  0  0  0  0
  9 17  1  0  0  0  0
  7  8  1  0  0  0  0
  7  9  1  0  0  0  0
 21 22  1  0  0  0  0
 21 23  1  0  0  0  0
 21 24  1  0  0  0  0
 19 20  1  0  0  0  0
 19 21  1  0  0  0  0
M  CHG  1  15  -1
M  END
$$$$
default_name
  -OEChem-01062215323D

 24 23  0     1  0  0  0  0  0999 V2000
   -2.8347   -3.7166    0.8034 H   0  0  0  0  0  0  0  0  0  0  0  0
   -2.7728   -2.7096    0.3954 C   0  0  0  0  0  0  0  0  0  0  0  0
   -3.4267   -2.0426    0.9524 H   0  0  0  0  0  0  0  0  0  0  0  0
   -3.0538   -2.7186   -0.6556 H   0  0  0  0  0  0  0  0  0  0  0  0
   -1.3498   -2.2206    0.5184 C   0  0  0  0  0  0  0  0  0  0  0  0
   -0.4997   -2.9426    1.0194 O   0  0  0  0  0  0  0  0  0  0  0  0
   -1.1198   -0.9926    0.0674 N   0  0  0  0  0  0  0  0  0  0  0  0
   -1.8978   -0.4486   -0.2716 H   0  0  0  0  0  0  0  0  0  0  0  0
    0.1693   -0.2866    0.0854 C   0  0  1  0  0  0  0  0  0  0  0  0
    0.1420    0.4867    0.8551 H   0  0  0  0  0  0  0  0  0  0  0  0
    1.2921   -1.2850    0.4414 C   0  0  0  0  0  0  0  0  0  0  0  0
    1.2127   -2.1511   -0.2179 H   0  0  0  0  0  0  0  0  0  0  0  0
    2.2576   -0.8105    0.2531 H   0  0  0  0  0  0  0  0  0  0  0  0
    1.2535   -1.7982    1.8894 C   0  0  0  0  0  0  0  0  0  0  0  0
    0.7700   -1.0551    2.7757 O   0  5  0  0  0  0  0  0  0  0  0  0
    1.7308   -2.9337    2.1017 O   0  0  0  0  0  0  0  0  0  0  0  0
    0.4080    0.3986   -1.2801 C   0  0  0  0  0  0  0  0  0  0  0  0
    1.2058   -0.0842   -2.0925 O   0  0  0  0  0  0  0  0  0  0  0  0
   -0.2846    1.5093   -1.5508 N   0  0  0  0  0  0  0  0  0  0  0  0
   -0.8515    1.8775   -0.7846 H   0  0  0  0  0  0  0  0  0  0  0  0
   -0.1744    2.2918   -2.7774 C   0  0  0  0  0  0  0  0  0  0  0  0
   -0.1697    1.6245   -3.6403 H   0  0  0  0  0  0  0  0  0  0  0  0
   -1.0170    2.9789   -2.8497 H   0  0  0  0  0  0  0  0  0  0  0  0
    0.7565    2.8589   -2.7593 H   0  0  0  0  0  0  0  0  0  0  0  0
  5  6  2  0  0  0  0
  5  7  1  0  0  0  0
  2  3  1  0  0  0  0
  2  4  1  0  0  0  0
  2  5  1  0  0  0  0
  1  2  1  0  0  0  0
 17 18  2  0  0  0  0
 17 19  1  0  0  0  0
 14 15  1  0  0  0  0
 14 16  2  0  0  0  0
 11 12  1  0  0  0  0
 11 13  1  0  0  0  0
 11 14  1  0  0  0  0
  9 10  1  0  0  0  0
  9 11  1  0  0  0  0
  9 17  1  0  0  0  0
  7  8  1  0  0  0  0
  7  9  1  0  0  0  0
 21 22  1  0  0  0  0
 21 23  1  0  0  0  0
 21 24  1  0  0  0  0
 19 20  1  0  0  0  0
 19 21  1  0  0  0  0
M  CHG  1  15  -1
M  END
$$$$
default_name
  -OEChem-01062215323D

 24 23  0     1  0  0  0  0  0999 V2000
   -2.8347   -3.7166    0.8034 H   0  0  0  0  0  0  0  0  0  0  0  0
   -2.7728   -2.7096    0.3954 C   0  0  0  0  0  0  0  0  0  0  0  0
   -3.4267   -2.0426    0.9524 H   0  0  0  0  0  0  0  0  0  0  0  0
   -3.0538   -2.7186   -0.6556 H   0  0  0  0  0  0  0  0  0  0  0  0
   -1.3498   -2.2206    0.5184 C   0  0  0  0  0  0  0  0  0  0  0  0
   -0.4997   -2.9426    1.0194 O   0  0  0  0  0  0  0  0  0  0  0  0
   -1.1198   -0.9926    0.0674 N   0  0  0  0  0  0  0  0  0  0  0  0
   -1.8978   -0.4486   -0.2716 H   0  0  0  0  0  0  0  0  0  0  0  0
    0.1693   -0.2866    0.0854 C   0  0  1  0  0  0  0  0  0  0  0  0
    0.1420    0.4867    0.8551 H   0  0  0  0  0  0  0  0  0  0  0  0
    1.2921   -1.2850    0.4414 C   0  0  0  0  0  0  0  0  0  0  0  0
    1.2127   -2.1511   -0.2179 H   0  0  0  0  0  0  0  0  0  0  0  0
    2.2576   -0.8105    0.2531 H   0  0  0  0  0  0  0  0  0  0  0  0
    1.2535   -1.7982    1.8894 C   0  0  0  0  0  0  0  0  0  0  0  0
    0.7700   -1.0551    2.7757 O   0  5  0  0  0  0  0  0  0  0  0  0
    1.7308   -2.9337    2.1017 O   0  0  0  0  0  0  0  0  0  0  0  0
    0.4080    0.3986   -1.2801 C   0  0  0  0  0  0  0  0  0  0  0  0
    0.9784   -0.2081   -2.1944 O   0  0  0  0  0  0  0  0  0  0  0  0
   -0.0349    1.6501   -1.4366 N   0  0  0  0  0  0  0  0  0  0  0  0
   -0.4136    2.0955   -0.5986 H   0  0  0  0  0  0  0  0  0  0  0  0
    0.1173    2.4515   -2.6462 C   0  0  0  0  0  0  0  0  0  0  0  0
   -0.1272    1.8475   -3.5210 H   0  0  0  0  0  0  0  0  0  0  0  0
   -0.5466    3.3143   -2.5991 H   0  0  0  0  0  0  0  0  0  0  0  0
    1.1502    2.7915   -2.7243 H   0  0  0  0  0  0  0  0  0  0  0  0
  5  6  2  0  0  0  0
  5  7  1  0  0  0  0
  2  3  1  0  0  0  0
  2  4  1  0  0  0  0
  2  5  1  0  0  0  0
  1  2  1  0  0  0  0
 17 18  2  0  0  0  0
 17 19  1  0  0  0  0
 14 15  1  0  0  0  0
 14 16  2  0  0  0  0
 11 12  1  0  0  0  0
 11 13  1  0  0  0  0
 11 14  1  0  0  0  0
  9 10  1  0  0  0  0
  9 11  1  0  0  0  0
  9 17  1  0  0  0  0
  7  8  1  0  0  0  0
  7  9  1  0  0  0  0
 21 22  1  0  0  0  0
 21 23  1  0  0  0  0
 21 24  1  0  0  0  0
 19 20  1  0  0  0  0
 19 21  1  0  0  0  0
M  CHG  1  15  -1
M  END
$$$$
default_name
  -OEChem-01062215323D

 24 23  0     1  0  0  0  0  0999 V2000
   -2.8347   -3.7166    0.8034 H   0  0  0  0  0  0  0  0  0  0  0  0
   -2.7728   -2.7096    0.3954 C   0  0  0  0  0  0  0  0  0  0  0  0
   -3.4267   -2.0426    0.9524 H   0  0  0  0  0  0  0  0  0  0  0  0
   -3.0538   -2.7186   -0.6556 H   0  0  0  0  0  0  0  0  0  0  0  0
   -1.3498   -2.2206    0.5184 C   0  0  0  0  0  0  0  0  0  0  0  0
   -0.4997   -2.9426    1.0194 O   0  0  0  0  0  0  0  0  0  0  0  0
   -1.1198   -0.9926    0.0674 N   0  0  0  0  0  0  0  0  0  0  0  0
   -1.8978   -0.4486   -0.2716 H   0  0  0  0  0  0  0  0  0  0  0  0
    0.1693   -0.2866    0.0854 C   0  0  1  0  0  0  0  0  0  0  0  0
    0.1420    0.4867    0.8551 H   0  0  0  0  0  0  0  0  0  0  0  0
    1.2921   -1.2850    0.4414 C   0  0  0  0  0  0  0  0  0  0  0  0
    1.2127   -2.1511   -0.2179 H   0  0  0  0  0  0  0  0  0  0  0  0
    2.2576   -0.8105    0.2531 H   0  0  0  0  0  0  0  0  0  0  0  0
    1.2535   -1.7982    1.8894 C   0  0  0  0  0  0  0  0  0  0  0  0
    0.7700   -1.0551    2.7757 O   0  5  0  0  0  0  0  0  0  0  0  0
    1.7308   -2.9337    2.1017 O   0  0  0  0  0  0  0  0  0  0  0  0
    0.4080    0.3986   -1.2801 C   0  0  0  0  0  0  0  0  0  0  0  0
    0.7187   -0.2718   -2.2718 O   0  0  0  0  0  0  0  0  0  0  0  0
    0.2515    1.7243   -1.3492 N   0  0  0  0  0  0  0  0  0  0  0  0
    0.0805    2.1986   -0.4604 H   0  0  0  0  0  0  0  0  0  0  0  0
    0.4506    2.5339   -2.5466 C   0  0  0  0  0  0  0  0  0  0  0  0
   -0.0215    2.0483   -3.4017 H   0  0  0  0  0  0  0  0  0  0  0  0
    0.0131    3.5207   -2.3977 H   0  0  0  0  0  0  0  0  0  0  0  0
    1.5190    2.6351   -2.7383 H   0  0  0  0  0  0  0  0  0  0  0  0
  5  6  2  0  0  0  0
  5  7  1  0  0  0  0
  2  3  1  0  0  0  0
  2  4  1  0  0  0  0
  2  5  1  0  0  0  0
  1  2  1  0  0  0  0
 17 18  2  0  0  0  0
 17 19  1  0  0  0  0
 14 15  1  0  0  0  0
 14 16  2  0  0  0  0
 11 12  1  0  0  0  0
 11 13  1  0  0  0  0
 11 14  1  0  0  0  0
  9 10  1  0  0  0  0
  9 11  1  0  0  0  0
  9 17  1  0  0  0  0
  7  8  1  0  0  0  0
  7  9  1  0  0  0  0
 21 22  1  0  0  0  0
 21 23  1  0  0  0  0
 21 24  1  0  0  0  0
 19 20  1  0  0  0  0
 19 21  1  0  0  0  0
M  CHG  1  15  -1
M  END
$$$$
default_name
  -OEChem-01062215323D

 24 23  0     1  0  0  0  0  0999 V2000
   -2.8347   -3.7166    0.8034 H   0  0  0  0  0  0  0  0  0  0  0  0
   -2.7728   -2.7096    0.3954 C   0  0  0  0  0  0  0  0  0  0  0  0
   -3.4267   -2.0426    0.9524 H   0  0  0  0  0  0  0  0  0  0  0  0
   -3.0538   -2.7186   -0.6556 H   0  0  0  0  0  0  0  0  0  0  0  0
   -1.3498   -2.2206    0.5184 C   0  0  0  0  0  0  0  0  0  0  0  0
   -0.4997   -2.9426    1.0194 O   0  0  0  0  0  0  0  0  0  0  0  0
   -1.1198   -0.9926    0.0674 N   0  0  0  0  0  0  0  0  0  0  0  0
   -1.8978   -0.4486   -0.2716 H   0  0  0  0  0  0  0  0  0  0  0  0
    0.1693   -0.2866    0.0854 C   0  0  1  0  0  0  0  0  0  0  0  0
    0.1420    0.4867    0.8551 H   0  0  0  0  0  0  0  0  0  0  0  0
    1.2921   -1.2850    0.4414 C   0  0  0  0  0  0  0  0  0  0  0  0
    1.2127   -2.1511   -0.2179 H   0  0  0  0  0  0  0  0  0  0  0  0
    2.2576   -0.8105    0.2531 H   0  0  0  0  0  0  0  0  0  0  0  0
    1.2535   -1.7982    1.8894 C   0  0  0  0  0  0  0  0  0  0  0  0
    0.7700   -1.0551    2.7757 O   0  5  0  0  0  0  0  0  0  0  0  0
    1.7308   -2.9337    2.1017 O   0  0  0  0  0  0  0  0  0  0  0  0
    0.4080    0.3986   -1.2801 C   0  0  0  0  0  0  0  0  0  0  0  0
    0.4445   -0.2708   -2.3193 O   0  0  0  0  0  0  0  0  0  0  0  0
    0.5552    1.7271   -1.2947 N   0  0  0  0  0  0  0  0  0  0  0  0
    0.5972    2.1797   -0.3796 H   0  0  0  0  0  0  0  0  0  0  0  0
    0.8028    2.5333   -2.4853 C   0  0  0  0  0  0  0  0  0  0  0  0
    0.1402    2.2134   -3.2906 H   0  0  0  0  0  0  0  0  0  0  0  0
    0.6241    3.5841   -2.2590 H   0  0  0  0  0  0  0  0  0  0  0  0
    1.8380    2.4003   -2.8003 H   0  0  0  0  0  0  0  0  0  0  0  0
  5  6  2  0  0  0  0
  5  7  1  0  0  0  0
  2  3  1  0  0  0  0
  2  4  1  0  0  0  0
  2  5  1  0  0  0  0
  1  2  1  0  0  0  0
 17 18  2  0  0  0  0
 17 19  1  0  0  0  0
 14 15  1  0  0  0  0
 14 16  2  0  0  0  0
 11 12  1  0  0  0  0
 11 13  1  0  0  0  0
 11 14  1  0  0  0  0
  9 10  1  0  0  0  0
  9 11  1  0  0  0  0
  9 17  1  0  0  0  0
  7  8  1  0  0  0  0
  7  9  1  0  0  0  0
 21 22  1  0  0  0  0
 21 23  1  0  0  0  0
 21 24  1  0  0  0  0
 19 20  1  0  0  0  0
 19 21  1  0  0  0  0
M  CHG  1  15  -1
M  END
$$$$
default_name
  -OEChem-01062215323D

 24 23  0     1  0  0  0  0  0999 V2000
   -2.8347   -3.7166    0.8034 H   0  0  0  0  0  0  0  0  0  0  0  0
   -2.7728   -2.7096    0.3954 C   0  0  0  0  0  0  0  0  0  0  0  0
   -3.4267   -2.0426    0.9524 H   0  0  0  0  0  0  0  0  0  0  0  0
   -3.0538   -2.7186   -0.6556 H   0  0  0  0  0  0  0  0  0  0  0  0
   -1.3498   -2.2206    0.5184 C   0  0  0  0  0  0  0  0  0  0  0  0
   -0.4997   -2.9426    1.0194 O   0  0  0  0  0  0  0  0  0  0  0  0
   -1.1198   -0.9926    0.0674 N   0  0  0  0  0  0  0  0  0  0  0  0
   -1.8978   -0.4486   -0.2716 H   0  0  0  0  0  0  0  0  0  0  0  0
    0.1693   -0.2866    0.0854 C   0  0  1  0  0  0  0  0  0  0  0  0
    0.1420    0.4867    0.8551 H   0  0  0  0  0  0  0  0  0  0  0  0
    1.2921   -1.2850    0.4414 C   0  0  0  0  0  0  0  0  0  0  0  0
    1.2127   -2.1511   -0.2179 H   0  0  0  0  0  0  0  0  0  0  0  0
    2.2576   -0.8105    0.2531 H   0  0  0  0  0  0  0  0  0  0  0  0
    1.2535   -1.7982    1.8894 C   0  0  0  0  0  0  0  0  0  0  0  0
    0.7700   -1.0551    2.7757 O   0  5  0  0  0  0  0  0  0  0  0  0
    1.7308   -2.9337    2.1017 O   0  0  0  0  0  0  0  0  0  0  0  0
    0.4080    0.3986   -1.2801 C   0  0  0  0  0  0  0  0  0  0  0  0
    0.1743   -0.2054   -2.3337 O   0  0  0  0  0  0  0  0  0  0  0  0
    0.8554    1.6582   -1.2767 N   0  0  0  0  0  0  0  0  0  0  0  0
    1.1012    2.0402   -0.3615 H   0  0  0  0  0  0  0  0  0  0  0  0
    1.1499    2.4498   -2.4665 C   0  0  0  0  0  0  0  0  0  0  0  0
    0.3468    2.3315   -3.1952 H   0  0  0  0  0  0  0  0  0  0  0  0
    1.2447    3.5002   -2.1926 H   0  0  0  0  0  0  0  0  0  0  0  0
    2.0852    2.1030   -2.9063 H   0  0  0  0  0  0  0  0  0  0  0  0
  5  6  2  0  0  0  0
  5  7  1  0  0  0  0
  2  3  1  0  0  0  0
  2  4  1  0  0  0  0
  2  5  1  0  0  0  0
  1  2  1  0  0  0  0
 17 18  2  0  0  0  0
 17 19  1  0  0  0  0
 14 15  1  0  0  0  0
 14 16  2  0  0  0  0
 11 12  1  0  0  0  0
 11 13  1  0  0  0  0
 11 14  1  0  0  0  0
  9 10  1  0  0  0  0
  9 11  1  0  0  0  0
  9 17  1  0  0  0  0
  7  8  1  0  0  0  0
  7  9  1  0  0  0  0
 21 22  1  0  0  0  0
 21 23  1  0  0  0  0
 21 24  1  0  0  0  0
 19 20  1  0  0  0  0
 19 21  1  0  0  0  0
M  CHG  1  15  -1
M  END
$$$$
default_name
  -OEChem-01062215323D

 24 23  0     1  0  0  0  0  0999 V2000
   -2.8347   -3.7166    0.8034 H   0  0  0  0  0  0  0  0  0  0  0  0
   -2.7728   -2.7096    0.3954 C   0  0  0  0  0  0  0  0  0  0  0  0
   -3.4267   -2.0426    0.9524 H   0  0  0  0  0  0  0  0  0  0  0  0
   -3.0538   -2.7186   -0.6556 H   0  0  0  0  0  0  0  0  0  0  0  0
   -1.3498   -2.2206    0.5184 C   0  0  0  0  0  0  0  0  0  0  0  0
   -0.4997   -2.9426    1.0194 O   0  0  0  0  0  0  0  0  0  0  0  0
   -1.1198   -0.9926    0.0674 N   0  0  0  0  0  0  0  0  0  0  0  0
   -1.8978   -0.4486   -0.2716 H   0  0  0  0  0  0  0  0  0  0  0  0
    0.1693   -0.2866    0.0854 C   0  0  1  0  0  0  0  0  0  0  0  0
    0.1420    0.4867    0.8551 H   0  0  0  0  0  0  0  0  0  0  0  0
    1.2921   -1.2850    0.4414 C   0  0  0  0  0  0  0  0  0  0  0  0
    1.2127   -2.1511   -0.2179 H   0  0  0  0  0  0  0  0  0  0  0  0
    2.2576   -0.8105    0.2531 H   0  0  0  0  0  0  0  0  0  0  0  0
    1.2535   -1.7982    1.8894 C   0  0  0  0  0  0  0  0  0  0  0  0
    0.7700   -1.0551    2.7757 O   0  5  0  0  0  0  0  0  0  0  0  0
    1.7308   -2.9337    2.1017 O   0  0  0  0  0  0  0  0  0  0  0  0
    0.4080    0.3986   -1.2801 C   0  0  0  0  0  0  0  0  0  0  0  0
   -0.0733   -0.0798   -2.3140 O   0  0  0  0  0  0  0  0  0  0  0  0
    1.1317    1.5224   -1.2966 N   0  0  0  0  0  0  0  0  0  0  0  0
    1.5582    1.7894   -0.4073 H   0  0  0  0  0  0  0  0  0  0  0  0
    1.4682    2.2890   -2.4915 C   0  0  0  0  0  0  0  0  0  0  0  0
    0.5844    2.3945   -3.1220 H   0  0  0  0  0  0  0  0  0  0  0  0
    1.8325    3.2746   -2.2030 H   0  0  0  0  0  0  0  0  0  0  0  0
    2.2440    1.7636   -3.0488 H   0  0  0  0  0  0  0  0  0  0  0  0
  5  6  2  0  0  0  0
  5  7  1  0  0  0  0
  2  3  1  0  0  0  0
  2  4  1  0  0  0  0
  2  5  1  0  0  0  0
  1  2  1  0  0  0  0
 17 18  2  0  0  0  0
 17 19  1  0  0  0  0
 14 15  1  0  0  0  0
 14 16  2  0  0  0  0
 11 12  1  0  0  0  0
 11 13  1  0  0  0  0
 11 14  1  0  0  0  0
  9 10  1  0  0  0  0
  9 11  1  0  0  0  0
  9 17  1  0  0  0  0
  7  8  1  0  0  0  0
  7  9  1  0  0  0  0
 21 22  1  0  0  0  0
 21 23  1  0  0  0  0
 21 24  1  0  0  0  0
 19 20  1  0  0  0  0
 19 21  1  0  0  0  0
M  CHG  1  15  -1
M  END
$$$$
default_name
  -OEChem-01062215323D

 24 23  0     1  0  0  0  0  0999 V2000
   -2.8347   -3.7166    0.8034 H   0  0  0  0  0  0  0  0  0  0  0  0
   -2.7728   -2.7096    0.3954 C   0  0  0  0  0  0  0  0  0  0  0  0
   -3.4267   -2.0426    0.9524 H   0  0  0  0  0  0  0  0  0  0  0  0
   -3.0538   -2.7186   -0.6556 H   0  0  0  0  0  0  0  0  0  0  0  0
   -1.3498   -2.2206    0.5184 C   0  0  0  0  0  0  0  0  0  0  0  0
   -0.4997   -2.9426    1.0194 O   0  0  0  0  0  0  0  0  0  0  0  0
   -1.1198   -0.9926    0.0674 N   0  0  0  0  0  0  0  0  0  0  0  0
   -1.8978   -0.4486   -0.2716 H   0  0  0  0  0  0  0  0  0  0  0  0
    0.1693   -0.2866    0.0854 C   0  0  1  0  0  0  0  0  0  0  0  0
    0.1420    0.4867    0.8551 H   0  0  0  0  0  0  0  0  0  0  0  0
    1.2921   -1.2850    0.4414 C   0  0  0  0  0  0  0  0  0  0  0  0
    1.2127   -2.1511   -0.2179 H   0  0  0  0  0  0  0  0  0  0  0  0
    2.2576   -0.8105    0.2531 H   0  0  0  0  0  0  0  0  0  0  0  0
    1.2535   -1.7982    1.8894 C   0  0  0  0  0  0  0  0  0  0  0  0
    0.7700   -1.0551    2.7757 O   0  5  0  0  0  0  0  0  0  0  0  0
    1.7308   -2.9337    2.1017 O   0  0  0  0  0  0  0  0  0  0  0  0
    0.4080    0.3986   -1.2801 C   0  0  0  0  0  0  0  0  0  0  0  0
   -0.2815    0.0973   -2.2615 O   0  0  0  0  0  0  0  0  0  0  0  0
    1.3653    1.3288   -1.3529 N   0  0  0  0  0  0  0  0  0  0  0  0
    1.9371    1.4447   -0.5141 H   0  0  0  0  0  0  0  0  0  0  0  0
    1.7361    2.0620   -2.5586 C   0  0  0  0  0  0  0  0  0  0  0  0
    0.8366    2.3981   -3.0761 H   0  0  0  0  0  0  0  0  0  0  0  0
    2.3476    2.9228   -2.2895 H   0  0  0  0  0  0  0  0  0  0  0  0
    2.3034    1.4052   -3.2183 H   0  0  0  0  0  0  0  0  0  0  0  0
  5  6  2  0  0  0  0
  5  7  1  0  0  0  0
  2  3  1  0  0  0  0
  2  4  1  0  0  0  0
  2  5  1  0  0  0  0
  1  2  1  0  0  0  0
 17 18  2  0  0  0  0
 17 19  1  0  0  0  0
 14 15  1  0  0  0  0
 14 16  2  0  0  0  0
 11 12  1  0  0  0  0
 11 13  1  0  0  0  0
 11 14  1  0  0  0  0
  9 10  1  0  0  0  0
  9 11  1  0  0  0  0
  9 17  1  0  0  0  0
  7  8  1  0  0  0  0
  7  9  1  0  0  0  0
 21 22  1  0  0  0  0
 21 23  1  0  0  0  0
 21 24  1  0  0  0  0
 19 20  1  0  0  0  0
 19 21  1  0  0  0  0
M  CHG  1  15  -1
M  END
$$$$
default_name
  -OEChem-01062215323D

 24 23  0     1  0  0  0  0  0999 V2000
   -2.8347   -3.7166    0.8034 H   0  0  0  0  0  0  0  0  0  0  0  0
   -2.7728   -2.7096    0.3954 C   0  0  0  0  0  0  0  0  0  0  0  0
   -3.4267   -2.0426    0.9524 H   0  0  0  0  0  0  0  0  0  0  0  0
   -3.0538   -2.7186   -0.6556 H   0  0  0  0  0  0  0  0  0  0  0  0
   -1.3498   -2.2206    0.5184 C   0  0  0  0  0  0  0  0  0  0  0  0
   -0.4997   -2.9426    1.0194 O   0  0  0  0  0  0  0  0  0  0  0  0
   -1.1198   -0.9926    0.0674 N   0  0  0  0  0  0  0  0  0  0  0  0
   -1.8978   -0.4486   -0.2716 H   0  0  0  0  0  0  0  0  0  0  0  0
    0.1693   -0.2866    0.0854 C   0  0  1  0  0  0  0  0  0  0  0  0
    0.2468    0.2914    1.0080 H   0  0  0  0  0  0  0  0  0  0  0  0
    1.3165   -1.3199    0.0633 C   0  0  0  0  0  0  0  0  0  0  0  0
    1.1458   -2.0152   -0.7605 H   0  0  0  0  0  0  0  0  0  0  0  0
    2.2562   -0.7982   -0.1305 H   0  0  0  0  0  0  0  0  0  0  0  0
    1.4530   -2.1487    1.3501 C   0  0  0  0  0  0  0  0  0  0  0  0
    1.0922   -1.6345    2.4350 O   0  5  0  0  0  0  0  0  0  0  0  0
    1.9403   -3.2942    1.2381 O   0  0  0  0  0  0  0  0  0  0  0  0
    0.2436    0.6945   -1.1075 C   0  0  0  0  0  0  0  0  0  0  0  0
   -0.7072    0.8013   -1.8912 O   0  0  0  0  0  0  0  0  0  0  0  0
    1.3544    1.4249   -1.2468 N   0  0  0  0  0  0  0  0  0  0  0  0
    2.1160    1.2029   -0.6029 H   0  0  0  0  0  0  0  0  0  0  0  0
    1.6018    2.3842   -2.3180 C   0  0  0  0  0  0  0  0  0  0  0  0
    0.7163    3.0027   -2.4698 H   0  0  0  0  0  0  0  0  0  0  0  0
    2.4496    3.0159   -2.0544 H   0  0  0  0  0  0  0  0  0  0  0  0
    1.8230    1.8449   -3.2393 H   0  0  0  0  0  0  0  0  0  0  0  0
  5  6  2  0  0  0  0
  5  7  1  0  0  0  0
  2  3  1  0  0  0  0
  2  4  1  0  0  0  0
  2  5  1  0  0  0  0
  1  2  1  0  0  0  0
 17 18  2  0  0  0  0
 17 19  1  0  0  0  0
 14 15  1  0  0  0  0
 14 16  2  0  0  0  0
 11 12  1  0  0  0  0
 11 13  1  0  0  0  0
 11 14  1  0  0  0  0
  9 10  1  0  0  0  0
  9 11  1  0  0  0  0
  9 17  1  0  0  0  0
  7  8  1  0  0  0  0
  7  9  1  0  0  0  0
 21 22  1  0  0  0  0
 21 23  1  0  0  0  0
 21 24  1  0  0  0  0
 19 20  1  0  0  0  0
 19 21  1  0  0  0  0
M  CHG  1  15  -1
M  END
$$$$
default_name
  -OEChem-01062215323D

 24 23  0     1  0  0  0  0  0999 V2000
   -2.8347   -3.7166    0.8034 H   0  0  0  0  0  0  0  0  0  0  0  0
   -2.7728   -2.7096    0.3954 C   0  0  0  0  0  0  0  0  0  0  0  0
   -3.4267   -2.0426    0.9524 H   0  0  0  0  0  0  0  0  0  0  0  0
   -3.0538   -2.7186   -0.6556 H   0  0  0  0  0  0  0  0  0  0  0  0
   -1.3498   -2.2206    0.5184 C   0  0  0  0  0  0  0  0  0  0  0  0
   -0.4997   -2.9426    1.0194 O   0  0  0  0  0  0  0  0  0  0  0  0
   -1.1198   -0.9926    0.0674 N   0  0  0  0  0  0  0  0  0  0  0  0
   -1.8978   -0.4486   -0.2716 H   0  0  0  0  0  0  0  0  0  0  0  0
    0.1693   -0.2866    0.0854 C   0  0  1  0  0  0  0  0  0  0  0  0
    0.2468    0.2914    1.0080 H   0  0  0  0  0  0  0  0  0  0  0  0
    1.3165   -1.3199    0.0633 C   0  0  0  0  0  0  0  0  0  0  0  0
    1.1458   -2.0152   -0.7605 H   0  0  0  0  0  0  0  0  0  0  0  0
    2.2562   -0.7982   -0.1305 H   0  0  0  0  0  0  0  0  0  0  0  0
    1.4530   -2.1487    1.3501 C   0  0  0  0  0  0  0  0  0  0  0  0
    1.0922   -1.6345    2.4350 O   0  5  0  0  0  0  0  0  0  0  0  0
    1.9403   -3.2942    1.2381 O   0  0  0  0  0  0  0  0  0  0  0  0
    0.2436    0.6945   -1.1075 C   0  0  0  0  0  0  0  0  0  0  0  0
   -0.7811    1.0107   -1.7235 O   0  0  0  0  0  0  0  0  0  0  0  0
    1.4405    1.1935   -1.4318 N   0  0  0  0  0  0  0  0  0  0  0  0
    2.2366    0.8060   -0.9218 H   0  0  0  0  0  0  0  0  0  0  0  0
    1.6974    2.1153   -2.5332 C   0  0  0  0  0  0  0  0  0  0  0  0
    0.9414    2.9015   -2.5390 H   0  0  0  0  0  0  0  0  0  0  0  0
    2.6862    2.5581   -2.4162 H   0  0  0  0  0  0  0  0  0  0  0  0
    1.6528    1.5698   -3.4761 H   0  0  0  0  0  0  0  0  0  0  0  0
  5  6  2  0  0  0  0
  5  7  1  0  0  0  0
  2  3  1  0  0  0  0
  2  4  1  0  0  0  0
  2  5  1  0  0  0  0
  1  2  1  0  0  0  0
 17 18  2  0  0  0  0
 17 19  1  0  0  0  0
 14 15  1  0  0  0  0
 14 16  2  0  0  0  0
 11 12  1  0  0  0  0
 11 13  1  0  0  0  0
 11 14  1  0  0  0  0
  9 10  1  0  0  0  0
  9 11  1  0  0  0  0
  9 17  1  0  0  0  0
  7  8  1  0  0  0  0
  7  9  1  0  0  0  0
 21 22  1  0  0  0  0
 21 23  1  0  0  0  0
 21 24  1  0  0  0  0
 19 20  1  0  0  0  0
 19 21  1  0  0  0  0
M  CHG  1  15  -1
M  END
$$$$
default_name
  -OEChem-01062215323D

 24 23  0     1  0  0  0  0  0999 V2000
   -2.8347   -3.7166    0.8034 H   0  0  0  0  0  0  0  0  0  0  0  0
   -2.7728   -2.7096    0.3954 C   0  0  0  0  0  0  0  0  0  0  0  0
   -3.4267   -2.0426    0.9524 H   0  0  0  0  0  0  0  0  0  0  0  0
   -3.0538   -2.7186   -0.6556 H   0  0  0  0  0  0  0  0  0  0  0  0
   -1.3498   -2.2206    0.5184 C   0  0  0  0  0  0  0  0  0  0  0  0
   -0.4997   -2.9426    1.0194 O   0  0  0  0  0  0  0  0  0  0  0  0
   -1.1198   -0.9926    0.0674 N   0  0  0  0  0  0  0  0  0  0  0  0
   -1.8978   -0.4486   -0.2716 H   0  0  0  0  0  0  0  0  0  0  0  0
    0.1693   -0.2866    0.0854 C   0  0  1  0  0  0  0  0  0  0  0  0
    0.2468    0.2914    1.0080 H   0  0  0  0  0  0  0  0  0  0  0  0
    1.3165   -1.3199    0.0633 C   0  0  0  0  0  0  0  0  0  0  0  0
    1.1458   -2.0152   -0.7605 H   0  0  0  0  0  0  0  0  0  0  0  0
    2.2562   -0.7982   -0.1305 H   0  0  0  0  0  0  0  0  0  0  0  0
    1.4530   -2.1487    1.3501 C   0  0  0  0  0  0  0  0  0  0  0  0
    1.0922   -1.6345    2.4350 O   0  5  0  0  0  0  0  0  0  0  0  0
    1.9403   -3.2942    1.2381 O   0  0  0  0  0  0  0  0  0  0  0  0
    0.2436    0.6945   -1.1075 C   0  0  0  0  0  0  0  0  0  0  0  0
   -0.7832    1.2258   -1.5468 O   0  0  0  0  0  0  0  0  0  0  0  0
    1.4471    0.9550   -1.6275 N   0  0  0  0  0  0  0  0  0  0  0  0
    2.2214    0.4025   -1.2547 H   0  0  0  0  0  0  0  0  0  0  0  0
    1.7008    1.8391   -2.7602 C   0  0  0  0  0  0  0  0  0  0  0  0
    1.1274    2.7597   -2.6441 H   0  0  0  0  0  0  0  0  0  0  0  0
    2.7639    2.0731   -2.8103 H   0  0  0  0  0  0  0  0  0  0  0  0
    1.3946    1.3411   -3.6803 H   0  0  0  0  0  0  0  0  0  0  0  0
  5  6  2  0  0  0  0
  5  7  1  0  0  0  0
  2  3  1  0  0  0  0
  2  4  1  0  0  0  0
  2  5  1  0  0  0  0
  1  2  1  0  0  0  0
 17 18  2  0  0  0  0
 17 19  1  0  0  0  0
 14 15  1  0  0  0  0
 14 16  2  0  0  0  0
 11 12  1  0  0  0  0
 11 13  1  0  0  0  0
 11 14  1  0  0  0  0
  9 10  1  0  0  0  0
  9 11  1  0  0  0  0
  9 17  1  0  0  0  0
  7  8  1  0  0  0  0
  7  9  1  0  0  0  0
 21 22  1  0  0  0  0
 21 23  1  0  0  0  0
 21 24  1  0  0  0  0
 19 20  1  0  0  0  0
 19 21  1  0  0  0  0
M  CHG  1  15  -1
M  END
$$$$
default_name
  -OEChem-01062215323D

 24 23  0     1  0  0  0  0  0999 V2000
   -2.8347   -3.7166    0.8034 H   0  0  0  0  0  0  0  0  0  0  0  0
   -2.7728   -2.7096    0.3954 C   0  0  0  0  0  0  0  0  0  0  0  0
   -3.4267   -2.0426    0.9524 H   0  0  0  0  0  0  0  0  0  0  0  0
   -3.0538   -2.7186   -0.6556 H   0  0  0  0  0  0  0  0  0  0  0  0
   -1.3498   -2.2206    0.5184 C   0  0  0  0  0  0  0  0  0  0  0  0
   -0.4997   -2.9426    1.0194 O   0  0  0  0  0  0  0  0  0  0  0  0
   -1.1198   -0.9926    0.0674 N   0  0  0  0  0  0  0  0  0  0  0  0
   -1.8978   -0.4486   -0.2716 H   0  0  0  0  0  0  0  0  0  0  0  0
    0.1693   -0.2866    0.0854 C   0  0  1  0  0  0  0  0  0  0  0  0
    0.2468    0.2914    1.0080 H   0  0  0  0  0  0  0  0  0  0  0  0
    1.3165   -1.3199    0.0633 C   0  0  0  0  0  0  0  0  0  0  0  0
    1.1458   -2.0152   -0.7605 H   0  0  0  0  0  0  0  0  0  0  0  0
    2.2562   -0.7982   -0.1305 H   0  0  0  0  0  0  0  0  0  0  0  0
    1.4530   -2.1487    1.3501 C   0  0  0  0  0  0  0  0  0  0  0  0
    1.0922   -1.6345    2.4350 O   0  5  0  0  0  0  0  0  0  0  0  0
    1.9403   -3.2942    1.2381 O   0  0  0  0  0  0  0  0  0  0  0  0
    0.2436    0.6945   -1.1075 C   0  0  0  0  0  0  0  0  0  0  0  0
   -0.7133    1.4317   -1.3731 O   0  0  0  0  0  0  0  0  0  0  0  0
    1.3737    0.7258   -1.8206 N   0  0  0  0  0  0  0  0  0  0  0  0
    2.0716    0.0198   -1.5787 H   0  0  0  0  0  0  0  0  0  0  0  0
    1.6117    1.5745   -2.9834 C   0  0  0  0  0  0  0  0  0  0  0  0
    1.2614    2.5868   -2.7779 H   0  0  0  0  0  0  0  0  0  0  0  0
    2.6774    1.5941   -3.2097 H   0  0  0  0  0  0  0  0  0  0  0  0
    1.0659    1.1742   -3.8380 H   0  0  0  0  0  0  0  0  0  0  0  0
  5  6  2  0  0  0  0
  5  7  1  0  0  0  0
  2  3  1  0  0  0  0
  2  4  1  0  0  0  0
  2  5  1  0  0  0  0
  1  2  1  0  0  0  0
 17 18  2  0  0  0  0
 17 19  1  0  0  0  0
 14 15  1  0  0  0  0
 14 16  2  0  0  0  0
 11 12  1  0  0  0  0
 11 13  1  0  0  0  0
 11 14  1  0  0  0  0
  9 10  1  0  0  0  0
  9 11  1  0  0  0  0
  9 17  1  0  0  0  0
  7  8  1  0  0  0  0
  7  9  1  0  0  0  0
 21 22  1  0  0  0  0
 21 23  1  0  0  0  0
 21 24  1  0  0  0  0
 19 20  1  0  0  0  0
 19 21  1  0  0  0  0
M  CHG  1  15  -1
M  END
$$$$
default_name
  -OEChem-01062215323D

 24 23  0     1  0  0  0  0  0999 V2000
   -2.8347   -3.7166    0.8034 H   0  0  0  0  0  0  0  0  0  0  0  0
   -2.7728   -2.7096    0.3954 C   0  0  0  0  0  0  0  0  0  0  0  0
   -3.4267   -2.0426    0.9524 H   0  0  0  0  0  0  0  0  0  0  0  0
   -3.0538   -2.7186   -0.6556 H   0  0  0  0  0  0  0  0  0  0  0  0
   -1.3498   -2.2206    0.5184 C   0  0  0  0  0  0  0  0  0  0  0  0
   -0.4997   -2.9426    1.0194 O   0  0  0  0  0  0  0  0  0  0  0  0
   -1.1198   -0.9926    0.0674 N   0  0  0  0  0  0  0  0  0  0  0  0
   -1.8978   -0.4486   -0.2716 H   0  0  0  0  0  0  0  0  0  0  0  0
    0.1693   -0.2866    0.0854 C   0  0  1  0  0  0  0  0  0  0  0  0
    0.2468    0.2914    1.0080 H   0  0  0  0  0  0  0  0  0  0  0  0
    1.3165   -1.3199    0.0633 C   0  0  0  0  0  0  0  0  0  0  0  0
    1.1458   -2.0152   -0.7605 H   0  0  0  0  0  0  0  0  0  0  0  0
    2.2562   -0.7982   -0.1305 H   0  0  0  0  0  0  0  0  0  0  0  0
    1.4530   -2.1487    1.3501 C   0  0  0  0  0  0  0  0  0  0  0  0
    1.0922   -1.6345    2.4350 O   0  5  0  0  0  0  0  0  0  0  0  0
    1.9403   -3.2942    1.2381 O   0  0  0  0  0  0  0  0  0  0  0  0
    0.2436    0.6945   -1.1075 C   0  0  0  0  0  0  0  0  0  0  0  0
   -0.5761    1.6145   -1.2142 O   0  0  0  0  0  0  0  0  0  0  0  0
    1.2253    0.5215   -1.9979 N   0  0  0  0  0  0  0  0  0  0  0  0
    1.7972   -0.3158   -1.8719 H   0  0  0  0  0  0  0  0  0  0  0  0
    1.4361    1.3394   -3.1876 C   0  0  0  0  0  0  0  0  0  0  0  0
    1.3344    2.3948   -2.9313 H   0  0  0  0  0  0  0  0  0  0  0  0
    2.4326    1.1535   -3.5873 H   0  0  0  0  0  0  0  0  0  0  0  0
    0.6893    1.0806   -3.9385 H   0  0  0  0  0  0  0  0  0  0  0  0
  5  6  2  0  0  0  0
  5  7  1  0  0  0  0
  2  3  1  0  0  0  0
  2  4  1  0  0  0  0
  2  5  1  0  0  0  0
  1  2  1  0  0  0  0
 17 18  2  0  0  0  0
 17 19  1  0  0  0  0
 14 15  1  0  0  0  0
 14 16  2  0  0  0  0
 11 12  1  0  0  0  0
 11 13  1  0  0  0  0
 11 14  1  0  0  0  0
  9 10  1  0  0  0  0
  9 11  1  0  0  0  0
  9 17  1  0  0  0  0
  7  8  1  0  0  0  0
  7  9  1  0  0  0  0
 21 22  1  0  0  0  0
 21 23  1  0  0  0  0
 21 24  1  0  0  0  0
 19 20  1  0  0  0  0
 19 21  1  0  0  0  0
M  CHG  1  15  -1
M  END
$$$$
default_name
  -OEChem-01062215323D

 24 23  0     1  0  0  0  0  0999 V2000
   -2.8347   -3.7166    0.8034 H   0  0  0  0  0  0  0  0  0  0  0  0
   -2.7728   -2.7096    0.3954 C   0  0  0  0  0  0  0  0  0  0  0  0
   -3.4267   -2.0426    0.9524 H   0  0  0  0  0  0  0  0  0  0  0  0
   -3.0538   -2.7186   -0.6556 H   0  0  0  0  0  0  0  0  0  0  0  0
   -1.3498   -2.2206    0.5184 C   0  0  0  0  0  0  0  0  0  0  0  0
   -0.4997   -2.9426    1.0194 O   0  0  0  0  0  0  0  0  0  0  0  0
   -1.1198   -0.9926    0.0674 N   0  0  0  0  0  0  0  0  0  0  0  0
   -1.8978   -0.4486   -0.2716 H   0  0  0  0  0  0  0  0  0  0  0  0
    0.1693   -0.2866    0.0854 C   0  0  1  0  0  0  0  0  0  0  0  0
    0.2468    0.2914    1.0080 H   0  0  0  0  0  0  0  0  0  0  0  0
    1.3165   -1.3199    0.0633 C   0  0  0  0  0  0  0  0  0  0  0  0
    1.1458   -2.0152   -0.7605 H   0  0  0  0  0  0  0  0  0  0  0  0
    2.2562   -0.7982   -0.1305 H   0  0  0  0  0  0  0  0  0  0  0  0
    1.4530   -2.1487    1.3501 C   0  0  0  0  0  0  0  0  0  0  0  0
    1.0922   -1.6345    2.4350 O   0  5  0  0  0  0  0  0  0  0  0  0
    1.9403   -3.2942    1.2381 O   0  0  0  0  0  0  0  0  0  0  0  0
    0.2436    0.6945   -1.1075 C   0  0  0  0  0  0  0  0  0  0  0  0
   -0.3810    1.7616   -1.0810 O   0  0  0  0  0  0  0  0  0  0  0  0
    1.0121    0.3560   -2.1474 N   0  0  0  0  0  0  0  0  0  0  0  0
    1.4171   -0.5816   -2.1141 H   0  0  0  0  0  0  0  0  0  0  0  0
    1.1860    1.1500   -3.3590 C   0  0  0  0  0  0  0  0  0  0  0  0
    1.3413    2.1966   -3.0939 H   0  0  0  0  0  0  0  0  0  0  0  0
    2.0462    0.7816   -3.9173 H   0  0  0  0  0  0  0  0  0  0  0  0
    0.2903    1.0666   -3.9748 H   0  0  0  0  0  0  0  0  0  0  0  0
  5  6  2  0  0  0  0
  5  7  1  0  0  0  0
  2  3  1  0  0  0  0
  2  4  1  0  0  0  0
  2  5  1  0  0  0  0
  1  2  1  0  0  0  0
 17 18  2  0  0  0  0
 17 19  1  0  0  0  0
 14 15  1  0  0  0  0
 14 16  2  0  0  0  0
 11 12  1  0  0  0  0
 11 13  1  0  0  0  0
 11 14  1  0  0  0  0
  9 10  1  0  0  0  0
  9 11  1  0  0  0  0
  9 17  1  0  0  0  0
  7  8  1  0  0  0  0
  7  9  1  0  0  0  0
 21 22  1  0  0  0  0
 21 23  1  0  0  0  0
 21 24  1  0  0  0  0
 19 20  1  0  0  0  0
 19 21  1  0  0  0  0
M  CHG  1  15  -1
M  END
$$$$
default_name
  -OEChem-01062215323D

 24 23  0     1  0  0  0  0  0999 V2000
   -2.8347   -3.7166    0.8034 H   0  0  0  0  0  0  0  0  0  0  0  0
   -2.7728   -2.7096    0.3954 C   0  0  0  0  0  0  0  0  0  0  0  0
   -3.4267   -2.0426    0.9524 H   0  0  0  0  0  0  0  0  0  0  0  0
   -3.0538   -2.7186   -0.6556 H   0  0  0  0  0  0  0  0  0  0  0  0
   -1.3498   -2.2206    0.5184 C   0  0  0  0  0  0  0  0  0  0  0  0
   -0.4997   -2.9426    1.0194 O   0  0  0  0  0  0  0  0  0  0  0  0
   -1.1198   -0.9926    0.0674 N   0  0  0  0  0  0  0  0  0  0  0  0
   -1.8978   -0.4486   -0.2716 H   0  0  0  0  0  0  0  0  0  0  0  0
    0.1693   -0.2866    0.0854 C   0  0  1  0  0  0  0  0  0  0  0  0
    0.2468    0.2914    1.0080 H   0  0  0  0  0  0  0  0  0  0  0  0
    1.3165   -1.3199    0.0633 C   0  0  0  0  0  0  0  0  0  0  0  0
    1.1458   -2.0152   -0.7605 H   0  0  0  0  0  0  0  0  0  0  0  0
    2.2562   -0.7982   -0.1305 H   0  0  0  0  0  0  0  0  0  0  0  0
    1.4530   -2.1487    1.3501 C   0  0  0  0  0  0  0  0  0  0  0  0
    1.0922   -1.6345    2.4350 O   0  5  0  0  0  0  0  0  0  0  0  0
    1.9403   -3.2942    1.2381 O   0  0  0  0  0  0  0  0  0  0  0  0
    0.2436    0.6945   -1.1075 C   0  0  0  0  0  0  0  0  0  0  0  0
   -0.1413    1.8632   -0.9825 O   0  0  0  0  0  0  0  0  0  0  0  0
    0.7486    0.2405   -2.2588 N   0  0  0  0  0  0  0  0  0  0  0  0
    0.9570   -0.7594   -2.2890 H   0  0  0  0  0  0  0  0  0  0  0  0
    0.8785    1.0191   -3.4858 C   0  0  0  0  0  0  0  0  0  0  0  0
    1.2818    2.0059   -3.2545 H   0  0  0  0  0  0  0  0  0  0  0  0
    1.5445    0.5036   -4.1772 H   0  0  0  0  0  0  0  0  0  0  0  0
   -0.1039    1.1333   -3.9446 H   0  0  0  0  0  0  0  0  0  0  0  0
  5  6  2  0  0  0  0
  5  7  1  0  0  0  0
  2  3  1  0  0  0  0
  2  4  1  0  0  0  0
  2  5  1  0  0  0  0
  1  2  1  0  0  0  0
 17 18  2  0  0  0  0
 17 19  1  0  0  0  0
 14 15  1  0  0  0  0
 14 16  2  0  0  0  0
 11 12  1  0  0  0  0
 11 13  1  0  0  0  0
 11 14  1  0  0  0  0
  9 10  1  0  0  0  0
  9 11  1  0  0  0  0
  9 17  1  0  0  0  0
  7  8  1  0  0  0  0
  7  9  1  0  0  0  0
 21 22  1  0  0  0  0
 21 23  1  0  0  0  0
 21 24  1  0  0  0  0
 19 20  1  0  0  0  0
 19 21  1  0  0  0  0
M  CHG  1  15  -1
M  END
$$$$
default_name
  -OEChem-01062215323D

 24 23  0     1  0  0  0  0  0999 V2000
   -2.8347   -3.7166    0.8034 H   0  0  0  0  0  0  0  0  0  0  0  0
   -2.7728   -2.7096    0.3954 C   0  0  0  0  0  0  0  0  0  0  0  0
   -3.4267   -2.0426    0.9524 H   0  0  0  0  0  0  0  0  0  0  0  0
   -3.0538   -2.7186   -0.6556 H   0  0  0  0  0  0  0  0  0  0  0  0
   -1.3498   -2.2206    0.5184 C   0  0  0  0  0  0  0  0  0  0  0  0
   -0.4997   -2.9426    1.0194 O   0  0  0  0  0  0  0  0  0  0  0  0
   -1.1198   -0.9926    0.0674 N   0  0  0  0  0  0  0  0  0  0  0  0
   -1.8978   -0.4486   -0.2716 H   0  0  0  0  0  0  0  0  0  0  0  0
    0.1693   -0.2866    0.0854 C   0  0  1  0  0  0  0  0  0  0  0  0
    0.2468    0.2914    1.0080 H   0  0  0  0  0  0  0  0  0  0  0  0
    1.3165   -1.3199    0.0633 C   0  0  0  0  0  0  0  0  0  0  0  0
    1.1458   -2.0152   -0.7605 H   0  0  0  0  0  0  0  0  0  0  0  0
    2.2562   -0.7982   -0.1305 H   0  0  0  0  0  0  0  0  0  0  0  0
    1.4530   -2.1487    1.3501 C   0  0  0  0  0  0  0  0  0  0  0  0
    1.0922   -1.6345    2.4350 O   0  5  0  0  0  0  0  0  0  0  0  0
    1.9403   -3.2942    1.2381 O   0  0  0  0  0  0  0  0  0  0  0  0
    0.2436    0.6945   -1.1075 C   0  0  0  0  0  0  0  0  0  0  0  0
    0.1267    1.9122   -0.9255 O   0  0  0  0  0  0  0  0  0  0  0  0
    0.4527    0.1829   -2.3246 N   0  0  0  0  0  0  0  0  0  0  0  0
    0.4484   -0.8371   -2.3846 H   0  0  0  0  0  0  0  0  0  0  0  0
    0.5344    0.9557   -3.5595 C   0  0  0  0  0  0  0  0  0  0  0  0
    1.1598    1.8355   -3.4022 H   0  0  0  0  0  0  0  0  0  0  0  0
    0.9618    0.3385   -4.3493 H   0  0  0  0  0  0  0  0  0  0  0  0
   -0.4664    1.2760   -3.8498 H   0  0  0  0  0  0  0  0  0  0  0  0
  5  6  2  0  0  0  0
  5  7  1  0  0  0  0
  2  3  1  0  0  0  0
  2  4  1  0  0  0  0
  2  5  1  0  0  0  0
  1  2  1  0  0  0  0
 17 18  2  0  0  0  0
 17 19  1  0  0  0  0
 14 15  1  0  0  0  0
 14 16  2  0  0  0  0
 11 12  1  0  0  0  0
 11 13  1  0  0  0  0
 11 14  1  0  0  0  0
  9 10  1  0  0  0  0
  9 11  1  0  0  0  0
  9 17  1  0  0  0  0
  7  8  1  0  0  0  0
  7  9  1  0  0  0  0
 21 22  1  0  0  0  0
 21 23  1  0  0  0  0
 21 24  1  0  0  0  0
 19 20  1  0  0  0  0
 19 21  1  0  0  0  0
M  CHG  1  15  -1
M  END
$$$$
default_name
  -OEChem-01062215323D

 24 23  0     1  0  0  0  0  0999 V2000
   -2.8347   -3.7166    0.8034 H   0  0  0  0  0  0  0  0  0  0  0  0
   -2.7728   -2.7096    0.3954 C   0  0  0  0  0  0  0  0  0  0  0  0
   -3.4267   -2.0426    0.9524 H   0  0  0  0  0  0  0  0  0  0  0  0
   -3.0538   -2.7186   -0.6556 H   0  0  0  0  0  0  0  0  0  0  0  0
   -1.3498   -2.2206    0.5184 C   0  0  0  0  0  0  0  0  0  0  0  0
   -0.4997   -2.9426    1.0194 O   0  0  0  0  0  0  0  0  0  0  0  0
   -1.1198   -0.9926    0.0674 N   0  0  0  0  0  0  0  0  0  0  0  0
   -1.8978   -0.4486   -0.2716 H   0  0  0  0  0  0  0  0  0  0  0  0
    0.1693   -0.2866    0.0854 C   0  0  1  0  0  0  0  0  0  0  0  0
    0.2468    0.2914    1.0080 H   0  0  0  0  0  0  0  0  0  0  0  0
    1.3165   -1.3199    0.0633 C   0  0  0  0  0  0  0  0  0  0  0  0
    1.1458   -2.0152   -0.7605 H   0  0  0  0  0  0  0  0  0  0  0  0
    2.2562   -0.7982   -0.1305 H   0  0  0  0  0  0  0  0  0  0  0  0
    1.4530   -2.1487    1.3501 C   0  0  0  0  0  0  0  0  0  0  0  0
    1.0922   -1.6345    2.4350 O   0  5  0  0  0  0  0  0  0  0  0  0
    1.9403   -3.2942    1.2381 O   0  0  0  0  0  0  0  0  0  0  0  0
    0.2436    0.6945   -1.1075 C   0  0  0  0  0  0  0  0  0  0  0  0
    0.4047    1.9053   -0.9138 O   0  0  0  0  0  0  0  0  0  0  0  0
    0.1446    0.1873   -2.3402 N   0  0  0  0  0  0  0  0  0  0  0  0
   -0.0740   -0.8094   -2.3944 H   0  0  0  0  0  0  0  0  0  0  0  0
    0.1774    0.9640   -3.5749 C   0  0  0  0  0  0  0  0  0  0  0  0
    0.9837    1.6971   -3.5270 H   0  0  0  0  0  0  0  0  0  0  0  0
    0.3376    0.2975   -4.4219 H   0  0  0  0  0  0  0  0  0  0  0  0
   -0.7724    1.4850   -3.6969 H   0  0  0  0  0  0  0  0  0  0  0  0
  5  6  2  0  0  0  0
  5  7  1  0  0  0  0
  2  3  1  0  0  0  0
  2  4  1  0  0  0  0
  2  5  1  0  0  0  0
  1  2  1  0  0  0  0
 17 18  2  0  0  0  0
 17 19  1  0  0  0  0
 14 15  1  0  0  0  0
 14 16  2  0  0  0  0
 11 12  1  0  0  0  0
 11 13  1  0  0  0  0
 11 14  1  0  0  0  0
  9 10  1  0  0  0  0
  9 11  1  0  0  0  0
  9 17  1  0  0  0  0
  7  8  1  0  0  0  0
  7  9  1  0  0  0  0
 21 22  1  0  0  0  0
 21 23  1  0  0  0  0
 21 24  1  0  0  0  0
 19 20  1  0  0  0  0
 19 21  1  0  0  0  0
M  CHG  1  15  -1
M  END
$$$$
default_name
  -OEChem-01062215323D

 24 23  0     1  0  0  0  0  0999 V2000
   -2.8347   -3.7166    0.8034 H   0  0  0  0  0  0  0  0  0  0  0  0
   -2.7728   -2.7096    0.3954 C   0  0  0  0  0  0  0  0  0  0  0  0
   -3.4267   -2.0426    0.9524 H   0  0  0  0  0  0  0  0  0  0  0  0
   -3.0538   -2.7186   -0.6556 H   0  0  0  0  0  0  0  0  0  0  0  0
   -1.3498   -2.2206    0.5184 C   0  0  0  0  0  0  0  0  0  0  0  0
   -0.4997   -2.9426    1.0194 O   0  0  0  0  0  0  0  0  0  0  0  0
   -1.1198   -0.9926    0.0674 N   0  0  0  0  0  0  0  0  0  0  0  0
   -1.8978   -0.4486   -0.2716 H   0  0  0  0  0  0  0  0  0  0  0  0
    0.1693   -0.2866    0.0854 C   0  0  1  0  0  0  0  0  0  0  0  0
    0.2468    0.2914    1.0080 H   0  0  0  0  0  0  0  0  0  0  0  0
    1.3165   -1.3199    0.0633 C   0  0  0  0  0  0  0  0  0  0  0  0
    1.1458   -2.0152   -0.7605 H   0  0  0  0  0  0  0  0  0  0  0  0
    2.2562   -0.7982   -0.1305 H   0  0  0  0  0  0  0  0  0  0  0  0
    1.4530   -2.1487    1.3501 C   0  0  0  0  0  0  0  0  0  0  0  0
    1.0922   -1.6345    2.4350 O   0  5  0  0  0  0  0  0  0  0  0  0
    1.9403   -3.2942    1.2381 O   0  0  0  0  0  0  0  0  0  0  0  0
    0.2436    0.6945   -1.1075 C   0  0  0  0  0  0  0  0  0  0  0  0
    0.6738    1.8430   -0.9483 O   0  0  0  0  0  0  0  0  0  0  0  0
   -0.1548    0.2531   -2.3047 N   0  0  0  0  0  0  0  0  0  0  0  0
   -0.5748   -0.6782   -2.3177 H   0  0  0  0  0  0  0  0  0  0  0  0
   -0.1684    1.0435   -3.5310 C   0  0  0  0  0  0  0  0  0  0  0  0
    0.7654    1.6001   -3.6204 H   0  0  0  0  0  0  0  0  0  0  0  0
   -0.2854    0.3834   -4.3901 H   0  0  0  0  0  0  0  0  0  0  0  0
   -1.0012    1.7461   -3.4964 H   0  0  0  0  0  0  0  0  0  0  0  0
  5  6  2  0  0  0  0
  5  7  1  0  0  0  0
  2  3  1  0  0  0  0
  2  4  1  0  0  0  0
  2  5  1  0  0  0  0
  1  2  1  0  0  0  0
 17 18  2  0  0  0  0
 17 19  1  0  0  0  0
 14 15  1  0  0  0  0
 14 16  2  0  0  0  0
 11 12  1  0  0  0  0
 11 13  1  0  0  0  0
 11 14  1  0  0  0  0
  9 10  1  0  0  0  0
  9 11  1  0  0  0  0
  9 17  1  0  0  0  0
  7  8  1  0  0  0  0
  7  9  1  0  0  0  0
 21 22  1  0  0  0  0
 21 23  1  0  0  0  0
 21 24  1  0  0  0  0
 19 20  1  0  0  0  0
 19 21  1  0  0  0  0
M  CHG  1  15  -1
M  END
$$$$
default_name
  -OEChem-01062215323D

 24 23  0     1  0  0  0  0  0999 V2000
   -2.8347   -3.7166    0.8034 H   0  0  0  0  0  0  0  0  0  0  0  0
   -2.7728   -2.7096    0.3954 C   0  0  0  0  0  0  0  0  0  0  0  0
   -3.4267   -2.0426    0.9524 H   0  0  0  0  0  0  0  0  0  0  0  0
   -3.0538   -2.7186   -0.6556 H   0  0  0  0  0  0  0  0  0  0  0  0
   -1.3498   -2.2206    0.5184 C   0  0  0  0  0  0  0  0  0  0  0  0
   -0.4997   -2.9426    1.0194 O   0  0  0  0  0  0  0  0  0  0  0  0
   -1.1198   -0.9926    0.0674 N   0  0  0  0  0  0  0  0  0  0  0  0
   -1.8978   -0.4486   -0.2716 H   0  0  0  0  0  0  0  0  0  0  0  0
    0.1693   -0.2866    0.0854 C   0  0  1  0  0  0  0  0  0  0  0  0
    0.2468    0.2914    1.0080 H   0  0  0  0  0  0  0  0  0  0  0  0
    1.3165   -1.3199    0.0633 C   0  0  0  0  0  0  0  0  0  0  0  0
    1.1458   -2.0152   -0.7605 H   0  0  0  0  0  0  0  0  0  0  0  0
    2.2562   -0.7982   -0.1305 H   0  0  0  0  0  0  0  0  0  0  0  0
    1.4530   -2.1487    1.3501 C   0  0  0  0  0  0  0  0  0  0  0  0
    1.0922   -1.6345    2.4350 O   0  5  0  0  0  0  0  0  0  0  0  0
    1.9403   -3.2942    1.2381 O   0  0  0  0  0  0  0  0  0  0  0  0
    0.2436    0.6945   -1.1075 C   0  0  0  0  0  0  0  0  0  0  0  0
    0.9156    1.7296   -1.0266 O   0  0  0  0  0  0  0  0  0  0  0  0
   -0.4249    0.3761   -2.2204 N   0  0  0  0  0  0  0  0  0  0  0  0
   -1.0197   -0.4525   -2.1598 H   0  0  0  0  0  0  0  0  0  0  0  0
   -0.4793    1.1888   -3.4309 C   0  0  0  0  0  0  0  0  0  0  0  0
    0.5199    1.5512   -3.6759 H   0  0  0  0  0  0  0  0  0  0  0  0
   -0.8648    0.5904   -4.2559 H   0  0  0  0  0  0  0  0  0  0  0  0
   -1.1371    2.0415   -3.2619 H   0  0  0  0  0  0  0  0  0  0  0  0
  5  6  2  0  0  0  0
  5  7  1  0  0  0  0
  2  3  1  0  0  0  0
  2  4  1  0  0  0  0
  2  5  1  0  0  0  0
  1  2  1  0  0  0  0
 17 18  2  0  0  0  0
 17 19  1  0  0  0  0
 14 15  1  0  0  0  0
 14 16  2  0  0  0  0
 11 12  1  0  0  0  0
 11 13  1  0  0  0  0
 11 14  1  0  0  0  0
  9 10  1  0  0  0  0
  9 11  1  0  0  0  0
  9 17  1  0  0  0  0
  7  8  1  0  0  0  0
  7  9  1  0  0  0  0
 21 22  1  0  0  0  0
 21 23  1  0  0  0  0
 21 24  1  0  0  0  0
 19 20  1  0  0  0  0
 19 21  1  0  0  0  0
M  CHG  1  15  -1
M  END
$$$$
default_name
  -OEChem-01062215323D

 24 23  0     1  0  0  0  0  0999 V2000
   -2.8347   -3.7166    0.8034 H   0  0  0  0  0  0  0  0  0  0  0  0
   -2.7728   -2.7096    0.3954 C   0  0  0  0  0  0  0  0  0  0  0  0
   -3.4267   -2.0426    0.9524 H   0  0  0  0  0  0  0  0  0  0  0  0
   -3.0538   -2.7186   -0.6556 H   0  0  0  0  0  0  0  0  0  0  0  0
   -1.3498   -2.2206    0.5184 C   0  0  0  0  0  0  0  0  0  0  0  0
   -0.4997   -2.9426    1.0194 O   0  0  0  0  0  0  0  0  0  0  0  0
   -1.1198   -0.9926    0.0674 N   0  0  0  0  0  0  0  0  0  0  0  0
   -1.8978   -0.4486   -0.2716 H   0  0  0  0  0  0  0  0  0  0  0  0
    0.1693   -0.2866    0.0854 C   0  0  1  0  0  0  0  0  0  0  0  0
    0.2468    0.2914    1.0080 H   0  0  0  0  0  0  0  0  0  0  0  0
    1.3165   -1.3199    0.0633 C   0  0  0  0  0  0  0  0  0  0  0  0
    1.1458   -2.0152   -0.7605 H   0  0  0  0  0  0  0  0  0  0  0  0
    2.2562   -0.7982   -0.1305 H   0  0  0  0  0  0  0  0  0  0  0  0
    1.4530   -2.1487    1.3501 C   0  0  0  0  0  0  0  0  0  0  0  0
    1.0922   -1.6345    2.4350 O   0  5  0  0  0  0  0  0  0  0  0  0
    1.9403   -3.2942    1.2381 O   0  0  0  0  0  0  0  0  0  0  0  0
    0.2436    0.6945   -1.1075 C   0  0  0  0  0  0  0  0  0  0  0  0
    1.1137    1.5727   -1.1433 O   0  0  0  0  0  0  0  0  0  0  0  0
   -0.6474    0.5478   -2.0930 N   0  0  0  0  0  0  0  0  0  0  0  0
   -1.3785   -0.1476   -1.9314 H   0  0  0  0  0  0  0  0  0  0  0  0
   -0.7341    1.3899   -3.2813 C   0  0  0  0  0  0  0  0  0  0  0  0
    0.2639    1.5537   -3.6898 H   0  0  0  0  0  0  0  0  0  0  0  0
   -1.3611    0.9043   -4.0286 H   0  0  0  0  0  0  0  0  0  0  0  0
   -1.1710    2.3510   -3.0094 H   0  0  0  0  0  0  0  0  0  0  0  0
  5  6  2  0  0  0  0
  5  7  1  0  0  0  0
  2  3  1  0  0  0  0
  2  4  1  0  0  0  0
  2  5  1  0  0  0  0
  1  2  1  0  0  0  0
 17 18  2  0  0  0  0
 17 19  1  0  0  0  0
 14 15  1  0  0  0  0
 14 16  2  0  0  0  0
 11 12  1  0  0  0  0
 11 13  1  0  0  0  0
 11 14  1  0  0  0  0
  9 10  1  0  0  0  0
  9 11  1  0  0  0  0
  9 17  1  0  0  0  0
  7  8  1  0  0  0  0
  7  9  1  0  0  0  0
 21 22  1  0  0  0  0
 21 23  1  0  0  0  0
 21 24  1  0  0  0  0
 19 20  1  0  0  0  0
 19 21  1  0  0  0  0
M  CHG  1  15  -1
M  END
$$$$
default_name
  -OEChem-01062215323D

 24 23  0     1  0  0  0  0  0999 V2000
   -2.8347   -3.7166    0.8034 H   0  0  0  0  0  0  0  0  0  0  0  0
   -2.7728   -2.7096    0.3954 C   0  0  0  0  0  0  0  0  0  0  0  0
   -3.4267   -2.0426    0.9524 H   0  0  0  0  0  0  0  0  0  0  0  0
   -3.0538   -2.7186   -0.6556 H   0  0  0  0  0  0  0  0  0  0  0  0
   -1.3498   -2.2206    0.5184 C   0  0  0  0  0  0  0  0  0  0  0  0
   -0.4997   -2.9426    1.0194 O   0  0  0  0  0  0  0  0  0  0  0  0
   -1.1198   -0.9926    0.0674 N   0  0  0  0  0  0  0  0  0  0  0  0
   -1.8978   -0.4486   -0.2716 H   0  0  0  0  0  0  0  0  0  0  0  0
    0.1693   -0.2866    0.0854 C   0  0  1  0  0  0  0  0  0  0  0  0
    0.2468    0.2914    1.0080 H   0  0  0  0  0  0  0  0  0  0  0  0
    1.3165   -1.3199    0.0633 C   0  0  0  0  0  0  0  0  0  0  0  0
    1.1458   -2.0152   -0.7605 H   0  0  0  0  0  0  0  0  0  0  0  0
    2.2562   -0.7982   -0.1305 H   0  0  0  0  0  0  0  0  0  0  0  0
    1.4530   -2.1487    1.3501 C   0  0  0  0  0  0  0  0  0  0  0  0
    1.0922   -1.6345    2.4350 O   0  5  0  0  0  0  0  0  0  0  0  0
    1.9403   -3.2942    1.2381 O   0  0  0  0  0  0  0  0  0  0  0  0
    0.2436    0.6945   -1.1075 C   0  0  0  0  0  0  0  0  0  0  0  0
    1.2545    1.3830   -1.2905 O   0  0  0  0  0  0  0  0  0  0  0  0
   -0.8072    0.7564   -1.9314 N   0  0  0  0  0  0  0  0  0  0  0  0
   -1.6266    0.2157   -1.6480 H   0  0  0  0  0  0  0  0  0  0  0  0
   -0.9156    1.6332   -3.0925 C   0  0  0  0  0  0  0  0  0  0  0  0
    0.0148    1.6073   -3.6612 H   0  0  0  0  0  0  0  0  0  0  0  0
   -1.7405    1.3038   -3.7237 H   0  0  0  0  0  0  0  0  0  0  0  0
   -1.1004    2.6536   -2.7561 H   0  0  0  0  0  0  0  0  0  0  0  0
  5  6  2  0  0  0  0
  5  7  1  0  0  0  0
  2  3  1  0  0  0  0
  2  4  1  0  0  0  0
  2  5  1  0  0  0  0
  1  2  1  0  0  0  0
 17 18  2  0  0  0  0
 17 19  1  0  0  0  0
 14 15  1  0  0  0  0
 14 16  2  0  0  0  0
 11 12  1  0  0  0  0
 11 13  1  0  0  0  0
 11 14  1  0  0  0  0
  9 10  1  0  0  0  0
  9 11  1  0  0  0  0
  9 17  1  0  0  0  0
  7  8  1  0  0  0  0
  7  9  1  0  0  0  0
 21 22  1  0  0  0  0
 21 23  1  0  0  0  0
 21 24  1  0  0  0  0
 19 20  1  0  0  0  0
 19 21  1  0  0  0  0
M  CHG  1  15  -1
M  END
$$$$
default_name
  -OEChem-01062215323D

 24 23  0     1  0  0  0  0  0999 V2000
   -2.8347   -3.7166    0.8034 H   0  0  0  0  0  0  0  0  0  0  0  0
   -2.7728   -2.7096    0.3954 C   0  0  0  0  0  0  0  0  0  0  0  0
   -3.4267   -2.0426    0.9524 H   0  0  0  0  0  0  0  0  0  0  0  0
   -3.0538   -2.7186   -0.6556 H   0  0  0  0  0  0  0  0  0  0  0  0
   -1.3498   -2.2206    0.5184 C   0  0  0  0  0  0  0  0  0  0  0  0
   -0.4997   -2.9426    1.0194 O   0  0  0  0  0  0  0  0  0  0  0  0
   -1.1198   -0.9926    0.0674 N   0  0  0  0  0  0  0  0  0  0  0  0
   -1.8978   -0.4486   -0.2716 H   0  0  0  0  0  0  0  0  0  0  0  0
    0.1693   -0.2866    0.0854 C   0  0  1  0  0  0  0  0  0  0  0  0
    0.2468    0.2914    1.0080 H   0  0  0  0  0  0  0  0  0  0  0  0
    1.3165   -1.3199    0.0633 C   0  0  0  0  0  0  0  0  0  0  0  0
    1.1458   -2.0152   -0.7605 H   0  0  0  0  0  0  0  0  0  0  0  0
    2.2562   -0.7982   -0.1305 H   0  0  0  0  0  0  0  0  0  0  0  0
    1.4530   -2.1487    1.3501 C   0  0  0  0  0  0  0  0  0  0  0  0
    1.0922   -1.6345    2.4350 O   0  5  0  0  0  0  0  0  0  0  0  0
    1.9403   -3.2942    1.2381 O   0  0  0  0  0  0  0  0  0  0  0  0
    0.2436    0.6945   -1.1075 C   0  0  0  0  0  0  0  0  0  0  0  0
    1.3285    1.1735   -1.4582 O   0  0  0  0  0  0  0  0  0  0  0  0
   -0.8933    0.9879   -1.7464 N   0  0  0  0  0  0  0  0  0  0  0  0
   -1.7472    0.6126   -1.3290 H   0  0  0  0  0  0  0  0  0  0  0  0
   -1.0112    1.9022   -2.8773 C   0  0  0  0  0  0  0  0  0  0  0  0
   -0.2103    1.7085   -3.5920 H   0  0  0  0  0  0  0  0  0  0  0  0
   -1.9771    1.7616   -3.3618 H   0  0  0  0  0  0  0  0  0  0  0  0
   -0.9301    2.9287   -2.5193 H   0  0  0  0  0  0  0  0  0  0  0  0
  5  6  2  0  0  0  0
  5  7  1  0  0  0  0
  2  3  1  0  0  0  0
  2  4  1  0  0  0  0
  2  5  1  0  0  0  0
  1  2  1  0  0  0  0
 17 18  2  0  0  0  0
 17 19  1  0  0  0  0
 14 15  1  0  0  0  0
 14 16  2  0  0  0  0
 11 12  1  0  0  0  0
 11 13  1  0  0  0  0
 11 14  1  0  0  0  0
  9 10  1  0  0  0  0
  9 11  1  0  0  0  0
  9 17  1  0  0  0  0
  7  8  1  0  0  0  0
  7  9  1  0  0  0  0
 21 22  1  0  0  0  0
 21 23  1  0  0  0  0
 21 24  1  0  0  0  0
 19 20  1  0  0  0  0
 19 21  1  0  0  0  0
M  CHG  1  15  -1
M  END
$$$$
default_name
  -OEChem-01062215323D

 24 23  0     1  0  0  0  0  0999 V2000
   -2.8347   -3.7166    0.8034 H   0  0  0  0  0  0  0  0  0  0  0  0
   -2.7728   -2.7096    0.3954 C   0  0  0  0  0  0  0  0  0  0  0  0
   -3.4267   -2.0426    0.9524 H   0  0  0  0  0  0  0  0  0  0  0  0
   -3.0538   -2.7186   -0.6556 H   0  0  0  0  0  0  0  0  0  0  0  0
   -1.3498   -2.2206    0.5184 C   0  0  0  0  0  0  0  0  0  0  0  0
   -0.4997   -2.9426    1.0194 O   0  0  0  0  0  0  0  0  0  0  0  0
   -1.1198   -0.9926    0.0674 N   0  0  0  0  0  0  0  0  0  0  0  0
   -1.8978   -0.4486   -0.2716 H   0  0  0  0  0  0  0  0  0  0  0  0
    0.1693   -0.2866    0.0854 C   0  0  1  0  0  0  0  0  0  0  0  0
    0.2468    0.2914    1.0080 H   0  0  0  0  0  0  0  0  0  0  0  0
    1.3165   -1.3199    0.0633 C   0  0  0  0  0  0  0  0  0  0  0  0
    1.1458   -2.0152   -0.7605 H   0  0  0  0  0  0  0  0  0  0  0  0
    2.2562   -0.7982   -0.1305 H   0  0  0  0  0  0  0  0  0  0  0  0
    1.4530   -2.1487    1.3501 C   0  0  0  0  0  0  0  0  0  0  0  0
    1.0922   -1.6345    2.4350 O   0  5  0  0  0  0  0  0  0  0  0  0
    1.9403   -3.2942    1.2381 O   0  0  0  0  0  0  0  0  0  0  0  0
    0.2436    0.6945   -1.1075 C   0  0  0  0  0  0  0  0  0  0  0  0
    1.3306    0.9585   -1.6349 O   0  0  0  0  0  0  0  0  0  0  0  0
   -0.8999    1.2263   -1.5507 N   0  0  0  0  0  0  0  0  0  0  0  0
   -1.7321    1.0162   -0.9962 H   0  0  0  0  0  0  0  0  0  0  0  0
   -1.0146    2.1783   -2.6503 C   0  0  0  0  0  0  0  0  0  0  0  0
   -0.3963    1.8504   -3.4869 H   0  0  0  0  0  0  0  0  0  0  0  0
   -2.0548    2.2466   -2.9678 H   0  0  0  0  0  0  0  0  0  0  0  0
   -0.6719    3.1574   -2.3151 H   0  0  0  0  0  0  0  0  0  0  0  0
  5  6  2  0  0  0  0
  5  7  1  0  0  0  0
  2  3  1  0  0  0  0
  2  4  1  0  0  0  0
  2  5  1  0  0  0  0
  1  2  1  0  0  0  0
 17 18  2  0  0  0  0
 17 19  1  0  0  0  0
 14 15  1  0  0  0  0
 14 16  2  0  0  0  0
 11 12  1  0  0  0  0
 11 13  1  0  0  0  0
 11 14  1  0  0  0  0
  9 10  1  0  0  0  0
  9 11  1  0  0  0  0
  9 17  1  0  0  0  0
  7  8  1  0  0  0  0
  7  9  1  0  0  0  0
 21 22  1  0  0  0  0
 21 23  1  0  0  0  0
 21 24  1  0  0  0  0
 19 20  1  0  0  0  0
 19 21  1  0  0  0  0
M  CHG  1  15  -1
M  END
$$$$
default_name
  -OEChem-01062215323D

 24 23  0     1  0  0  0  0  0999 V2000
   -2.8347   -3.7166    0.8034 H   0  0  0  0  0  0  0  0  0  0  0  0
   -2.7728   -2.7096    0.3954 C   0  0  0  0  0  0  0  0  0  0  0  0
   -3.4267   -2.0426    0.9524 H   0  0  0  0  0  0  0  0  0  0  0  0
   -3.0538   -2.7186   -0.6556 H   0  0  0  0  0  0  0  0  0  0  0  0
   -1.3498   -2.2206    0.5184 C   0  0  0  0  0  0  0  0  0  0  0  0
   -0.4997   -2.9426    1.0194 O   0  0  0  0  0  0  0  0  0  0  0  0
   -1.1198   -0.9926    0.0674 N   0  0  0  0  0  0  0  0  0  0  0  0
   -1.8978   -0.4486   -0.2716 H   0  0  0  0  0  0  0  0  0  0  0  0
    0.1693   -0.2866    0.0854 C   0  0  1  0  0  0  0  0  0  0  0  0
    0.2468    0.2914    1.0080 H   0  0  0  0  0  0  0  0  0  0  0  0
    1.3165   -1.3199    0.0633 C   0  0  0  0  0  0  0  0  0  0  0  0
    1.1458   -2.0152   -0.7605 H   0  0  0  0  0  0  0  0  0  0  0  0
    2.2562   -0.7982   -0.1305 H   0  0  0  0  0  0  0  0  0  0  0  0
    1.4530   -2.1487    1.3501 C   0  0  0  0  0  0  0  0  0  0  0  0
    1.0922   -1.6345    2.4350 O   0  5  0  0  0  0  0  0  0  0  0  0
    1.9403   -3.2942    1.2381 O   0  0  0  0  0  0  0  0  0  0  0  0
    0.2436    0.6945   -1.1075 C   0  0  0  0  0  0  0  0  0  0  0  0
    1.2607    0.7526   -1.8087 O   0  0  0  0  0  0  0  0  0  0  0  0
   -0.8265    1.4555   -1.3576 N   0  0  0  0  0  0  0  0  0  0  0  0
   -1.5822    1.3988   -0.6722 H   0  0  0  0  0  0  0  0  0  0  0  0
   -0.9255    2.4430   -2.4271 C   0  0  0  0  0  0  0  0  0  0  0  0
   -0.5303    2.0232   -3.3531 H   0  0  0  0  0  0  0  0  0  0  0  0
   -1.9683    2.7257   -2.5684 H   0  0  0  0  0  0  0  0  0  0  0  0
   -0.3433    3.3243   -2.1574 H   0  0  0  0  0  0  0  0  0  0  0  0
  5  6  2  0  0  0  0
  5  7  1  0  0  0  0
  2  3  1  0  0  0  0
  2  4  1  0  0  0  0
  2  5  1  0  0  0  0
  1  2  1  0  0  0  0
 17 18  2  0  0  0  0
 17 19  1  0  0  0  0
 14 15  1  0  0  0  0
 14 16  2  0  0  0  0
 11 12  1  0  0  0  0
 11 13  1  0  0  0  0
 11 14  1  0  0  0  0
  9 10  1  0  0  0  0
  9 11  1  0  0  0  0
  9 17  1  0  0  0  0
  7  8  1  0  0  0  0
  7  9  1  0  0  0  0
 21 22  1  0  0  0  0
 21 23  1  0  0  0  0
 21 24  1  0  0  0  0
 19 20  1  0  0  0  0
 19 21  1  0  0  0  0
M  CHG  1  15  -1
M  END
$$$$
default_name
  -OEChem-01062215323D

 24 23  0     1  0  0  0  0  0999 V2000
   -2.8347   -3.7166    0.8034 H   0  0  0  0  0  0  0  0  0  0  0  0
   -2.7728   -2.7096    0.3954 C   0  0  0  0  0  0  0  0  0  0  0  0
   -3.4267   -2.0426    0.9524 H   0  0  0  0  0  0  0  0  0  0  0  0
   -3.0538   -2.7186   -0.6556 H   0  0  0  0  0  0  0  0  0  0  0  0
   -1.3498   -2.2206    0.5184 C   0  0  0  0  0  0  0  0  0  0  0  0
   -0.4997   -2.9426    1.0194 O   0  0  0  0  0  0  0  0  0  0  0  0
   -1.1198   -0.9926    0.0674 N   0  0  0  0  0  0  0  0  0  0  0  0
   -1.8978   -0.4486   -0.2716 H   0  0  0  0  0  0  0  0  0  0  0  0
    0.1693   -0.2866    0.0854 C   0  0  1  0  0  0  0  0  0  0  0  0
    0.2468    0.2914    1.0080 H   0  0  0  0  0  0  0  0  0  0  0  0
    1.3165   -1.3199    0.0633 C   0  0  0  0  0  0  0  0  0  0  0  0
    1.1458   -2.0152   -0.7605 H   0  0  0  0  0  0  0  0  0  0  0  0
    2.2562   -0.7982   -0.1305 H   0  0  0  0  0  0  0  0  0  0  0  0
    1.4530   -2.1487    1.3501 C   0  0  0  0  0  0  0  0  0  0  0  0
    1.0922   -1.6345    2.4350 O   0  5  0  0  0  0  0  0  0  0  0  0
    1.9403   -3.2942    1.2381 O   0  0  0  0  0  0  0  0  0  0  0  0
    0.2436    0.6945   -1.1075 C   0  0  0  0  0  0  0  0  0  0  0  0
    1.1235    0.5698   -1.9675 O   0  0  0  0  0  0  0  0  0  0  0  0
   -0.6782    1.6598   -1.1803 N   0  0  0  0  0  0  0  0  0  0  0  0
   -1.3079    1.7344   -0.3790 H   0  0  0  0  0  0  0  0  0  0  0  0
   -0.7499    2.6780   -2.2229 C   0  0  0  0  0  0  0  0  0  0  0  0
   -0.6033    2.2153   -3.1997 H   0  0  0  0  0  0  0  0  0  0  0  0
   -1.7235    3.1662   -2.1908 H   0  0  0  0  0  0  0  0  0  0  0  0
    0.0334    3.4179   -2.0569 H   0  0  0  0  0  0  0  0  0  0  0  0
  5  6  2  0  0  0  0
  5  7  1  0  0  0  0
  2  3  1  0  0  0  0
  2  4  1  0  0  0  0
  2  5  1  0  0  0  0
  1  2  1  0  0  0  0
 17 18  2  0  0  0  0
 17 19  1  0  0  0  0
 14 15  1  0  0  0  0
 14 16  2  0  0  0  0
 11 12  1  0  0  0  0
 11 13  1  0  0  0  0
 11 14  1  0  0  0  0
  9 10  1  0  0  0  0
  9 11  1  0  0  0  0
  9 17  1  0  0  0  0
  7  8  1  0  0  0  0
  7  9  1  0  0  0  0
 21 22  1  0  0  0  0
 21 23  1  0  0  0  0
 21 24  1  0  0  0  0
 19 20  1  0  0  0  0
 19 21  1  0  0  0  0
M  CHG  1  15  -1
M  END
$$$$
default_name
  -OEChem-01062215323D

 24 23  0     1  0  0  0  0  0999 V2000
   -2.8347   -3.7166    0.8034 H   0  0  0  0  0  0  0  0  0  0  0  0
   -2.7728   -2.7096    0.3954 C   0  0  0  0  0  0  0  0  0  0  0  0
   -3.4267   -2.0426    0.9524 H   0  0  0  0  0  0  0  0  0  0  0  0
   -3.0538   -2.7186   -0.6556 H   0  0  0  0  0  0  0  0  0  0  0  0
   -1.3498   -2.2206    0.5184 C   0  0  0  0  0  0  0  0  0  0  0  0
   -0.4997   -2.9426    1.0194 O   0  0  0  0  0  0  0  0  0  0  0  0
   -1.1198   -0.9926    0.0674 N   0  0  0  0  0  0  0  0  0  0  0  0
   -1.8978   -0.4486   -0.2716 H   0  0  0  0  0  0  0  0  0  0  0  0
    0.1693   -0.2866    0.0854 C   0  0  1  0  0  0  0  0  0  0  0  0
    0.2468    0.2914    1.0080 H   0  0  0  0  0  0  0  0  0  0  0  0
    1.3165   -1.3199    0.0633 C   0  0  0  0  0  0  0  0  0  0  0  0
    1.1458   -2.0152   -0.7605 H   0  0  0  0  0  0  0  0  0  0  0  0
    2.2562   -0.7982   -0.1305 H   0  0  0  0  0  0  0  0  0  0  0  0
    1.4530   -2.1487    1.3501 C   0  0  0  0  0  0  0  0  0  0  0  0
    1.0922   -1.6345    2.4350 O   0  5  0  0  0  0  0  0  0  0  0  0
    1.9403   -3.2942    1.2381 O   0  0  0  0  0  0  0  0  0  0  0  0
    0.2436    0.6945   -1.1075 C   0  0  0  0  0  0  0  0  0  0  0  0
    0.9284    0.4226   -2.1008 O   0  0  0  0  0  0  0  0  0  0  0  0
   -0.4650    1.8254   -1.0308 N   0  0  0  0  0  0  0  0  0  0  0  0
   -0.9277    2.0002   -0.1367 H   0  0  0  0  0  0  0  0  0  0  0  0
   -0.4998    2.8674   -2.0515 C   0  0  0  0  0  0  0  0  0  0  0  0
   -0.6102    2.4134   -3.0371 H   0  0  0  0  0  0  0  0  0  0  0  0
   -1.3371    3.5381   -1.8608 H   0  0  0  0  0  0  0  0  0  0  0  0
    0.4324    3.4319   -2.0206 H   0  0  0  0  0  0  0  0  0  0  0  0
  5  6  2  0  0  0  0
  5  7  1  0  0  0  0
  2  3  1  0  0  0  0
  2  4  1  0  0  0  0
  2  5  1  0  0  0  0
  1  2  1  0  0  0  0
 17 18  2  0  0  0  0
 17 19  1  0  0  0  0
 14 15  1  0  0  0  0
 14 16  2  0  0  0  0
 11 12  1  0  0  0  0
 11 13  1  0  0  0  0
 11 14  1  0  0  0  0
  9 10  1  0  0  0  0
  9 11  1  0  0  0  0
  9 17  1  0  0  0  0
  7  8  1  0  0  0  0
  7  9  1  0  0  0  0
 21 22  1  0  0  0  0
 21 23  1  0  0  0  0
 21 24  1  0  0  0  0
 19 20  1  0  0  0  0
 19 21  1  0  0  0  0
M  CHG  1  15  -1
M  END
$$$$
default_name
  -OEChem-01062215323D

 24 23  0     1  0  0  0  0  0999 V2000
   -2.8347   -3.7166    0.8034 H   0  0  0  0  0  0  0  0  0  0  0  0
   -2.7728   -2.7096    0.3954 C   0  0  0  0  0  0  0  0  0  0  0  0
   -3.4267   -2.0426    0.9524 H   0  0  0  0  0  0  0  0  0  0  0  0
   -3.0538   -2.7186   -0.6556 H   0  0  0  0  0  0  0  0  0  0  0  0
   -1.3498   -2.2206    0.5184 C   0  0  0  0  0  0  0  0  0  0  0  0
   -0.4997   -2.9426    1.0194 O   0  0  0  0  0  0  0  0  0  0  0  0
   -1.1198   -0.9926    0.0674 N   0  0  0  0  0  0  0  0  0  0  0  0
   -1.8978   -0.4486   -0.2716 H   0  0  0  0  0  0  0  0  0  0  0  0
    0.1693   -0.2866    0.0854 C   0  0  1  0  0  0  0  0  0  0  0  0
    0.2468    0.2914    1.0080 H   0  0  0  0  0  0  0  0  0  0  0  0
    1.3165   -1.3199    0.0633 C   0  0  0  0  0  0  0  0  0  0  0  0
    1.1458   -2.0152   -0.7605 H   0  0  0  0  0  0  0  0  0  0  0  0
    2.2562   -0.7982   -0.1305 H   0  0  0  0  0  0  0  0  0  0  0  0
    1.4530   -2.1487    1.3501 C   0  0  0  0  0  0  0  0  0  0  0  0
    1.0922   -1.6345    2.4350 O   0  5  0  0  0  0  0  0  0  0  0  0
    1.9403   -3.2942    1.2381 O   0  0  0  0  0  0  0  0  0  0  0  0
    0.2436    0.6945   -1.1075 C   0  0  0  0  0  0  0  0  0  0  0  0
    0.6886    0.3211   -2.1992 O   0  0  0  0  0  0  0  0  0  0  0  0
   -0.2014    1.9409   -0.9194 N   0  0  0  0  0  0  0  0  0  0  0  0
   -0.4677    2.1780    0.0382 H   0  0  0  0  0  0  0  0  0  0  0  0
   -0.1922    2.9983   -1.9247 C   0  0  0  0  0  0  0  0  0  0  0  0
   -0.5507    2.6042   -2.8765 H   0  0  0  0  0  0  0  0  0  0  0  0
   -0.8354    3.8161   -1.6009 H   0  0  0  0  0  0  0  0  0  0  0  0
    0.8265    3.3652   -2.0508 H   0  0  0  0  0  0  0  0  0  0  0  0
  5  6  2  0  0  0  0
  5  7  1  0  0  0  0
  2  3  1  0  0  0  0
  2  4  1  0  0  0  0
  2  5  1  0  0  0  0
  1  2  1  0  0  0  0
 17 18  2  0  0  0  0
 17 19  1  0  0  0  0
 14 15  1  0  0  0  0
 14 16  2  0  0  0  0
 11 12  1  0  0  0  0
 11 13  1  0  0  0  0
 11 14  1  0  0  0  0
  9 10  1  0  0  0  0
  9 11  1  0  0  0  0
  9 17  1  0  0  0  0
  7  8  1  0  0  0  0
  7  9  1  0  0  0  0
 21 22  1  0  0  0  0
 21 23  1  0  0  0  0
 21 24  1  0  0  0  0
 19 20  1  0  0  0  0
 19 21  1  0  0  0  0
M  CHG  1  15  -1
M  END
$$$$
default_name
  -OEChem-01062215323D

 24 23  0     1  0  0  0  0  0999 V2000
   -2.8347   -3.7166    0.8034 H   0  0  0  0  0  0  0  0  0  0  0  0
   -2.7728   -2.7096    0.3954 C   0  0  0  0  0  0  0  0  0  0  0  0
   -3.4267   -2.0426    0.9524 H   0  0  0  0  0  0  0  0  0  0  0  0
   -3.0538   -2.7186   -0.6556 H   0  0  0  0  0  0  0  0  0  0  0  0
   -1.3498   -2.2206    0.5184 C   0  0  0  0  0  0  0  0  0  0  0  0
   -0.4997   -2.9426    1.0194 O   0  0  0  0  0  0  0  0  0  0  0  0
   -1.1198   -0.9926    0.0674 N   0  0  0  0  0  0  0  0  0  0  0  0
   -1.8978   -0.4486   -0.2716 H   0  0  0  0  0  0  0  0  0  0  0  0
    0.1693   -0.2866    0.0854 C   0  0  1  0  0  0  0  0  0  0  0  0
    0.2468    0.2914    1.0080 H   0  0  0  0  0  0  0  0  0  0  0  0
    1.3165   -1.3199    0.0633 C   0  0  0  0  0  0  0  0  0  0  0  0
    1.1458   -2.0152   -0.7605 H   0  0  0  0  0  0  0  0  0  0  0  0
    2.2562   -0.7982   -0.1305 H   0  0  0  0  0  0  0  0  0  0  0  0
    1.4530   -2.1487    1.3501 C   0  0  0  0  0  0  0  0  0  0  0  0
    1.0922   -1.6345    2.4350 O   0  5  0  0  0  0  0  0  0  0  0  0
    1.9403   -3.2942    1.2381 O   0  0  0  0  0  0  0  0  0  0  0  0
    0.2436    0.6945   -1.1075 C   0  0  0  0  0  0  0  0  0  0  0  0
    0.4206    0.2720   -2.2562 O   0  0  0  0  0  0  0  0  0  0  0  0
    0.0945    1.9984   -0.8536 N   0  0  0  0  0  0  0  0  0  0  0  0
    0.0409    2.2557    0.1338 H   0  0  0  0  0  0  0  0  0  0  0  0
    0.1518    3.0617   -1.8510 C   0  0  0  0  0  0  0  0  0  0  0  0
   -0.4287    2.7746   -2.7288 H   0  0  0  0  0  0  0  0  0  0  0  0
   -0.2526    3.9813   -1.4288 H   0  0  0  0  0  0  0  0  0  0  0  0
    1.1890    3.2225   -2.1456 H   0  0  0  0  0  0  0  0  0  0  0  0
  5  6  2  0  0  0  0
  5  7  1  0  0  0  0
  2  3  1  0  0  0  0
  2  4  1  0  0  0  0
  2  5  1  0  0  0  0
  1  2  1  0  0  0  0
 17 18  2  0  0  0  0
 17 19  1  0  0  0  0
 14 15  1  0  0  0  0
 14 16  2  0  0  0  0
 11 12  1  0  0  0  0
 11 13  1  0  0  0  0
 11 14  1  0  0  0  0
  9 10  1  0  0  0  0
  9 11  1  0  0  0  0
  9 17  1  0  0  0  0
  7  8  1  0  0  0  0
  7  9  1  0  0  0  0
 21 22  1  0  0  0  0
 21 23  1  0  0  0  0
 21 24  1  0  0  0  0
 19 20  1  0  0  0  0
 19 21  1  0  0  0  0
M  CHG  1  15  -1
M  END
$$$$
default_name
  -OEChem-01062215323D

 24 23  0     1  0  0  0  0  0999 V2000
   -2.8347   -3.7166    0.8034 H   0  0  0  0  0  0  0  0  0  0  0  0
   -2.7728   -2.7096    0.3954 C   0  0  0  0  0  0  0  0  0  0  0  0
   -3.4267   -2.0426    0.9524 H   0  0  0  0  0  0  0  0  0  0  0  0
   -3.0538   -2.7186   -0.6556 H   0  0  0  0  0  0  0  0  0  0  0  0
   -1.3498   -2.2206    0.5184 C   0  0  0  0  0  0  0  0  0  0  0  0
   -0.4997   -2.9426    1.0194 O   0  0  0  0  0  0  0  0  0  0  0  0
   -1.1198   -0.9926    0.0674 N   0  0  0  0  0  0  0  0  0  0  0  0
   -1.8978   -0.4486   -0.2716 H   0  0  0  0  0  0  0  0  0  0  0  0
    0.1693   -0.2866    0.0854 C   0  0  1  0  0  0  0  0  0  0  0  0
    0.2468    0.2914    1.0080 H   0  0  0  0  0  0  0  0  0  0  0  0
    1.3165   -1.3199    0.0633 C   0  0  0  0  0  0  0  0  0  0  0  0
    1.1458   -2.0152   -0.7605 H   0  0  0  0  0  0  0  0  0  0  0  0
    2.2562   -0.7982   -0.1305 H   0  0  0  0  0  0  0  0  0  0  0  0
    1.4530   -2.1487    1.3501 C   0  0  0  0  0  0  0  0  0  0  0  0
    1.0922   -1.6345    2.4350 O   0  5  0  0  0  0  0  0  0  0  0  0
    1.9403   -3.2942    1.2381 O   0  0  0  0  0  0  0  0  0  0  0  0
    0.2436    0.6945   -1.1075 C   0  0  0  0  0  0  0  0  0  0  0  0
    0.1426    0.2789   -2.2679 O   0  0  0  0  0  0  0  0  0  0  0  0
    0.4026    1.9941   -0.8380 N   0  0  0  0  0  0  0  0  0  0  0  0
    0.5634    2.2280    0.1436 H   0  0  0  0  0  0  0  0  0  0  0  0
    0.5088    3.0534   -1.8356 C   0  0  0  0  0  0  0  0  0  0  0  0
   -0.2526    2.9130   -2.6040 H   0  0  0  0  0  0  0  0  0  0  0  0
    0.3715    4.0223   -1.3561 H   0  0  0  0  0  0  0  0  0  0  0  0
    1.4951    3.0135   -2.2985 H   0  0  0  0  0  0  0  0  0  0  0  0
  5  6  2  0  0  0  0
  5  7  1  0  0  0  0
  2  3  1  0  0  0  0
  2  4  1  0  0  0  0
  2  5  1  0  0  0  0
  1  2  1  0  0  0  0
 17 18  2  0  0  0  0
 17 19  1  0  0  0  0
 14 15  1  0  0  0  0
 14 16  2  0  0  0  0
 11 12  1  0  0  0  0
 11 13  1  0  0  0  0
 11 14  1  0  0  0  0
  9 10  1  0  0  0  0
  9 11  1  0  0  0  0
  9 17  1  0  0  0  0
  7  8  1  0  0  0  0
  7  9  1  0  0  0  0
 21 22  1  0  0  0  0
 21 23  1  0  0  0  0
 21 24  1  0  0  0  0
 19 20  1  0  0  0  0
 19 21  1  0  0  0  0
M  CHG  1  15  -1
M  END
$$$$
default_name
  -OEChem-01062215323D

 24 23  0     1  0  0  0  0  0999 V2000
   -2.8347   -3.7166    0.8034 H   0  0  0  0  0  0  0  0  0  0  0  0
   -2.7728   -2.7096    0.3954 C   0  0  0  0  0  0  0  0  0  0  0  0
   -3.4267   -2.0426    0.9524 H   0  0  0  0  0  0  0  0  0  0  0  0
   -3.0538   -2.7186   -0.6556 H   0  0  0  0  0  0  0  0  0  0  0  0
   -1.3498   -2.2206    0.5184 C   0  0  0  0  0  0  0  0  0  0  0  0
   -0.4997   -2.9426    1.0194 O   0  0  0  0  0  0  0  0  0  0  0  0
   -1.1198   -0.9926    0.0674 N   0  0  0  0  0  0  0  0  0  0  0  0
   -1.8978   -0.4486   -0.2716 H   0  0  0  0  0  0  0  0  0  0  0  0
    0.1693   -0.2866    0.0854 C   0  0  1  0  0  0  0  0  0  0  0  0
    0.2468    0.2914    1.0080 H   0  0  0  0  0  0  0  0  0  0  0  0
    1.3165   -1.3199    0.0633 C   0  0  0  0  0  0  0  0  0  0  0  0
    1.1458   -2.0152   -0.7605 H   0  0  0  0  0  0  0  0  0  0  0  0
    2.2562   -0.7982   -0.1305 H   0  0  0  0  0  0  0  0  0  0  0  0
    1.4530   -2.1487    1.3501 C   0  0  0  0  0  0  0  0  0  0  0  0
    1.0922   -1.6345    2.4350 O   0  5  0  0  0  0  0  0  0  0  0  0
    1.9403   -3.2942    1.2381 O   0  0  0  0  0  0  0  0  0  0  0  0
    0.2436    0.6945   -1.1075 C   0  0  0  0  0  0  0  0  0  0  0  0
   -0.1265    0.3412   -2.2334 O   0  0  0  0  0  0  0  0  0  0  0  0
    0.7019    1.9282   -0.8735 N   0  0  0  0  0  0  0  0  0  0  0  0
    1.0642    2.0968    0.0669 H   0  0  0  0  0  0  0  0  0  0  0  0
    0.8546    2.9739   -1.8795 C   0  0  0  0  0  0  0  0  0  0  0  0
   -0.0343    3.0099   -2.5106 H   0  0  0  0  0  0  0  0  0  0  0  0
    0.9945    3.9364   -1.3880 H   0  0  0  0  0  0  0  0  0  0  0  0
    1.7238    2.7524   -2.4990 H   0  0  0  0  0  0  0  0  0  0  0  0
  5  6  2  0  0  0  0
  5  7  1  0  0  0  0
  2  3  1  0  0  0  0
  2  4  1  0  0  0  0
  2  5  1  0  0  0  0
  1  2  1  0  0  0  0
 17 18  2  0  0  0  0
 17 19  1  0  0  0  0
 14 15  1  0  0  0  0
 14 16  2  0  0  0  0
 11 12  1  0  0  0  0
 11 13  1  0  0  0  0
 11 14  1  0  0  0  0
  9 10  1  0  0  0  0
  9 11  1  0  0  0  0
  9 17  1  0  0  0  0
  7  8  1  0  0  0  0
  7  9  1  0  0  0  0
 21 22  1  0  0  0  0
 21 23  1  0  0  0  0
 21 24  1  0  0  0  0
 19 20  1  0  0  0  0
 19 21  1  0  0  0  0
M  CHG  1  15  -1
M  END
$$$$
default_name
  -OEChem-01062215323D

 24 23  0     1  0  0  0  0  0999 V2000
   -2.8347   -3.7166    0.8034 H   0  0  0  0  0  0  0  0  0  0  0  0
   -2.7728   -2.7096    0.3954 C   0  0  0  0  0  0  0  0  0  0  0  0
   -3.4267   -2.0426    0.9524 H   0  0  0  0  0  0  0  0  0  0  0  0
   -3.0538   -2.7186   -0.6556 H   0  0  0  0  0  0  0  0  0  0  0  0
   -1.3498   -2.2206    0.5184 C   0  0  0  0  0  0  0  0  0  0  0  0
   -0.4997   -2.9426    1.0194 O   0  0  0  0  0  0  0  0  0  0  0  0
   -1.1198   -0.9926    0.0674 N   0  0  0  0  0  0  0  0  0  0  0  0
   -1.8978   -0.4486   -0.2716 H   0  0  0  0  0  0  0  0  0  0  0  0
    0.1693   -0.2866    0.0854 C   0  0  1  0  0  0  0  0  0  0  0  0
    0.2468    0.2914    1.0080 H   0  0  0  0  0  0  0  0  0  0  0  0
    1.3165   -1.3199    0.0633 C   0  0  0  0  0  0  0  0  0  0  0  0
    1.1458   -2.0152   -0.7605 H   0  0  0  0  0  0  0  0  0  0  0  0
    2.2562   -0.7982   -0.1305 H   0  0  0  0  0  0  0  0  0  0  0  0
    1.4530   -2.1487    1.3501 C   0  0  0  0  0  0  0  0  0  0  0  0
    1.0922   -1.6345    2.4350 O   0  5  0  0  0  0  0  0  0  0  0  0
    1.9403   -3.2942    1.2381 O   0  0  0  0  0  0  0  0  0  0  0  0
    0.2436    0.6945   -1.1075 C   0  0  0  0  0  0  0  0  0  0  0  0
   -0.3683    0.4547   -2.1552 O   0  0  0  0  0  0  0  0  0  0  0  0
    0.9721    1.8052   -0.9579 N   0  0  0  0  0  0  0  0  0  0  0  0
    1.5091    1.8711   -0.0911 H   0  0  0  0  0  0  0  0  0  0  0  0
    1.1655    2.8287   -1.9796 C   0  0  0  0  0  0  0  0  0  0  0  0
    0.2112    3.0588   -2.4551 H   0  0  0  0  0  0  0  0  0  0  0  0
    1.5739    3.7294   -1.5221 H   0  0  0  0  0  0  0  0  0  0  0  0
    1.8598    2.4570   -2.7335 H   0  0  0  0  0  0  0  0  0  0  0  0
  5  6  2  0  0  0  0
  5  7  1  0  0  0  0
  2  3  1  0  0  0  0
  2  4  1  0  0  0  0
  2  5  1  0  0  0  0
  1  2  1  0  0  0  0
 17 18  2  0  0  0  0
 17 19  1  0  0  0  0
 14 15  1  0  0  0  0
 14 16  2  0  0  0  0
 11 12  1  0  0  0  0
 11 13  1  0  0  0  0
 11 14  1  0  0  0  0
  9 10  1  0  0  0  0
  9 11  1  0  0  0  0
  9 17  1  0  0  0  0
  7  8  1  0  0  0  0
  7  9  1  0  0  0  0
 21 22  1  0  0  0  0
 21 23  1  0  0  0  0
 21 24  1  0  0  0  0
 19 20  1  0  0  0  0
 19 21  1  0  0  0  0
M  CHG  1  15  -1
M  END
$$$$
default_name
  -OEChem-01062215323D

 24 23  0     1  0  0  0  0  0999 V2000
   -2.8347   -3.7166    0.8034 H   0  0  0  0  0  0  0  0  0  0  0  0
   -2.7728   -2.7096    0.3954 C   0  0  0  0  0  0  0  0  0  0  0  0
   -3.4267   -2.0426    0.9524 H   0  0  0  0  0  0  0  0  0  0  0  0
   -3.0538   -2.7186   -0.6556 H   0  0  0  0  0  0  0  0  0  0  0  0
   -1.3498   -2.2206    0.5184 C   0  0  0  0  0  0  0  0  0  0  0  0
   -0.4997   -2.9426    1.0194 O   0  0  0  0  0  0  0  0  0  0  0  0
   -1.1198   -0.9926    0.0674 N   0  0  0  0  0  0  0  0  0  0  0  0
   -1.8978   -0.4486   -0.2716 H   0  0  0  0  0  0  0  0  0  0  0  0
    0.1693   -0.2866    0.0854 C   0  0  1  0  0  0  0  0  0  0  0  0
    0.2468    0.2914    1.0080 H   0  0  0  0  0  0  0  0  0  0  0  0
    1.3165   -1.3199    0.0633 C   0  0  0  0  0  0  0  0  0  0  0  0
    1.1458   -2.0152   -0.7605 H   0  0  0  0  0  0  0  0  0  0  0  0
    2.2562   -0.7982   -0.1305 H   0  0  0  0  0  0  0  0  0  0  0  0
    1.4530   -2.1487    1.3501 C   0  0  0  0  0  0  0  0  0  0  0  0
    1.0922   -1.6345    2.4350 O   0  5  0  0  0  0  0  0  0  0  0  0
    1.9403   -3.2942    1.2381 O   0  0  0  0  0  0  0  0  0  0  0  0
    0.2436    0.6945   -1.1075 C   0  0  0  0  0  0  0  0  0  0  0  0
   -0.5663    0.6116   -2.0384 O   0  0  0  0  0  0  0  0  0  0  0  0
    1.1946    1.6336   -1.0852 N   0  0  0  0  0  0  0  0  0  0  0  0
    1.8678    1.5662   -0.3195 H   0  0  0  0  0  0  0  0  0  0  0  0
    1.4203    2.6275   -2.1292 C   0  0  0  0  0  0  0  0  0  0  0  0
    0.4672    3.0564   -2.4412 H   0  0  0  0  0  0  0  0  0  0  0  0
    2.0702    3.4154   -1.7494 H   0  0  0  0  0  0  0  0  0  0  0  0
    1.8936    2.1475   -2.9860 H   0  0  0  0  0  0  0  0  0  0  0  0
  5  6  2  0  0  0  0
  5  7  1  0  0  0  0
  2  3  1  0  0  0  0
  2  4  1  0  0  0  0
  2  5  1  0  0  0  0
  1  2  1  0  0  0  0
 17 18  2  0  0  0  0
 17 19  1  0  0  0  0
 14 15  1  0  0  0  0
 14 16  2  0  0  0  0
 11 12  1  0  0  0  0
 11 13  1  0  0  0  0
 11 14  1  0  0  0  0
  9 10  1  0  0  0  0
  9 11  1  0  0  0  0
  9 17  1  0  0  0  0
  7  8  1  0  0  0  0
  7  9  1  0  0  0  0
 21 22  1  0  0  0  0
 21 23  1  0  0  0  0
 21 24  1  0  0  0  0
 19 20  1  0  0  0  0
 19 21  1  0  0  0  0
M  CHG  1  15  -1
M  END
$$$$
default_name
  -OEChem-01062215323D

 24 23  0     1  0  0  0  0  0999 V2000
   -2.8347   -3.7166    0.8034 H   0  0  0  0  0  0  0  0  0  0  0  0
   -2.7728   -2.7096    0.3954 C   0  0  0  0  0  0  0  0  0  0  0  0
   -3.4267   -2.0426    0.9524 H   0  0  0  0  0  0  0  0  0  0  0  0
   -3.0538   -2.7186   -0.6556 H   0  0  0  0  0  0  0  0  0  0  0  0
   -1.3498   -2.2206    0.5184 C   0  0  0  0  0  0  0  0  0  0  0  0
   -0.4997   -2.9426    1.0194 O   0  0  0  0  0  0  0  0  0  0  0  0
   -1.1198   -0.9926    0.0674 N   0  0  0  0  0  0  0  0  0  0  0  0
   -1.8978   -0.4486   -0.2716 H   0  0  0  0  0  0  0  0  0  0  0  0
    0.1693   -0.2866    0.0854 C   0  0  1  0  0  0  0  0  0  0  0  0
    0.3677    0.0684    1.0982 H   0  0  0  0  0  0  0  0  0  0  0  0
    1.2931   -1.2677   -0.3129 C   0  0  0  0  0  0  0  0  0  0  0  0
    1.0133   -1.7609   -1.2454 H   0  0  0  0  0  0  0  0  0  0  0  0
    2.2072   -0.6993   -0.4981 H   0  0  0  0  0  0  0  0  0  0  0  0
    1.5798   -2.3642    0.7249 C   0  0  0  0  0  0  0  0  0  0  0  0
    1.3628   -2.1158    1.9343 O   0  5  0  0  0  0  0  0  0  0  0  0
    2.0364   -3.4458    0.2960 O   0  0  0  0  0  0  0  0  0  0  0  0
    0.1052    0.9407   -0.8531 C   0  0  0  0  0  0  0  0  0  0  0  0
   -0.9345    1.2056   -1.4681 O   0  0  0  0  0  0  0  0  0  0  0  0
    1.1981    1.7030   -0.9595 N   0  0  0  0  0  0  0  0  0  0  0  0
    2.0315    1.3541   -0.4823 H   0  0  0  0  0  0  0  0  0  0  0  0
    1.3207    2.8843   -1.8069 C   0  0  0  0  0  0  0  0  0  0  0  0
    0.4301    3.5056   -1.7033 H   0  0  0  0  0  0  0  0  0  0  0  0
    2.2018    3.4546   -1.5139 H   0  0  0  0  0  0  0  0  0  0  0  0
    1.4193    2.5719   -2.8467 H   0  0  0  0  0  0  0  0  0  0  0  0
  5  6  2  0  0  0  0
  5  7  1  0  0  0  0
  2  3  1  0  0  0  0
  2  4  1  0  0  0  0
  2  5  1  0  0  0  0
  1  2  1  0  0  0  0
 17 18  2  0  0  0  0
 17 19  1  0  0  0  0
 14 15  1  0  0  0  0
 14 16  2  0  0  0  0
 11 12  1  0  0  0  0
 11 13  1  0  0  0  0
 11 14  1  0  0  0  0
  9 10  1  0  0  0  0
  9 11  1  0  0  0  0
  9 17  1  0  0  0  0
  7  8  1  0  0  0  0
  7  9  1  0  0  0  0
 21 22  1  0  0  0  0
 21 23  1  0  0  0  0
 21 24  1  0  0  0  0
 19 20  1  0  0  0  0
 19 21  1  0  0  0  0
M  CHG  1  15  -1
M  END
$$$$
default_name
  -OEChem-01062215323D

 24 23  0     1  0  0  0  0  0999 V2000
   -2.8347   -3.7166    0.8034 H   0  0  0  0  0  0  0  0  0  0  0  0
   -2.7728   -2.7096    0.3954 C   0  0  0  0  0  0  0  0  0  0  0  0
   -3.4267   -2.0426    0.9524 H   0  0  0  0  0  0  0  0  0  0  0  0
   -3.0538   -2.7186   -0.6556 H   0  0  0  0  0  0  0  0  0  0  0  0
   -1.3498   -2.2206    0.5184 C   0  0  0  0  0  0  0  0  0  0  0  0
   -0.4997   -2.9426    1.0194 O   0  0  0  0  0  0  0  0  0  0  0  0
   -1.1198   -0.9926    0.0674 N   0  0  0  0  0  0  0  0  0  0  0  0
   -1.8978   -0.4486   -0.2716 H   0  0  0  0  0  0  0  0  0  0  0  0
    0.1693   -0.2866    0.0854 C   0  0  1  0  0  0  0  0  0  0  0  0
    0.3677    0.0684    1.0982 H   0  0  0  0  0  0  0  0  0  0  0  0
    1.2931   -1.2677   -0.3129 C   0  0  0  0  0  0  0  0  0  0  0  0
    1.0133   -1.7609   -1.2454 H   0  0  0  0  0  0  0  0  0  0  0  0
    2.2072   -0.6993   -0.4981 H   0  0  0  0  0  0  0  0  0  0  0  0
    1.5798   -2.3642    0.7249 C   0  0  0  0  0  0  0  0  0  0  0  0
    1.3628   -2.1158    1.9343 O   0  5  0  0  0  0  0  0  0  0  0  0
    2.0364   -3.4458    0.2960 O   0  0  0  0  0  0  0  0  0  0  0  0
    0.1052    0.9407   -0.8531 C   0  0  0  0  0  0  0  0  0  0  0  0
   -0.9847    1.3703   -1.2494 O   0  0  0  0  0  0  0  0  0  0  0  0
    1.2578    1.5211   -1.2015 N   0  0  0  0  0  0  0  0  0  0  0  0
    2.1069    1.0420   -0.8956 H   0  0  0  0  0  0  0  0  0  0  0  0
    1.3858    2.6729   -2.0878 C   0  0  0  0  0  0  0  0  0  0  0  0
    0.6438    3.4267   -1.8210 H   0  0  0  0  0  0  0  0  0  0  0  0
    2.3863    3.0950   -1.9967 H   0  0  0  0  0  0  0  0  0  0  0  0
    1.2178    2.3548   -3.1169 H   0  0  0  0  0  0  0  0  0  0  0  0
  5  6  2  0  0  0  0
  5  7  1  0  0  0  0
  2  3  1  0  0  0  0
  2  4  1  0  0  0  0
  2  5  1  0  0  0  0
  1  2  1  0  0  0  0
 17 18  2  0  0  0  0
 17 19  1  0  0  0  0
 14 15  1  0  0  0  0
 14 16  2  0  0  0  0
 11 12  1  0  0  0  0
 11 13  1  0  0  0  0
 11 14  1  0  0  0  0
  9 10  1  0  0  0  0
  9 11  1  0  0  0  0
  9 17  1  0  0  0  0
  7  8  1  0  0  0  0
  7  9  1  0  0  0  0
 21 22  1  0  0  0  0
 21 23  1  0  0  0  0
 21 24  1  0  0  0  0
 19 20  1  0  0  0  0
 19 21  1  0  0  0  0
M  CHG  1  15  -1
M  END
$$$$
default_name
  -OEChem-01062215323D

 24 23  0     1  0  0  0  0  0999 V2000
   -2.8347   -3.7166    0.8034 H   0  0  0  0  0  0  0  0  0  0  0  0
   -2.7728   -2.7096    0.3954 C   0  0  0  0  0  0  0  0  0  0  0  0
   -3.4267   -2.0426    0.9524 H   0  0  0  0  0  0  0  0  0  0  0  0
   -3.0538   -2.7186   -0.6556 H   0  0  0  0  0  0  0  0  0  0  0  0
   -1.3498   -2.2206    0.5184 C   0  0  0  0  0  0  0  0  0  0  0  0
   -0.4997   -2.9426    1.0194 O   0  0  0  0  0  0  0  0  0  0  0  0
   -1.1198   -0.9926    0.0674 N   0  0  0  0  0  0  0  0  0  0  0  0
   -1.8978   -0.4486   -0.2716 H   0  0  0  0  0  0  0  0  0  0  0  0
    0.1693   -0.2866    0.0854 C   0  0  1  0  0  0  0  0  0  0  0  0
    0.3677    0.0684    1.0982 H   0  0  0  0  0  0  0  0  0  0  0  0
    1.2931   -1.2677   -0.3129 C   0  0  0  0  0  0  0  0  0  0  0  0
    1.0133   -1.7609   -1.2454 H   0  0  0  0  0  0  0  0  0  0  0  0
    2.2072   -0.6993   -0.4981 H   0  0  0  0  0  0  0  0  0  0  0  0
    1.5798   -2.3642    0.7249 C   0  0  0  0  0  0  0  0  0  0  0  0
    1.3628   -2.1158    1.9343 O   0  5  0  0  0  0  0  0  0  0  0  0
    2.0364   -3.4458    0.2960 O   0  0  0  0  0  0  0  0  0  0  0  0
    0.1052    0.9407   -0.8531 C   0  0  0  0  0  0  0  0  0  0  0  0
   -0.9623    1.5396   -1.0295 O   0  0  0  0  0  0  0  0  0  0  0  0
    1.2373    1.3334   -1.4455 N   0  0  0  0  0  0  0  0  0  0  0  0
    2.0459    0.7243   -1.3069 H   0  0  0  0  0  0  0  0  0  0  0  0
    1.3577    2.4555   -2.3702 C   0  0  0  0  0  0  0  0  0  0  0  0
    0.8136    3.3156   -1.9778 H   0  0  0  0  0  0  0  0  0  0  0  0
    2.4088    2.7134   -2.4972 H   0  0  0  0  0  0  0  0  0  0  0  0
    0.9336    2.1739   -3.3341 H   0  0  0  0  0  0  0  0  0  0  0  0
  5  6  2  0  0  0  0
  5  7  1  0  0  0  0
  2  3  1  0  0  0  0
  2  4  1  0  0  0  0
  2  5  1  0  0  0  0
  1  2  1  0  0  0  0
 17 18  2  0  0  0  0
 17 19  1  0  0  0  0
 14 15  1  0  0  0  0
 14 16  2  0  0  0  0
 11 12  1  0  0  0  0
 11 13  1  0  0  0  0
 11 14  1  0  0  0  0
  9 10  1  0  0  0  0
  9 11  1  0  0  0  0
  9 17  1  0  0  0  0
  7  8  1  0  0  0  0
  7  9  1  0  0  0  0
 21 22  1  0  0  0  0
 21 23  1  0  0  0  0
 21 24  1  0  0  0  0
 19 20  1  0  0  0  0
 19 21  1  0  0  0  0
M  CHG  1  15  -1
M  END
$$$$
default_name
  -OEChem-01062215323D

 24 23  0     1  0  0  0  0  0999 V2000
   -2.8347   -3.7166    0.8034 H   0  0  0  0  0  0  0  0  0  0  0  0
   -2.7728   -2.7096    0.3954 C   0  0  0  0  0  0  0  0  0  0  0  0
   -3.4267   -2.0426    0.9524 H   0  0  0  0  0  0  0  0  0  0  0  0
   -3.0538   -2.7186   -0.6556 H   0  0  0  0  0  0  0  0  0  0  0  0
   -1.3498   -2.2206    0.5184 C   0  0  0  0  0  0  0  0  0  0  0  0
   -0.4997   -2.9426    1.0194 O   0  0  0  0  0  0  0  0  0  0  0  0
   -1.1198   -0.9926    0.0674 N   0  0  0  0  0  0  0  0  0  0  0  0
   -1.8978   -0.4486   -0.2716 H   0  0  0  0  0  0  0  0  0  0  0  0
    0.1693   -0.2866    0.0854 C   0  0  1  0  0  0  0  0  0  0  0  0
    0.3677    0.0684    1.0982 H   0  0  0  0  0  0  0  0  0  0  0  0
    1.2931   -1.2677   -0.3129 C   0  0  0  0  0  0  0  0  0  0  0  0
    1.0133   -1.7609   -1.2454 H   0  0  0  0  0  0  0  0  0  0  0  0
    2.2072   -0.6993   -0.4981 H   0  0  0  0  0  0  0  0  0  0  0  0
    1.5798   -2.3642    0.7249 C   0  0  0  0  0  0  0  0  0  0  0  0
    1.3628   -2.1158    1.9343 O   0  5  0  0  0  0  0  0  0  0  0  0
    2.0364   -3.4458    0.2960 O   0  0  0  0  0  0  0  0  0  0  0  0
    0.1052    0.9407   -0.8531 C   0  0  0  0  0  0  0  0  0  0  0  0
   -0.8690    1.7019   -0.8236 O   0  0  0  0  0  0  0  0  0  0  0  0
    1.1379    1.1527   -1.6750 N   0  0  0  0  0  0  0  0  0  0  0  0
    1.8526    0.4225   -1.6882 H   0  0  0  0  0  0  0  0  0  0  0  0
    1.2385    2.2469   -2.6348 C   0  0  0  0  0  0  0  0  0  0  0  0
    0.9279    3.1800   -2.1629 H   0  0  0  0  0  0  0  0  0  0  0  0
    2.2678    2.3360   -2.9811 H   0  0  0  0  0  0  0  0  0  0  0  0
    0.5860    2.0414   -3.4836 H   0  0  0  0  0  0  0  0  0  0  0  0
  5  6  2  0  0  0  0
  5  7  1  0  0  0  0
  2  3  1  0  0  0  0
  2  4  1  0  0  0  0
  2  5  1  0  0  0  0
  1  2  1  0  0  0  0
 17 18  2  0  0  0  0
 17 19  1  0  0  0  0
 14 15  1  0  0  0  0
 14 16  2  0  0  0  0
 11 12  1  0  0  0  0
 11 13  1  0  0  0  0
 11 14  1  0  0  0  0
  9 10  1  0  0  0  0
  9 11  1  0  0  0  0
  9 17  1  0  0  0  0
  7  8  1  0  0  0  0
  7  9  1  0  0  0  0
 21 22  1  0  0  0  0
 21 23  1  0  0  0  0
 21 24  1  0  0  0  0
 19 20  1  0  0  0  0
 19 21  1  0  0  0  0
M  CHG  1  15  -1
M  END
$$$$
default_name
  -OEChem-01062215323D

 24 23  0     1  0  0  0  0  0999 V2000
   -2.8347   -3.7166    0.8034 H   0  0  0  0  0  0  0  0  0  0  0  0
   -2.7728   -2.7096    0.3954 C   0  0  0  0  0  0  0  0  0  0  0  0
   -3.4267   -2.0426    0.9524 H   0  0  0  0  0  0  0  0  0  0  0  0
   -3.0538   -2.7186   -0.6556 H   0  0  0  0  0  0  0  0  0  0  0  0
   -1.3498   -2.2206    0.5184 C   0  0  0  0  0  0  0  0  0  0  0  0
   -0.4997   -2.9426    1.0194 O   0  0  0  0  0  0  0  0  0  0  0  0
   -1.1198   -0.9926    0.0674 N   0  0  0  0  0  0  0  0  0  0  0  0
   -1.8978   -0.4486   -0.2716 H   0  0  0  0  0  0  0  0  0  0  0  0
    0.1693   -0.2866    0.0854 C   0  0  1  0  0  0  0  0  0  0  0  0
    0.3677    0.0684    1.0982 H   0  0  0  0  0  0  0  0  0  0  0  0
    1.2931   -1.2677   -0.3129 C   0  0  0  0  0  0  0  0  0  0  0  0
    1.0133   -1.7609   -1.2454 H   0  0  0  0  0  0  0  0  0  0  0  0
    2.2072   -0.6993   -0.4981 H   0  0  0  0  0  0  0  0  0  0  0  0
    1.5798   -2.3642    0.7249 C   0  0  0  0  0  0  0  0  0  0  0  0
    1.3628   -2.1158    1.9343 O   0  5  0  0  0  0  0  0  0  0  0  0
    2.0364   -3.4458    0.2960 O   0  0  0  0  0  0  0  0  0  0  0  0
    0.1052    0.9407   -0.8531 C   0  0  0  0  0  0  0  0  0  0  0  0
   -0.7110    1.8463   -0.6456 O   0  0  0  0  0  0  0  0  0  0  0  0
    0.9663    0.9913   -1.8743 N   0  0  0  0  0  0  0  0  0  0  0  0
    1.5401    0.1574   -2.0136 H   0  0  0  0  0  0  0  0  0  0  0  0
    1.0362    2.0613   -2.8637 C   0  0  0  0  0  0  0  0  0  0  0  0
    0.9790    3.0291   -2.3638 H   0  0  0  0  0  0  0  0  0  0  0  0
    1.9730    1.9884   -3.4155 H   0  0  0  0  0  0  0  0  0  0  0  0
    0.1987    1.9664   -3.5552 H   0  0  0  0  0  0  0  0  0  0  0  0
  5  6  2  0  0  0  0
  5  7  1  0  0  0  0
  2  3  1  0  0  0  0
  2  4  1  0  0  0  0
  2  5  1  0  0  0  0
  1  2  1  0  0  0  0
 17 18  2  0  0  0  0
 17 19  1  0  0  0  0
 14 15  1  0  0  0  0
 14 16  2  0  0  0  0
 11 12  1  0  0  0  0
 11 13  1  0  0  0  0
 11 14  1  0  0  0  0
  9 10  1  0  0  0  0
  9 11  1  0  0  0  0
  9 17  1  0  0  0  0
  7  8  1  0  0  0  0
  7  9  1  0  0  0  0
 21 22  1  0  0  0  0
 21 23  1  0  0  0  0
 21 24  1  0  0  0  0
 19 20  1  0  0  0  0
 19 21  1  0  0  0  0
M  CHG  1  15  -1
M  END
$$$$
default_name
  -OEChem-01062215323D

 24 23  0     1  0  0  0  0  0999 V2000
   -2.8347   -3.7166    0.8034 H   0  0  0  0  0  0  0  0  0  0  0  0
   -2.7728   -2.7096    0.3954 C   0  0  0  0  0  0  0  0  0  0  0  0
   -3.4267   -2.0426    0.9524 H   0  0  0  0  0  0  0  0  0  0  0  0
   -3.0538   -2.7186   -0.6556 H   0  0  0  0  0  0  0  0  0  0  0  0
   -1.3498   -2.2206    0.5184 C   0  0  0  0  0  0  0  0  0  0  0  0
   -0.4997   -2.9426    1.0194 O   0  0  0  0  0  0  0  0  0  0  0  0
   -1.1198   -0.9926    0.0674 N   0  0  0  0  0  0  0  0  0  0  0  0
   -1.8978   -0.4486   -0.2716 H   0  0  0  0  0  0  0  0  0  0  0  0
    0.1693   -0.2866    0.0854 C   0  0  1  0  0  0  0  0  0  0  0  0
    0.3677    0.0684    1.0982 H   0  0  0  0  0  0  0  0  0  0  0  0
    1.2931   -1.2677   -0.3129 C   0  0  0  0  0  0  0  0  0  0  0  0
    1.0133   -1.7609   -1.2454 H   0  0  0  0  0  0  0  0  0  0  0  0
    2.2072   -0.6993   -0.4981 H   0  0  0  0  0  0  0  0  0  0  0  0
    1.5798   -2.3642    0.7249 C   0  0  0  0  0  0  0  0  0  0  0  0
    1.3628   -2.1158    1.9343 O   0  5  0  0  0  0  0  0  0  0  0  0
    2.0364   -3.4458    0.2960 O   0  0  0  0  0  0  0  0  0  0  0  0
    0.1052    0.9407   -0.8531 C   0  0  0  0  0  0  0  0  0  0  0  0
   -0.4992    1.9628   -0.5077 O   0  0  0  0  0  0  0  0  0  0  0  0
    0.7343    0.8603   -2.0298 N   0  0  0  0  0  0  0  0  0  0  0  0
    1.1297   -0.0531   -2.2609 H   0  0  0  0  0  0  0  0  0  0  0  0
    0.7646    1.9113   -3.0413 C   0  0  0  0  0  0  0  0  0  0  0  0
    0.9634    2.8731   -2.5667 H   0  0  0  0  0  0  0  0  0  0  0  0
    1.5443    1.6942   -3.7709 H   0  0  0  0  0  0  0  0  0  0  0  0
   -0.2018    1.9541   -3.5441 H   0  0  0  0  0  0  0  0  0  0  0  0
  5  6  2  0  0  0  0
  5  7  1  0  0  0  0
  2  3  1  0  0  0  0
  2  4  1  0  0  0  0
  2  5  1  0  0  0  0
  1  2  1  0  0  0  0
 17 18  2  0  0  0  0
 17 19  1  0  0  0  0
 14 15  1  0  0  0  0
 14 16  2  0  0  0  0
 11 12  1  0  0  0  0
 11 13  1  0  0  0  0
 11 14  1  0  0  0  0
  9 10  1  0  0  0  0
  9 11  1  0  0  0  0
  9 17  1  0  0  0  0
  7  8  1  0  0  0  0
  7  9  1  0  0  0  0
 21 22  1  0  0  0  0
 21 23  1  0  0  0  0
 21 24  1  0  0  0  0
 19 20  1  0  0  0  0
 19 21  1  0  0  0  0
M  CHG  1  15  -1
M  END
$$$$
default_name
  -OEChem-01062215323D

 24 23  0     1  0  0  0  0  0999 V2000
   -2.8347   -3.7166    0.8034 H   0  0  0  0  0  0  0  0  0  0  0  0
   -2.7728   -2.7096    0.3954 C   0  0  0  0  0  0  0  0  0  0  0  0
   -3.4267   -2.0426    0.9524 H   0  0  0  0  0  0  0  0  0  0  0  0
   -3.0538   -2.7186   -0.6556 H   0  0  0  0  0  0  0  0  0  0  0  0
   -1.3498   -2.2206    0.5184 C   0  0  0  0  0  0  0  0  0  0  0  0
   -0.4997   -2.9426    1.0194 O   0  0  0  0  0  0  0  0  0  0  0  0
   -1.1198   -0.9926    0.0674 N   0  0  0  0  0  0  0  0  0  0  0  0
   -1.8978   -0.4486   -0.2716 H   0  0  0  0  0  0  0  0  0  0  0  0
    0.1693   -0.2866    0.0854 C   0  0  1  0  0  0  0  0  0  0  0  0
    0.3677    0.0684    1.0982 H   0  0  0  0  0  0  0  0  0  0  0  0
    1.2931   -1.2677   -0.3129 C   0  0  0  0  0  0  0  0  0  0  0  0
    1.0133   -1.7609   -1.2454 H   0  0  0  0  0  0  0  0  0  0  0  0
    2.2072   -0.6993   -0.4981 H   0  0  0  0  0  0  0  0  0  0  0  0
    1.5798   -2.3642    0.7249 C   0  0  0  0  0  0  0  0  0  0  0  0
    1.3628   -2.1158    1.9343 O   0  5  0  0  0  0  0  0  0  0  0  0
    2.0364   -3.4458    0.2960 O   0  0  0  0  0  0  0  0  0  0  0  0
    0.1052    0.9407   -0.8531 C   0  0  0  0  0  0  0  0  0  0  0  0
   -0.2479    2.0436   -0.4192 O   0  0  0  0  0  0  0  0  0  0  0  0
    0.4576    0.7684   -2.1310 N   0  0  0  0  0  0  0  0  0  0  0  0
    0.6495   -0.1947   -2.4132 H   0  0  0  0  0  0  0  0  0  0  0  0
    0.4422    1.8072   -3.1554 C   0  0  0  0  0  0  0  0  0  0  0  0
    0.8822    2.7227   -2.7578 H   0  0  0  0  0  0  0  0  0  0  0  0
    1.0111    1.4737   -4.0229 H   0  0  0  0  0  0  0  0  0  0  0  0
   -0.5884    2.0052   -3.4508 H   0  0  0  0  0  0  0  0  0  0  0  0
  5  6  2  0  0  0  0
  5  7  1  0  0  0  0
  2  3  1  0  0  0  0
  2  4  1  0  0  0  0
  2  5  1  0  0  0  0
  1  2  1  0  0  0  0
 17 18  2  0  0  0  0
 17 19  1  0  0  0  0
 14 15  1  0  0  0  0
 14 16  2  0  0  0  0
 11 12  1  0  0  0  0
 11 13  1  0  0  0  0
 11 14  1  0  0  0  0
  9 10  1  0  0  0  0
  9 11  1  0  0  0  0
  9 17  1  0  0  0  0
  7  8  1  0  0  0  0
  7  9  1  0  0  0  0
 21 22  1  0  0  0  0
 21 23  1  0  0  0  0
 21 24  1  0  0  0  0
 19 20  1  0  0  0  0
 19 21  1  0  0  0  0
M  CHG  1  15  -1
M  END
$$$$
default_name
  -OEChem-01062215323D

 24 23  0     1  0  0  0  0  0999 V2000
   -2.8347   -3.7166    0.8034 H   0  0  0  0  0  0  0  0  0  0  0  0
   -2.7728   -2.7096    0.3954 C   0  0  0  0  0  0  0  0  0  0  0  0
   -3.4267   -2.0426    0.9524 H   0  0  0  0  0  0  0  0  0  0  0  0
   -3.0538   -2.7186   -0.6556 H   0  0  0  0  0  0  0  0  0  0  0  0
   -1.3498   -2.2206    0.5184 C   0  0  0  0  0  0  0  0  0  0  0  0
   -0.4997   -2.9426    1.0194 O   0  0  0  0  0  0  0  0  0  0  0  0
   -1.1198   -0.9926    0.0674 N   0  0  0  0  0  0  0  0  0  0  0  0
   -1.8978   -0.4486   -0.2716 H   0  0  0  0  0  0  0  0  0  0  0  0
    0.1693   -0.2866    0.0854 C   0  0  1  0  0  0  0  0  0  0  0  0
    0.3677    0.0684    1.0982 H   0  0  0  0  0  0  0  0  0  0  0  0
    1.2931   -1.2677   -0.3129 C   0  0  0  0  0  0  0  0  0  0  0  0
    1.0133   -1.7609   -1.2454 H   0  0  0  0  0  0  0  0  0  0  0  0
    2.2072   -0.6993   -0.4981 H   0  0  0  0  0  0  0  0  0  0  0  0
    1.5798   -2.3642    0.7249 C   0  0  0  0  0  0  0  0  0  0  0  0
    1.3628   -2.1158    1.9343 O   0  5  0  0  0  0  0  0  0  0  0  0
    2.0364   -3.4458    0.2960 O   0  0  0  0  0  0  0  0  0  0  0  0
    0.1052    0.9407   -0.8531 C   0  0  0  0  0  0  0  0  0  0  0  0
    0.0256    2.0831   -0.3862 O   0  0  0  0  0  0  0  0  0  0  0  0
    0.1552    0.7221   -2.1709 N   0  0  0  0  0  0  0  0  0  0  0  0
    0.1321   -0.2576   -2.4602 H   0  0  0  0  0  0  0  0  0  0  0  0
    0.0910    1.7561   -3.1983 C   0  0  0  0  0  0  0  0  0  0  0  0
    0.7408    2.5881   -2.9241 H   0  0  0  0  0  0  0  0  0  0  0  0
    0.4096    1.3417   -4.1544 H   0  0  0  0  0  0  0  0  0  0  0  0
   -0.9345    2.1163   -3.2819 H   0  0  0  0  0  0  0  0  0  0  0  0
  5  6  2  0  0  0  0
  5  7  1  0  0  0  0
  2  3  1  0  0  0  0
  2  4  1  0  0  0  0
  2  5  1  0  0  0  0
  1  2  1  0  0  0  0
 17 18  2  0  0  0  0
 17 19  1  0  0  0  0
 14 15  1  0  0  0  0
 14 16  2  0  0  0  0
 11 12  1  0  0  0  0
 11 13  1  0  0  0  0
 11 14  1  0  0  0  0
  9 10  1  0  0  0  0
  9 11  1  0  0  0  0
  9 17  1  0  0  0  0
  7  8  1  0  0  0  0
  7  9  1  0  0  0  0
 21 22  1  0  0  0  0
 21 23  1  0  0  0  0
 21 24  1  0  0  0  0
 19 20  1  0  0  0  0
 19 21  1  0  0  0  0
M  CHG  1  15  -1
M  END
$$$$
default_name
  -OEChem-01062215323D

 24 23  0     1  0  0  0  0  0999 V2000
   -2.8347   -3.7166    0.8034 H   0  0  0  0  0  0  0  0  0  0  0  0
   -2.7728   -2.7096    0.3954 C   0  0  0  0  0  0  0  0  0  0  0  0
   -3.4267   -2.0426    0.9524 H   0  0  0  0  0  0  0  0  0  0  0  0
   -3.0538   -2.7186   -0.6556 H   0  0  0  0  0  0  0  0  0  0  0  0
   -1.3498   -2.2206    0.5184 C   0  0  0  0  0  0  0  0  0  0  0  0
   -0.4997   -2.9426    1.0194 O   0  0  0  0  0  0  0  0  0  0  0  0
   -1.1198   -0.9926    0.0674 N   0  0  0  0  0  0  0  0  0  0  0  0
   -1.8978   -0.4486   -0.2716 H   0  0  0  0  0  0  0  0  0  0  0  0
    0.1693   -0.2866    0.0854 C   0  0  1  0  0  0  0  0  0  0  0  0
    0.3677    0.0684    1.0982 H   0  0  0  0  0  0  0  0  0  0  0  0
    1.2931   -1.2677   -0.3129 C   0  0  0  0  0  0  0  0  0  0  0  0
    1.0133   -1.7609   -1.2454 H   0  0  0  0  0  0  0  0  0  0  0  0
    2.2072   -0.6993   -0.4981 H   0  0  0  0  0  0  0  0  0  0  0  0
    1.5798   -2.3642    0.7249 C   0  0  0  0  0  0  0  0  0  0  0  0
    1.3628   -2.1158    1.9343 O   0  5  0  0  0  0  0  0  0  0  0  0
    2.0364   -3.4458    0.2960 O   0  0  0  0  0  0  0  0  0  0  0  0
    0.1052    0.9407   -0.8531 C   0  0  0  0  0  0  0  0  0  0  0  0
    0.3028    2.0786   -0.4110 O   0  0  0  0  0  0  0  0  0  0  0  0
   -0.1524    0.7245   -2.1468 N   0  0  0  0  0  0  0  0  0  0  0  0
   -0.3872   -0.2376   -2.3986 H   0  0  0  0  0  0  0  0  0  0  0  0
   -0.2651    1.7614   -3.1671 C   0  0  0  0  0  0  0  0  0  0  0  0
    0.5490    2.4786   -3.0543 H   0  0  0  0  0  0  0  0  0  0  0  0
   -0.2192    1.3073   -4.1565 H   0  0  0  0  0  0  0  0  0  0  0  0
   -1.2168    2.2798   -3.0489 H   0  0  0  0  0  0  0  0  0  0  0  0
  5  6  2  0  0  0  0
  5  7  1  0  0  0  0
  2  3  1  0  0  0  0
  2  4  1  0  0  0  0
  2  5  1  0  0  0  0
  1  2  1  0  0  0  0
 17 18  2  0  0  0  0
 17 19  1  0  0  0  0
 14 15  1  0  0  0  0
 14 16  2  0  0  0  0
 11 12  1  0  0  0  0
 11 13  1  0  0  0  0
 11 14  1  0  0  0  0
  9 10  1  0  0  0  0
  9 11  1  0  0  0  0
  9 17  1  0  0  0  0
  7  8  1  0  0  0  0
  7  9  1  0  0  0  0
 21 22  1  0  0  0  0
 21 23  1  0  0  0  0
 21 24  1  0  0  0  0
 19 20  1  0  0  0  0
 19 21  1  0  0  0  0
M  CHG  1  15  -1
M  END
$$$$
default_name
  -OEChem-01062215323D

 24 23  0     1  0  0  0  0  0999 V2000
   -2.8347   -3.7166    0.8034 H   0  0  0  0  0  0  0  0  0  0  0  0
   -2.7728   -2.7096    0.3954 C   0  0  0  0  0  0  0  0  0  0  0  0
   -3.4267   -2.0426    0.9524 H   0  0  0  0  0  0  0  0  0  0  0  0
   -3.0538   -2.7186   -0.6556 H   0  0  0  0  0  0  0  0  0  0  0  0
   -1.3498   -2.2206    0.5184 C   0  0  0  0  0  0  0  0  0  0  0  0
   -0.4997   -2.9426    1.0194 O   0  0  0  0  0  0  0  0  0  0  0  0
   -1.1198   -0.9926    0.0674 N   0  0  0  0  0  0  0  0  0  0  0  0
   -1.8978   -0.4486   -0.2716 H   0  0  0  0  0  0  0  0  0  0  0  0
    0.1693   -0.2866    0.0854 C   0  0  1  0  0  0  0  0  0  0  0  0
    0.3677    0.0684    1.0982 H   0  0  0  0  0  0  0  0  0  0  0  0
    1.2931   -1.2677   -0.3129 C   0  0  0  0  0  0  0  0  0  0  0  0
    1.0133   -1.7609   -1.2454 H   0  0  0  0  0  0  0  0  0  0  0  0
    2.2072   -0.6993   -0.4981 H   0  0  0  0  0  0  0  0  0  0  0  0
    1.5798   -2.3642    0.7249 C   0  0  0  0  0  0  0  0  0  0  0  0
    1.3628   -2.1158    1.9343 O   0  5  0  0  0  0  0  0  0  0  0  0
    2.0364   -3.4458    0.2960 O   0  0  0  0  0  0  0  0  0  0  0  0
    0.1052    0.9407   -0.8531 C   0  0  0  0  0  0  0  0  0  0  0  0
    0.5648    2.0305   -0.4918 O   0  0  0  0  0  0  0  0  0  0  0  0
   -0.4442    0.7753   -2.0604 N   0  0  0  0  0  0  0  0  0  0  0  0
   -0.8730   -0.1360   -2.2326 H   0  0  0  0  0  0  0  0  0  0  0  0
   -0.6018    1.8228   -3.0638 C   0  0  0  0  0  0  0  0  0  0  0  0
    0.3198    2.4015   -3.1394 H   0  0  0  0  0  0  0  0  0  0  0  0
   -0.8324    1.3728   -4.0290 H   0  0  0  0  0  0  0  0  0  0  0  0
   -1.4159    2.4846   -2.7675 H   0  0  0  0  0  0  0  0  0  0  0  0
  5  6  2  0  0  0  0
  5  7  1  0  0  0  0
  2  3  1  0  0  0  0
  2  4  1  0  0  0  0
  2  5  1  0  0  0  0
  1  2  1  0  0  0  0
 17 18  2  0  0  0  0
 17 19  1  0  0  0  0
 14 15  1  0  0  0  0
 14 16  2  0  0  0  0
 11 12  1  0  0  0  0
 11 13  1  0  0  0  0
 11 14  1  0  0  0  0
  9 10  1  0  0  0  0
  9 11  1  0  0  0  0
  9 17  1  0  0  0  0
  7  8  1  0  0  0  0
  7  9  1  0  0  0  0
 21 22  1  0  0  0  0
 21 23  1  0  0  0  0
 21 24  1  0  0  0  0
 19 20  1  0  0  0  0
 19 21  1  0  0  0  0
M  CHG  1  15  -1
M  END
$$$$
default_name
  -OEChem-01062215323D

 24 23  0     1  0  0  0  0  0999 V2000
   -2.8347   -3.7166    0.8034 H   0  0  0  0  0  0  0  0  0  0  0  0
   -2.7728   -2.7096    0.3954 C   0  0  0  0  0  0  0  0  0  0  0  0
   -3.4267   -2.0426    0.9524 H   0  0  0  0  0  0  0  0  0  0  0  0
   -3.0538   -2.7186   -0.6556 H   0  0  0  0  0  0  0  0  0  0  0  0
   -1.3498   -2.2206    0.5184 C   0  0  0  0  0  0  0  0  0  0  0  0
   -0.4997   -2.9426    1.0194 O   0  0  0  0  0  0  0  0  0  0  0  0
   -1.1198   -0.9926    0.0674 N   0  0  0  0  0  0  0  0  0  0  0  0
   -1.8978   -0.4486   -0.2716 H   0  0  0  0  0  0  0  0  0  0  0  0
    0.1693   -0.2866    0.0854 C   0  0  1  0  0  0  0  0  0  0  0  0
    0.3677    0.0684    1.0982 H   0  0  0  0  0  0  0  0  0  0  0  0
    1.2931   -1.2677   -0.3129 C   0  0  0  0  0  0  0  0  0  0  0  0
    1.0133   -1.7609   -1.2454 H   0  0  0  0  0  0  0  0  0  0  0  0
    2.2072   -0.6993   -0.4981 H   0  0  0  0  0  0  0  0  0  0  0  0
    1.5798   -2.3642    0.7249 C   0  0  0  0  0  0  0  0  0  0  0  0
    1.3628   -2.1158    1.9343 O   0  5  0  0  0  0  0  0  0  0  0  0
    2.0364   -3.4458    0.2960 O   0  0  0  0  0  0  0  0  0  0  0  0
    0.1052    0.9407   -0.8531 C   0  0  0  0  0  0  0  0  0  0  0  0
    0.7937    1.9420   -0.6232 O   0  0  0  0  0  0  0  0  0  0  0  0
   -0.7003    0.8712   -1.9176 N   0  0  0  0  0  0  0  0  0  0  0  0
   -1.2922    0.0402   -1.9736 H   0  0  0  0  0  0  0  0  0  0  0  0
   -0.8961    1.9362   -2.8955 C   0  0  0  0  0  0  0  0  0  0  0  0
    0.0687    2.3622   -3.1737 H   0  0  0  0  0  0  0  0  0  0  0  0
   -1.3882    1.5338   -3.7806 H   0  0  0  0  0  0  0  0  0  0  0  0
   -1.5182    2.7167   -2.4571 H   0  0  0  0  0  0  0  0  0  0  0  0
  5  6  2  0  0  0  0
  5  7  1  0  0  0  0
  2  3  1  0  0  0  0
  2  4  1  0  0  0  0
  2  5  1  0  0  0  0
  1  2  1  0  0  0  0
 17 18  2  0  0  0  0
 17 19  1  0  0  0  0
 14 15  1  0  0  0  0
 14 16  2  0  0  0  0
 11 12  1  0  0  0  0
 11 13  1  0  0  0  0
 11 14  1  0  0  0  0
  9 10  1  0  0  0  0
  9 11  1  0  0  0  0
  9 17  1  0  0  0  0
  7  8  1  0  0  0  0
  7  9  1  0  0  0  0
 21 22  1  0  0  0  0
 21 23  1  0  0  0  0
 21 24  1  0  0  0  0
 19 20  1  0  0  0  0
 19 21  1  0  0  0  0
M  CHG  1  15  -1
M  END
$$$$
default_name
  -OEChem-01062215323D

 24 23  0     1  0  0  0  0  0999 V2000
   -2.8347   -3.7166    0.8034 H   0  0  0  0  0  0  0  0  0  0  0  0
   -2.7728   -2.7096    0.3954 C   0  0  0  0  0  0  0  0  0  0  0  0
   -3.4267   -2.0426    0.9524 H   0  0  0  0  0  0  0  0  0  0  0  0
   -3.0538   -2.7186   -0.6556 H   0  0  0  0  0  0  0  0  0  0  0  0
   -1.3498   -2.2206    0.5184 C   0  0  0  0  0  0  0  0  0  0  0  0
   -0.4997   -2.9426    1.0194 O   0  0  0  0  0  0  0  0  0  0  0  0
   -1.1198   -0.9926    0.0674 N   0  0  0  0  0  0  0  0  0  0  0  0
   -1.8978   -0.4486   -0.2716 H   0  0  0  0  0  0  0  0  0  0  0  0
    0.1693   -0.2866    0.0854 C   0  0  1  0  0  0  0  0  0  0  0  0
    0.3677    0.0684    1.0982 H   0  0  0  0  0  0  0  0  0  0  0  0
    1.2931   -1.2677   -0.3129 C   0  0  0  0  0  0  0  0  0  0  0  0
    1.0133   -1.7609   -1.2454 H   0  0  0  0  0  0  0  0  0  0  0  0
    2.2072   -0.6993   -0.4981 H   0  0  0  0  0  0  0  0  0  0  0  0
    1.5798   -2.3642    0.7249 C   0  0  0  0  0  0  0  0  0  0  0  0
    1.3628   -2.1158    1.9343 O   0  5  0  0  0  0  0  0  0  0  0  0
    2.0364   -3.4458    0.2960 O   0  0  0  0  0  0  0  0  0  0  0  0
    0.1052    0.9407   -0.8531 C   0  0  0  0  0  0  0  0  0  0  0  0
    0.9739    1.8191   -0.7961 O   0  0  0  0  0  0  0  0  0  0  0  0
   -0.9033    1.0056   -1.7280 N   0  0  0  0  0  0  0  0  0  0  0  0
   -1.6162    0.2790   -1.6392 H   0  0  0  0  0  0  0  0  0  0  0  0
   -1.1281    2.0937   -2.6738 C   0  0  0  0  0  0  0  0  0  0  0  0
   -0.1870    2.3632   -3.1549 H   0  0  0  0  0  0  0  0  0  0  0  0
   -1.8487    1.7793   -3.4282 H   0  0  0  0  0  0  0  0  0  0  0  0
   -1.5168    2.9603   -2.1386 H   0  0  0  0  0  0  0  0  0  0  0  0
  5  6  2  0  0  0  0
  5  7  1  0  0  0  0
  2  3  1  0  0  0  0
  2  4  1  0  0  0  0
  2  5  1  0  0  0  0
  1  2  1  0  0  0  0
 17 18  2  0  0  0  0
 17 19  1  0  0  0  0
 14 15  1  0  0  0  0
 14 16  2  0  0  0  0
 11 12  1  0  0  0  0
 11 13  1  0  0  0  0
 11 14  1  0  0  0  0
  9 10  1  0  0  0  0
  9 11  1  0  0  0  0
  9 17  1  0  0  0  0
  7  8  1  0  0  0  0
  7  9  1  0  0  0  0
 21 22  1  0  0  0  0
 21 23  1  0  0  0  0
 21 24  1  0  0  0  0
 19 20  1  0  0  0  0
 19 21  1  0  0  0  0
M  CHG  1  15  -1
M  END
$$$$
default_name
  -OEChem-01062215323D

 24 23  0     1  0  0  0  0  0999 V2000
   -2.8347   -3.7166    0.8034 H   0  0  0  0  0  0  0  0  0  0  0  0
   -2.7728   -2.7096    0.3954 C   0  0  0  0  0  0  0  0  0  0  0  0
   -3.4267   -2.0426    0.9524 H   0  0  0  0  0  0  0  0  0  0  0  0
   -3.0538   -2.7186   -0.6556 H   0  0  0  0  0  0  0  0  0  0  0  0
   -1.3498   -2.2206    0.5184 C   0  0  0  0  0  0  0  0  0  0  0  0
   -0.4997   -2.9426    1.0194 O   0  0  0  0  0  0  0  0  0  0  0  0
   -1.1198   -0.9926    0.0674 N   0  0  0  0  0  0  0  0  0  0  0  0
   -1.8978   -0.4486   -0.2716 H   0  0  0  0  0  0  0  0  0  0  0  0
    0.1693   -0.2866    0.0854 C   0  0  1  0  0  0  0  0  0  0  0  0
    0.3677    0.0684    1.0982 H   0  0  0  0  0  0  0  0  0  0  0  0
    1.2931   -1.2677   -0.3129 C   0  0  0  0  0  0  0  0  0  0  0  0
    1.0133   -1.7609   -1.2454 H   0  0  0  0  0  0  0  0  0  0  0  0
    2.2072   -0.6993   -0.4981 H   0  0  0  0  0  0  0  0  0  0  0  0
    1.5798   -2.3642    0.7249 C   0  0  0  0  0  0  0  0  0  0  0  0
    1.3628   -2.1158    1.9343 O   0  5  0  0  0  0  0  0  0  0  0  0
    2.0364   -3.4458    0.2960 O   0  0  0  0  0  0  0  0  0  0  0  0
    0.1052    0.9407   -0.8531 C   0  0  0  0  0  0  0  0  0  0  0  0
    1.0931    1.6703   -0.9989 O   0  0  0  0  0  0  0  0  0  0  0  0
   -1.0393    1.1693   -1.5046 N   0  0  0  0  0  0  0  0  0  0  0  0
   -1.8230    0.5642   -1.2522 H   0  0  0  0  0  0  0  0  0  0  0  0
   -1.2818    2.2846   -2.4136 C   0  0  0  0  0  0  0  0  0  0  0  0
   -0.4299    2.4046   -3.0842 H   0  0  0  0  0  0  0  0  0  0  0  0
   -2.1826    2.0925   -2.9959 H   0  0  0  0  0  0  0  0  0  0  0  0
   -1.4118    3.1987   -1.8340 H   0  0  0  0  0  0  0  0  0  0  0  0
  5  6  2  0  0  0  0
  5  7  1  0  0  0  0
  2  3  1  0  0  0  0
  2  4  1  0  0  0  0
  2  5  1  0  0  0  0
  1  2  1  0  0  0  0
 17 18  2  0  0  0  0
 17 19  1  0  0  0  0
 14 15  1  0  0  0  0
 14 16  2  0  0  0  0
 11 12  1  0  0  0  0
 11 13  1  0  0  0  0
 11 14  1  0  0  0  0
  9 10  1  0  0  0  0
  9 11  1  0  0  0  0
  9 17  1  0  0  0  0
  7  8  1  0  0  0  0
  7  9  1  0  0  0  0
 21 22  1  0  0  0  0
 21 23  1  0  0  0  0
 21 24  1  0  0  0  0
 19 20  1  0  0  0  0
 19 21  1  0  0  0  0
M  CHG  1  15  -1
M  END
$$$$
default_name
  -OEChem-01062215323D

 24 23  0     1  0  0  0  0  0999 V2000
   -2.8347   -3.7166    0.8034 H   0  0  0  0  0  0  0  0  0  0  0  0
   -2.7728   -2.7096    0.3954 C   0  0  0  0  0  0  0  0  0  0  0  0
   -3.4267   -2.0426    0.9524 H   0  0  0  0  0  0  0  0  0  0  0  0
   -3.0538   -2.7186   -0.6556 H   0  0  0  0  0  0  0  0  0  0  0  0
   -1.3498   -2.2206    0.5184 C   0  0  0  0  0  0  0  0  0  0  0  0
   -0.4997   -2.9426    1.0194 O   0  0  0  0  0  0  0  0  0  0  0  0
   -1.1198   -0.9926    0.0674 N   0  0  0  0  0  0  0  0  0  0  0  0
   -1.8978   -0.4486   -0.2716 H   0  0  0  0  0  0  0  0  0  0  0  0
    0.1693   -0.2866    0.0854 C   0  0  1  0  0  0  0  0  0  0  0  0
    0.3677    0.0684    1.0982 H   0  0  0  0  0  0  0  0  0  0  0  0
    1.2931   -1.2677   -0.3129 C   0  0  0  0  0  0  0  0  0  0  0  0
    1.0133   -1.7609   -1.2454 H   0  0  0  0  0  0  0  0  0  0  0  0
    2.2072   -0.6993   -0.4981 H   0  0  0  0  0  0  0  0  0  0  0  0
    1.5798   -2.3642    0.7249 C   0  0  0  0  0  0  0  0  0  0  0  0
    1.3628   -2.1158    1.9343 O   0  5  0  0  0  0  0  0  0  0  0  0
    2.0364   -3.4458    0.2960 O   0  0  0  0  0  0  0  0  0  0  0  0
    0.1052    0.9407   -0.8531 C   0  0  0  0  0  0  0  0  0  0  0  0
    1.1432    1.5056   -1.2176 O   0  0  0  0  0  0  0  0  0  0  0  0
   -1.0991    1.3512   -1.2627 N   0  0  0  0  0  0  0  0  0  0  0  0
   -1.8984    0.8763   -0.8390 H   0  0  0  0  0  0  0  0  0  0  0  0
   -1.3469    2.4960   -2.1327 C   0  0  0  0  0  0  0  0  0  0  0  0
   -0.6436    2.4836   -2.9664 H   0  0  0  0  0  0  0  0  0  0  0  0
   -2.3671    2.4521   -2.5130 H   0  0  0  0  0  0  0  0  0  0  0  0
   -1.2103    3.4159   -1.5638 H   0  0  0  0  0  0  0  0  0  0  0  0
  5  6  2  0  0  0  0
  5  7  1  0  0  0  0
  2  3  1  0  0  0  0
  2  4  1  0  0  0  0
  2  5  1  0  0  0  0
  1  2  1  0  0  0  0
 17 18  2  0  0  0  0
 17 19  1  0  0  0  0
 14 15  1  0  0  0  0
 14 16  2  0  0  0  0
 11 12  1  0  0  0  0
 11 13  1  0  0  0  0
 11 14  1  0  0  0  0
  9 10  1  0  0  0  0
  9 11  1  0  0  0  0
  9 17  1  0  0  0  0
  7  8  1  0  0  0  0
  7  9  1  0  0  0  0
 21 22  1  0  0  0  0
 21 23  1  0  0  0  0
 21 24  1  0  0  0  0
 19 20  1  0  0  0  0
 19 21  1  0  0  0  0
M  CHG  1  15  -1
M  END
$$$$
default_name
  -OEChem-01062215323D

 24 23  0     1  0  0  0  0  0999 V2000
   -2.8347   -3.7166    0.8034 H   0  0  0  0  0  0  0  0  0  0  0  0
   -2.7728   -2.7096    0.3954 C   0  0  0  0  0  0  0  0  0  0  0  0
   -3.4267   -2.0426    0.9524 H   0  0  0  0  0  0  0  0  0  0  0  0
   -3.0538   -2.7186   -0.6556 H   0  0  0  0  0  0  0  0  0  0  0  0
   -1.3498   -2.2206    0.5184 C   0  0  0  0  0  0  0  0  0  0  0  0
   -0.4997   -2.9426    1.0194 O   0  0  0  0  0  0  0  0  0  0  0  0
   -1.1198   -0.9926    0.0674 N   0  0  0  0  0  0  0  0  0  0  0  0
   -1.8978   -0.4486   -0.2716 H   0  0  0  0  0  0  0  0  0  0  0  0
    0.1693   -0.2866    0.0854 C   0  0  1  0  0  0  0  0  0  0  0  0
    0.3677    0.0684    1.0982 H   0  0  0  0  0  0  0  0  0  0  0  0
    1.2931   -1.2677   -0.3129 C   0  0  0  0  0  0  0  0  0  0  0  0
    1.0133   -1.7609   -1.2454 H   0  0  0  0  0  0  0  0  0  0  0  0
    2.2072   -0.6993   -0.4981 H   0  0  0  0  0  0  0  0  0  0  0  0
    1.5798   -2.3642    0.7249 C   0  0  0  0  0  0  0  0  0  0  0  0
    1.3628   -2.1158    1.9343 O   0  5  0  0  0  0  0  0  0  0  0  0
    2.0364   -3.4458    0.2960 O   0  0  0  0  0  0  0  0  0  0  0  0
    0.1052    0.9407   -0.8531 C   0  0  0  0  0  0  0  0  0  0  0  0
    1.1209    1.3364   -1.4374 O   0  0  0  0  0  0  0  0  0  0  0  0
   -1.0786    1.5389   -1.0187 N   0  0  0  0  0  0  0  0  0  0  0  0
   -1.8374    1.1940   -0.4277 H   0  0  0  0  0  0  0  0  0  0  0  0
   -1.3188    2.7134   -1.8504 C   0  0  0  0  0  0  0  0  0  0  0  0
   -0.8134    2.5946   -2.8096 H   0  0  0  0  0  0  0  0  0  0  0  0
   -2.3896    2.8337   -2.0126 H   0  0  0  0  0  0  0  0  0  0  0  0
   -0.9261    3.5968   -1.3466 H   0  0  0  0  0  0  0  0  0  0  0  0
  5  6  2  0  0  0  0
  5  7  1  0  0  0  0
  2  3  1  0  0  0  0
  2  4  1  0  0  0  0
  2  5  1  0  0  0  0
  1  2  1  0  0  0  0
 17 18  2  0  0  0  0
 17 19  1  0  0  0  0
 14 15  1  0  0  0  0
 14 16  2  0  0  0  0
 11 12  1  0  0  0  0
 11 13  1  0  0  0  0
 11 14  1  0  0  0  0
  9 10  1  0  0  0  0
  9 11  1  0  0  0  0
  9 17  1  0  0  0  0
  7  8  1  0  0  0  0
  7  9  1  0  0  0  0
 21 22  1  0  0  0  0
 21 23  1  0  0  0  0
 21 24  1  0  0  0  0
 19 20  1  0  0  0  0
 19 21  1  0  0  0  0
M  CHG  1  15  -1
M  END
$$$$
default_name
  -OEChem-01062215323D

 24 23  0     1  0  0  0  0  0999 V2000
   -2.8347   -3.7166    0.8034 H   0  0  0  0  0  0  0  0  0  0  0  0
   -2.7728   -2.7096    0.3954 C   0  0  0  0  0  0  0  0  0  0  0  0
   -3.4267   -2.0426    0.9524 H   0  0  0  0  0  0  0  0  0  0  0  0
   -3.0538   -2.7186   -0.6556 H   0  0  0  0  0  0  0  0  0  0  0  0
   -1.3498   -2.2206    0.5184 C   0  0  0  0  0  0  0  0  0  0  0  0
   -0.4997   -2.9426    1.0194 O   0  0  0  0  0  0  0  0  0  0  0  0
   -1.1198   -0.9926    0.0674 N   0  0  0  0  0  0  0  0  0  0  0  0
   -1.8978   -0.4486   -0.2716 H   0  0  0  0  0  0  0  0  0  0  0  0
    0.1693   -0.2866    0.0854 C   0  0  1  0  0  0  0  0  0  0  0  0
    0.3677    0.0684    1.0982 H   0  0  0  0  0  0  0  0  0  0  0  0
    1.2931   -1.2677   -0.3129 C   0  0  0  0  0  0  0  0  0  0  0  0
    1.0133   -1.7609   -1.2454 H   0  0  0  0  0  0  0  0  0  0  0  0
    2.2072   -0.6993   -0.4981 H   0  0  0  0  0  0  0  0  0  0  0  0
    1.5798   -2.3642    0.7249 C   0  0  0  0  0  0  0  0  0  0  0  0
    1.3628   -2.1158    1.9343 O   0  5  0  0  0  0  0  0  0  0  0  0
    2.0364   -3.4458    0.2960 O   0  0  0  0  0  0  0  0  0  0  0  0
    0.1052    0.9407   -0.8531 C   0  0  0  0  0  0  0  0  0  0  0  0
    1.0275    1.1740   -1.6433 O   0  0  0  0  0  0  0  0  0  0  0  0
   -0.9791    1.7196   -0.7892 N   0  0  0  0  0  0  0  0  0  0  0  0
   -1.6440    1.4957   -0.0464 H   0  0  0  0  0  0  0  0  0  0  0  0
   -1.1996    2.9220   -1.5857 C   0  0  0  0  0  0  0  0  0  0  0  0
   -0.9277    2.7302   -2.6245 H   0  0  0  0  0  0  0  0  0  0  0  0
   -2.2487    3.2111   -1.5286 H   0  0  0  0  0  0  0  0  0  0  0  0
   -0.5785    3.7293   -1.1971 H   0  0  0  0  0  0  0  0  0  0  0  0
  5  6  2  0  0  0  0
  5  7  1  0  0  0  0
  2  3  1  0  0  0  0
  2  4  1  0  0  0  0
  2  5  1  0  0  0  0
  1  2  1  0  0  0  0
 17 18  2  0  0  0  0
 17 19  1  0  0  0  0
 14 15  1  0  0  0  0
 14 16  2  0  0  0  0
 11 12  1  0  0  0  0
 11 13  1  0  0  0  0
 11 14  1  0  0  0  0
  9 10  1  0  0  0  0
  9 11  1  0  0  0  0
  9 17  1  0  0  0  0
  7  8  1  0  0  0  0
  7  9  1  0  0  0  0
 21 22  1  0  0  0  0
 21 23  1  0  0  0  0
 21 24  1  0  0  0  0
 19 20  1  0  0  0  0
 19 21  1  0  0  0  0
M  CHG  1  15  -1
M  END
$$$$
default_name
  -OEChem-01062215323D

 24 23  0     1  0  0  0  0  0999 V2000
   -2.8347   -3.7166    0.8034 H   0  0  0  0  0  0  0  0  0  0  0  0
   -2.7728   -2.7096    0.3954 C   0  0  0  0  0  0  0  0  0  0  0  0
   -3.4267   -2.0426    0.9524 H   0  0  0  0  0  0  0  0  0  0  0  0
   -3.0538   -2.7186   -0.6556 H   0  0  0  0  0  0  0  0  0  0  0  0
   -1.3498   -2.2206    0.5184 C   0  0  0  0  0  0  0  0  0  0  0  0
   -0.4997   -2.9426    1.0194 O   0  0  0  0  0  0  0  0  0  0  0  0
   -1.1198   -0.9926    0.0674 N   0  0  0  0  0  0  0  0  0  0  0  0
   -1.8978   -0.4486   -0.2716 H   0  0  0  0  0  0  0  0  0  0  0  0
    0.1693   -0.2866    0.0854 C   0  0  1  0  0  0  0  0  0  0  0  0
    0.3677    0.0684    1.0982 H   0  0  0  0  0  0  0  0  0  0  0  0
    1.2931   -1.2677   -0.3129 C   0  0  0  0  0  0  0  0  0  0  0  0
    1.0133   -1.7609   -1.2454 H   0  0  0  0  0  0  0  0  0  0  0  0
    2.2072   -0.6993   -0.4981 H   0  0  0  0  0  0  0  0  0  0  0  0
    1.5798   -2.3642    0.7249 C   0  0  0  0  0  0  0  0  0  0  0  0
    1.3628   -2.1158    1.9343 O   0  5  0  0  0  0  0  0  0  0  0  0
    2.0364   -3.4458    0.2960 O   0  0  0  0  0  0  0  0  0  0  0  0
    0.1052    0.9407   -0.8531 C   0  0  0  0  0  0  0  0  0  0  0  0
    0.8696    1.0296   -1.8213 O   0  0  0  0  0  0  0  0  0  0  0  0
   -0.8076    1.8810   -0.5899 N   0  0  0  0  0  0  0  0  0  0  0  0
   -1.3316    1.7609    0.2790 H   0  0  0  0  0  0  0  0  0  0  0  0
   -0.9973    3.1076   -1.3568 C   0  0  0  0  0  0  0  0  0  0  0  0
   -0.9788    2.8812   -2.4236 H   0  0  0  0  0  0  0  0  0  0  0  0
   -1.9538    3.5587   -1.0942 H   0  0  0  0  0  0  0  0  0  0  0  0
   -0.1912    3.8043   -1.1255 H   0  0  0  0  0  0  0  0  0  0  0  0
  5  6  2  0  0  0  0
  5  7  1  0  0  0  0
  2  3  1  0  0  0  0
  2  4  1  0  0  0  0
  2  5  1  0  0  0  0
  1  2  1  0  0  0  0
 17 18  2  0  0  0  0
 17 19  1  0  0  0  0
 14 15  1  0  0  0  0
 14 16  2  0  0  0  0
 11 12  1  0  0  0  0
 11 13  1  0  0  0  0
 11 14  1  0  0  0  0
  9 10  1  0  0  0  0
  9 11  1  0  0  0  0
  9 17  1  0  0  0  0
  7  8  1  0  0  0  0
  7  9  1  0  0  0  0
 21 22  1  0  0  0  0
 21 23  1  0  0  0  0
 21 24  1  0  0  0  0
 19 20  1  0  0  0  0
 19 21  1  0  0  0  0
M  CHG  1  15  -1
M  END
$$$$
default_name
  -OEChem-01062215323D

 24 23  0     1  0  0  0  0  0999 V2000
   -2.8347   -3.7166    0.8034 H   0  0  0  0  0  0  0  0  0  0  0  0
   -2.7728   -2.7096    0.3954 C   0  0  0  0  0  0  0  0  0  0  0  0
   -3.4267   -2.0426    0.9524 H   0  0  0  0  0  0  0  0  0  0  0  0
   -3.0538   -2.7186   -0.6556 H   0  0  0  0  0  0  0  0  0  0  0  0
   -1.3498   -2.2206    0.5184 C   0  0  0  0  0  0  0  0  0  0  0  0
   -0.4997   -2.9426    1.0194 O   0  0  0  0  0  0  0  0  0  0  0  0
   -1.1198   -0.9926    0.0674 N   0  0  0  0  0  0  0  0  0  0  0  0
   -1.8978   -0.4486   -0.2716 H   0  0  0  0  0  0  0  0  0  0  0  0
    0.1693   -0.2866    0.0854 C   0  0  1  0  0  0  0  0  0  0  0  0
    0.3677    0.0684    1.0982 H   0  0  0  0  0  0  0  0  0  0  0  0
    1.2931   -1.2677   -0.3129 C   0  0  0  0  0  0  0  0  0  0  0  0
    1.0133   -1.7609   -1.2454 H   0  0  0  0  0  0  0  0  0  0  0  0
    2.2072   -0.6993   -0.4981 H   0  0  0  0  0  0  0  0  0  0  0  0
    1.5798   -2.3642    0.7249 C   0  0  0  0  0  0  0  0  0  0  0  0
    1.3628   -2.1158    1.9343 O   0  5  0  0  0  0  0  0  0  0  0  0
    2.0364   -3.4458    0.2960 O   0  0  0  0  0  0  0  0  0  0  0  0
    0.1052    0.9407   -0.8531 C   0  0  0  0  0  0  0  0  0  0  0  0
    0.6577    0.9131   -1.9592 O   0  0  0  0  0  0  0  0  0  0  0  0
   -0.5756    2.0121   -0.4343 N   0  0  0  0  0  0  0  0  0  0  0  0
   -0.9212    1.9714    0.5263 H   0  0  0  0  0  0  0  0  0  0  0  0
   -0.7257    3.2576   -1.1792 C   0  0  0  0  0  0  0  0  0  0  0  0
   -0.9632    3.0371   -2.2207 H   0  0  0  0  0  0  0  0  0  0  0  0
   -1.5251    3.8528   -0.7388 H   0  0  0  0  0  0  0  0  0  0  0  0
    0.2093    3.8166   -1.1367 H   0  0  0  0  0  0  0  0  0  0  0  0
  5  6  2  0  0  0  0
  5  7  1  0  0  0  0
  2  3  1  0  0  0  0
  2  4  1  0  0  0  0
  2  5  1  0  0  0  0
  1  2  1  0  0  0  0
 17 18  2  0  0  0  0
 17 19  1  0  0  0  0
 14 15  1  0  0  0  0
 14 16  2  0  0  0  0
 11 12  1  0  0  0  0
 11 13  1  0  0  0  0
 11 14  1  0  0  0  0
  9 10  1  0  0  0  0
  9 11  1  0  0  0  0
  9 17  1  0  0  0  0
  7  8  1  0  0  0  0
  7  9  1  0  0  0  0
 21 22  1  0  0  0  0
 21 23  1  0  0  0  0
 21 24  1  0  0  0  0
 19 20  1  0  0  0  0
 19 21  1  0  0  0  0
M  CHG  1  15  -1
M  END
$$$$
default_name
  -OEChem-01062215323D

 24 23  0     1  0  0  0  0  0999 V2000
   -2.8347   -3.7166    0.8034 H   0  0  0  0  0  0  0  0  0  0  0  0
   -2.7728   -2.7096    0.3954 C   0  0  0  0  0  0  0  0  0  0  0  0
   -3.4267   -2.0426    0.9524 H   0  0  0  0  0  0  0  0  0  0  0  0
   -3.0538   -2.7186   -0.6556 H   0  0  0  0  0  0  0  0  0  0  0  0
   -1.3498   -2.2206    0.5184 C   0  0  0  0  0  0  0  0  0  0  0  0
   -0.4997   -2.9426    1.0194 O   0  0  0  0  0  0  0  0  0  0  0  0
   -1.1198   -0.9926    0.0674 N   0  0  0  0  0  0  0  0  0  0  0  0
   -1.8978   -0.4486   -0.2716 H   0  0  0  0  0  0  0  0  0  0  0  0
    0.1693   -0.2866    0.0854 C   0  0  1  0  0  0  0  0  0  0  0  0
    0.3677    0.0684    1.0982 H   0  0  0  0  0  0  0  0  0  0  0  0
    1.2931   -1.2677   -0.3129 C   0  0  0  0  0  0  0  0  0  0  0  0
    1.0133   -1.7609   -1.2454 H   0  0  0  0  0  0  0  0  0  0  0  0
    2.2072   -0.6993   -0.4981 H   0  0  0  0  0  0  0  0  0  0  0  0
    1.5798   -2.3642    0.7249 C   0  0  0  0  0  0  0  0  0  0  0  0
    1.3628   -2.1158    1.9343 O   0  5  0  0  0  0  0  0  0  0  0  0
    2.0364   -3.4458    0.2960 O   0  0  0  0  0  0  0  0  0  0  0  0
    0.1052    0.9407   -0.8531 C   0  0  0  0  0  0  0  0  0  0  0  0
    0.4065    0.8323   -2.0477 O   0  0  0  0  0  0  0  0  0  0  0  0
   -0.2989    2.1039   -0.3332 N   0  0  0  0  0  0  0  0  0  0  0  0
   -0.4410    2.1129    0.6786 H   0  0  0  0  0  0  0  0  0  0  0  0
   -0.4033    3.3617   -1.0651 C   0  0  0  0  0  0  0  0  0  0  0  0
   -0.8820    3.1875   -2.0296 H   0  0  0  0  0  0  0  0  0  0  0  0
   -0.9919    4.0734   -0.4868 H   0  0  0  0  0  0  0  0  0  0  0  0
    0.5959    3.7655   -1.2299 H   0  0  0  0  0  0  0  0  0  0  0  0
  5  6  2  0  0  0  0
  5  7  1  0  0  0  0
  2  3  1  0  0  0  0
  2  4  1  0  0  0  0
  2  5  1  0  0  0  0
  1  2  1  0  0  0  0
 17 18  2  0  0  0  0
 17 19  1  0  0  0  0
 14 15  1  0  0  0  0
 14 16  2  0  0  0  0
 11 12  1  0  0  0  0
 11 13  1  0  0  0  0
 11 14  1  0  0  0  0
  9 10  1  0  0  0  0
  9 11  1  0  0  0  0
  9 17  1  0  0  0  0
  7  8  1  0  0  0  0
  7  9  1  0  0  0  0
 21 22  1  0  0  0  0
 21 23  1  0  0  0  0
 21 24  1  0  0  0  0
 19 20  1  0  0  0  0
 19 21  1  0  0  0  0
M  CHG  1  15  -1
M  END
$$$$
default_name
  -OEChem-01062215323D

 24 23  0     1  0  0  0  0  0999 V2000
   -2.8347   -3.7166    0.8034 H   0  0  0  0  0  0  0  0  0  0  0  0
   -2.7728   -2.7096    0.3954 C   0  0  0  0  0  0  0  0  0  0  0  0
   -3.4267   -2.0426    0.9524 H   0  0  0  0  0  0  0  0  0  0  0  0
   -3.0538   -2.7186   -0.6556 H   0  0  0  0  0  0  0  0  0  0  0  0
   -1.3498   -2.2206    0.5184 C   0  0  0  0  0  0  0  0  0  0  0  0
   -0.4997   -2.9426    1.0194 O   0  0  0  0  0  0  0  0  0  0  0  0
   -1.1198   -0.9926    0.0674 N   0  0  0  0  0  0  0  0  0  0  0  0
   -1.8978   -0.4486   -0.2716 H   0  0  0  0  0  0  0  0  0  0  0  0
    0.1693   -0.2866    0.0854 C   0  0  1  0  0  0  0  0  0  0  0  0
    0.3677    0.0684    1.0982 H   0  0  0  0  0  0  0  0  0  0  0  0
    1.2931   -1.2677   -0.3129 C   0  0  0  0  0  0  0  0  0  0  0  0
    1.0133   -1.7609   -1.2454 H   0  0  0  0  0  0  0  0  0  0  0  0
    2.2072   -0.6993   -0.4981 H   0  0  0  0  0  0  0  0  0  0  0  0
    1.5798   -2.3642    0.7249 C   0  0  0  0  0  0  0  0  0  0  0  0
    1.3628   -2.1158    1.9343 O   0  5  0  0  0  0  0  0  0  0  0  0
    2.0364   -3.4458    0.2960 O   0  0  0  0  0  0  0  0  0  0  0  0
    0.1052    0.9407   -0.8531 C   0  0  0  0  0  0  0  0  0  0  0  0
    0.1329    0.7928   -2.0807 O   0  0  0  0  0  0  0  0  0  0  0  0
    0.0035    2.1502   -0.2933 N   0  0  0  0  0  0  0  0  0  0  0  0
    0.0764    2.1758    0.7256 H   0  0  0  0  0  0  0  0  0  0  0  0
   -0.0521    3.4128   -1.0222 C   0  0  0  0  0  0  0  0  0  0  0  0
   -0.7406    3.3221   -1.8633 H   0  0  0  0  0  0  0  0  0  0  0  0
   -0.3904    4.2054   -0.3553 H   0  0  0  0  0  0  0  0  0  0  0  0
    0.9420    3.6544   -1.3988 H   0  0  0  0  0  0  0  0  0  0  0  0
  5  6  2  0  0  0  0
  5  7  1  0  0  0  0
  2  3  1  0  0  0  0
  2  4  1  0  0  0  0
  2  5  1  0  0  0  0
  1  2  1  0  0  0  0
 17 18  2  0  0  0  0
 17 19  1  0  0  0  0
 14 15  1  0  0  0  0
 14 16  2  0  0  0  0
 11 12  1  0  0  0  0
 11 13  1  0  0  0  0
 11 14  1  0  0  0  0
  9 10  1  0  0  0  0
  9 11  1  0  0  0  0
  9 17  1  0  0  0  0
  7  8  1  0  0  0  0
  7  9  1  0  0  0  0
 21 22  1  0  0  0  0
 21 23  1  0  0  0  0
 21 24  1  0  0  0  0
 19 20  1  0  0  0  0
 19 21  1  0  0  0  0
M  CHG  1  15  -1
M  END
$$$$
default_name
  -OEChem-01062215323D

 24 23  0     1  0  0  0  0  0999 V2000
   -2.8347   -3.7166    0.8034 H   0  0  0  0  0  0  0  0  0  0  0  0
   -2.7728   -2.7096    0.3954 C   0  0  0  0  0  0  0  0  0  0  0  0
   -3.4267   -2.0426    0.9524 H   0  0  0  0  0  0  0  0  0  0  0  0
   -3.0538   -2.7186   -0.6556 H   0  0  0  0  0  0  0  0  0  0  0  0
   -1.3498   -2.2206    0.5184 C   0  0  0  0  0  0  0  0  0  0  0  0
   -0.4997   -2.9426    1.0194 O   0  0  0  0  0  0  0  0  0  0  0  0
   -1.1198   -0.9926    0.0674 N   0  0  0  0  0  0  0  0  0  0  0  0
   -1.8978   -0.4486   -0.2716 H   0  0  0  0  0  0  0  0  0  0  0  0
    0.1693   -0.2866    0.0854 C   0  0  1  0  0  0  0  0  0  0  0  0
    0.3677    0.0684    1.0982 H   0  0  0  0  0  0  0  0  0  0  0  0
    1.2931   -1.2677   -0.3129 C   0  0  0  0  0  0  0  0  0  0  0  0
    1.0133   -1.7609   -1.2454 H   0  0  0  0  0  0  0  0  0  0  0  0
    2.2072   -0.6993   -0.4981 H   0  0  0  0  0  0  0  0  0  0  0  0
    1.5798   -2.3642    0.7249 C   0  0  0  0  0  0  0  0  0  0  0  0
    1.3628   -2.1158    1.9343 O   0  5  0  0  0  0  0  0  0  0  0  0
    2.0364   -3.4458    0.2960 O   0  0  0  0  0  0  0  0  0  0  0  0
    0.1052    0.9407   -0.8531 C   0  0  0  0  0  0  0  0  0  0  0  0
   -0.1443    0.7973   -2.0559 O   0  0  0  0  0  0  0  0  0  0  0  0
    0.3111    2.1478   -0.3173 N   0  0  0  0  0  0  0  0  0  0  0  0
    0.5957    2.1558    0.6640 H   0  0  0  0  0  0  0  0  0  0  0  0
    0.3040    3.4075   -1.0535 C   0  0  0  0  0  0  0  0  0  0  0  0
   -0.5488    3.4316   -1.7332 H   0  0  0  0  0  0  0  0  0  0  0  0
    0.2384    4.2398   -0.3532 H   0  0  0  0  0  0  0  0  0  0  0  0
    1.2243    3.4909   -1.6318 H   0  0  0  0  0  0  0  0  0  0  0  0
  5  6  2  0  0  0  0
  5  7  1  0  0  0  0
  2  3  1  0  0  0  0
  2  4  1  0  0  0  0
  2  5  1  0  0  0  0
  1  2  1  0  0  0  0
 17 18  2  0  0  0  0
 17 19  1  0  0  0  0
 14 15  1  0  0  0  0
 14 16  2  0  0  0  0
 11 12  1  0  0  0  0
 11 13  1  0  0  0  0
 11 14  1  0  0  0  0
  9 10  1  0  0  0  0
  9 11  1  0  0  0  0
  9 17  1  0  0  0  0
  7  8  1  0  0  0  0
  7  9  1  0  0  0  0
 21 22  1  0  0  0  0
 21 23  1  0  0  0  0
 21 24  1  0  0  0  0
 19 20  1  0  0  0  0
 19 21  1  0  0  0  0
M  CHG  1  15  -1
M  END
$$$$
default_name
  -OEChem-01062215323D

 24 23  0     1  0  0  0  0  0999 V2000
   -2.8347   -3.7166    0.8034 H   0  0  0  0  0  0  0  0  0  0  0  0
   -2.7728   -2.7096    0.3954 C   0  0  0  0  0  0  0  0  0  0  0  0
   -3.4267   -2.0426    0.9524 H   0  0  0  0  0  0  0  0  0  0  0  0
   -3.0538   -2.7186   -0.6556 H   0  0  0  0  0  0  0  0  0  0  0  0
   -1.3498   -2.2206    0.5184 C   0  0  0  0  0  0  0  0  0  0  0  0
   -0.4997   -2.9426    1.0194 O   0  0  0  0  0  0  0  0  0  0  0  0
   -1.1198   -0.9926    0.0674 N   0  0  0  0  0  0  0  0  0  0  0  0
   -1.8978   -0.4486   -0.2716 H   0  0  0  0  0  0  0  0  0  0  0  0
    0.1693   -0.2866    0.0854 C   0  0  1  0  0  0  0  0  0  0  0  0
    0.3677    0.0684    1.0982 H   0  0  0  0  0  0  0  0  0  0  0  0
    1.2931   -1.2677   -0.3129 C   0  0  0  0  0  0  0  0  0  0  0  0
    1.0133   -1.7609   -1.2454 H   0  0  0  0  0  0  0  0  0  0  0  0
    2.2072   -0.6993   -0.4981 H   0  0  0  0  0  0  0  0  0  0  0  0
    1.5798   -2.3642    0.7249 C   0  0  0  0  0  0  0  0  0  0  0  0
    1.3628   -2.1158    1.9343 O   0  5  0  0  0  0  0  0  0  0  0  0
    2.0364   -3.4458    0.2960 O   0  0  0  0  0  0  0  0  0  0  0  0
    0.1052    0.9407   -0.8531 C   0  0  0  0  0  0  0  0  0  0  0  0
   -0.4062    0.8454   -1.9751 O   0  0  0  0  0  0  0  0  0  0  0  0
    0.6029    2.0970   -0.4037 N   0  0  0  0  0  0  0  0  0  0  0  0
    1.0815    2.0543    0.4981 H   0  0  0  0  0  0  0  0  0  0  0  0
    0.6407    3.3461   -1.1567 C   0  0  0  0  0  0  0  0  0  0  0  0
   -0.3195    3.5087   -1.6480 H   0  0  0  0  0  0  0  0  0  0  0  0
    0.8515    4.1743   -0.4807 H   0  0  0  0  0  0  0  0  0  0  0  0
    1.4234    3.2861   -1.9132 H   0  0  0  0  0  0  0  0  0  0  0  0
  5  6  2  0  0  0  0
  5  7  1  0  0  0  0
  2  3  1  0  0  0  0
  2  4  1  0  0  0  0
  2  5  1  0  0  0  0
  1  2  1  0  0  0  0
 17 18  2  0  0  0  0
 17 19  1  0  0  0  0
 14 15  1  0  0  0  0
 14 16  2  0  0  0  0
 11 12  1  0  0  0  0
 11 13  1  0  0  0  0
 11 14  1  0  0  0  0
  9 10  1  0  0  0  0
  9 11  1  0  0  0  0
  9 17  1  0  0  0  0
  7  8  1  0  0  0  0
  7  9  1  0  0  0  0
 21 22  1  0  0  0  0
 21 23  1  0  0  0  0
 21 24  1  0  0  0  0
 19 20  1  0  0  0  0
 19 21  1  0  0  0  0
M  CHG  1  15  -1
M  END
$$$$
default_name
  -OEChem-01062215323D

 24 23  0     1  0  0  0  0  0999 V2000
   -2.8347   -3.7166    0.8034 H   0  0  0  0  0  0  0  0  0  0  0  0
   -2.7728   -2.7096    0.3954 C   0  0  0  0  0  0  0  0  0  0  0  0
   -3.4267   -2.0426    0.9524 H   0  0  0  0  0  0  0  0  0  0  0  0
   -3.0538   -2.7186   -0.6556 H   0  0  0  0  0  0  0  0  0  0  0  0
   -1.3498   -2.2206    0.5184 C   0  0  0  0  0  0  0  0  0  0  0  0
   -0.4997   -2.9426    1.0194 O   0  0  0  0  0  0  0  0  0  0  0  0
   -1.1198   -0.9926    0.0674 N   0  0  0  0  0  0  0  0  0  0  0  0
   -1.8978   -0.4486   -0.2716 H   0  0  0  0  0  0  0  0  0  0  0  0
    0.1693   -0.2866    0.0854 C   0  0  1  0  0  0  0  0  0  0  0  0
    0.3677    0.0684    1.0982 H   0  0  0  0  0  0  0  0  0  0  0  0
    1.2931   -1.2677   -0.3129 C   0  0  0  0  0  0  0  0  0  0  0  0
    1.0133   -1.7609   -1.2454 H   0  0  0  0  0  0  0  0  0  0  0  0
    2.2072   -0.6993   -0.4981 H   0  0  0  0  0  0  0  0  0  0  0  0
    1.5798   -2.3642    0.7249 C   0  0  0  0  0  0  0  0  0  0  0  0
    1.3628   -2.1158    1.9343 O   0  5  0  0  0  0  0  0  0  0  0  0
    2.0364   -3.4458    0.2960 O   0  0  0  0  0  0  0  0  0  0  0  0
    0.1052    0.9407   -0.8531 C   0  0  0  0  0  0  0  0  0  0  0  0
   -0.6351    0.9340   -1.8438 O   0  0  0  0  0  0  0  0  0  0  0  0
    0.8591    2.0011   -0.5466 N   0  0  0  0  0  0  0  0  0  0  0  0
    1.5007    1.8781    0.2391 H   0  0  0  0  0  0  0  0  0  0  0  0
    0.9350    3.2328   -1.3250 C   0  0  0  0  0  0  0  0  0  0  0  0
   -0.0685    3.5480   -1.6137 H   0  0  0  0  0  0  0  0  0  0  0  0
    1.4073    4.0133   -0.7291 H   0  0  0  0  0  0  0  0  0  0  0  0
    1.5257    3.0540   -2.2237 H   0  0  0  0  0  0  0  0  0  0  0  0
  5  6  2  0  0  0  0
  5  7  1  0  0  0  0
  2  3  1  0  0  0  0
  2  4  1  0  0  0  0
  2  5  1  0  0  0  0
  1  2  1  0  0  0  0
 17 18  2  0  0  0  0
 17 19  1  0  0  0  0
 14 15  1  0  0  0  0
 14 16  2  0  0  0  0
 11 12  1  0  0  0  0
 11 13  1  0  0  0  0
 11 14  1  0  0  0  0
  9 10  1  0  0  0  0
  9 11  1  0  0  0  0
  9 17  1  0  0  0  0
  7  8  1  0  0  0  0
  7  9  1  0  0  0  0
 21 22  1  0  0  0  0
 21 23  1  0  0  0  0
 21 24  1  0  0  0  0
 19 20  1  0  0  0  0
 19 21  1  0  0  0  0
M  CHG  1  15  -1
M  END
$$$$
default_name
  -OEChem-01062215323D

 24 23  0     1  0  0  0  0  0999 V2000
   -2.8347   -3.7166    0.8034 H   0  0  0  0  0  0  0  0  0  0  0  0
   -2.7728   -2.7096    0.3954 C   0  0  0  0  0  0  0  0  0  0  0  0
   -3.4267   -2.0426    0.9524 H   0  0  0  0  0  0  0  0  0  0  0  0
   -3.0538   -2.7186   -0.6556 H   0  0  0  0  0  0  0  0  0  0  0  0
   -1.3498   -2.2206    0.5184 C   0  0  0  0  0  0  0  0  0  0  0  0
   -0.4997   -2.9426    1.0194 O   0  0  0  0  0  0  0  0  0  0  0  0
   -1.1198   -0.9926    0.0674 N   0  0  0  0  0  0  0  0  0  0  0  0
   -1.8978   -0.4486   -0.2716 H   0  0  0  0  0  0  0  0  0  0  0  0
    0.1693   -0.2866    0.0854 C   0  0  1  0  0  0  0  0  0  0  0  0
    0.3677    0.0684    1.0982 H   0  0  0  0  0  0  0  0  0  0  0  0
    1.2931   -1.2677   -0.3129 C   0  0  0  0  0  0  0  0  0  0  0  0
    1.0133   -1.7609   -1.2454 H   0  0  0  0  0  0  0  0  0  0  0  0
    2.2072   -0.6993   -0.4981 H   0  0  0  0  0  0  0  0  0  0  0  0
    1.5798   -2.3642    0.7249 C   0  0  0  0  0  0  0  0  0  0  0  0
    1.3628   -2.1158    1.9343 O   0  5  0  0  0  0  0  0  0  0  0  0
    2.0364   -3.4458    0.2960 O   0  0  0  0  0  0  0  0  0  0  0  0
    0.1052    0.9407   -0.8531 C   0  0  0  0  0  0  0  0  0  0  0  0
   -0.8153    1.0568   -1.6708 O   0  0  0  0  0  0  0  0  0  0  0  0
    1.0620    1.8667   -0.7362 N   0  0  0  0  0  0  0  0  0  0  0  0
    1.8247    1.6392   -0.0953 H   0  0  0  0  0  0  0  0  0  0  0  0
    1.1670    3.0753   -1.5468 C   0  0  0  0  0  0  0  0  0  0  0  0
    0.1872    3.5470   -1.6325 H   0  0  0  0  0  0  0  0  0  0  0  0
    1.8679    3.7678   -1.0815 H   0  0  0  0  0  0  0  0  0  0  0  0
    1.5243    2.8104   -2.5421 H   0  0  0  0  0  0  0  0  0  0  0  0
  5  6  2  0  0  0  0
  5  7  1  0  0  0  0
  2  3  1  0  0  0  0
  2  4  1  0  0  0  0
  2  5  1  0  0  0  0
  1  2  1  0  0  0  0
 17 18  2  0  0  0  0
 17 19  1  0  0  0  0
 14 15  1  0  0  0  0
 14 16  2  0  0  0  0
 11 12  1  0  0  0  0
 11 13  1  0  0  0  0
 11 14  1  0  0  0  0
  9 10  1  0  0  0  0
  9 11  1  0  0  0  0
  9 17  1  0  0  0  0
  7  8  1  0  0  0  0
  7  9  1  0  0  0  0
 21 22  1  0  0  0  0
 21 23  1  0  0  0  0
 21 24  1  0  0  0  0
 19 20  1  0  0  0  0
 19 21  1  0  0  0  0
M  CHG  1  15  -1
M  END
$$$$
