
  -OEChem-01062216073D

 24 23  0     1  0  0  0  0  0999 V2000
   -2.3993   -3.5273    1.0316 H   0  0  0  0  0  0  0  0  0  0  0  0
   -2.2629   -2.6154    0.4440 C   0  0  0  0  0  0  0  0  0  0  0  0
   -3.2416   -2.2248    0.1562 H   0  0  0  0  0  0  0  0  0  0  0  0
   -1.6949   -2.8648   -0.4566 H   0  0  0  0  0  0  0  0  0  0  0  0
   -1.5033   -1.5824    1.2568 C   0  0  0  0  0  0  0  0  0  0  0  0
   -1.4121   -1.7070    2.4684 O   0  0  0  0  0  0  0  0  0  0  0  0
   -1.2541   -0.3367    0.7269 N   0  0  0  0  0  0  0  0  0  0  0  0
   -1.8231   -0.1399   -0.0899 H   0  0  0  0  0  0  0  0  0  0  0  0
    0.1090    0.2014    0.5714 C   0  0  1  0  0  0  0  0  0  0  0  0
    0.6166    0.2321    1.5417 H   0  0  0  0  0  0  0  0  0  0  0  0
    0.9206   -0.6488   -0.4507 C   0  0  0  0  0  0  0  0  0  0  0  0
    0.3516   -0.7043   -1.3836 H   0  0  0  0  0  0  0  0  0  0  0  0
    1.8628   -0.1423   -0.6702 H   0  0  0  0  0  0  0  0  0  0  0  0
    1.3165   -2.0640   -0.0546 C   0  0  0  0  0  0  0  0  0  0  0  0
    1.4988   -2.3267    1.1539 O   0  5  0  0  0  0  0  0  0  0  0  0
    1.4195   -2.8916   -0.9917 O   0  0  0  0  0  0  0  0  0  0  0  0
    0.0539    1.6241   -0.0428 C   0  0  0  0  0  0  0  0  0  0  0  0
   -1.0071    2.1093   -0.4307 O   0  0  0  0  0  0  0  0  0  0  0  0
    1.2215    2.3300   -0.2780 N   0  0  0  0  0  0  0  0  0  0  0  0
    2.0916    1.8626   -0.0383 H   0  0  0  0  0  0  0  0  0  0  0  0
    1.2716    3.6044   -0.9792 C   0  0  0  0  0  0  0  0  0  0  0  0
    0.6584    4.3498   -0.4625 H   0  0  0  0  0  0  0  0  0  0  0  0
    2.3016    3.9711   -1.0179 H   0  0  0  0  0  0  0  0  0  0  0  0
    0.9044    3.4910   -2.0043 H   0  0  0  0  0  0  0  0  0  0  0  0
  1  2  1  0  0  0  0
  2  3  1  0  0  0  0
  2  4  1  0  0  0  0
  2  5  1  0  0  0  0
  5  6  2  0  0  0  0
  5  7  1  0  0  0  0
  7  8  1  0  0  0  0
  7  9  1  0  0  0  0
  9 10  1  0  0  0  0
  9 11  1  0  0  0  0
  9 17  1  0  0  0  0
 11 12  1  0  0  0  0
 11 13  1  0  0  0  0
 11 14  1  0  0  0  0
 14 15  1  0  0  0  0
 14 16  2  0  0  0  0
 17 18  2  0  0  0  0
 17 19  1  0  0  0  0
 19 20  1  0  0  0  0
 19 21  1  0  0  0  0
 21 22  1  0  0  0  0
 21 23  1  0  0  0  0
 21 24  1  0  0  0  0
M  CHG  1  15  -1
M  END
$$$$

  -OEChem-01062216073D

 24 23  0     1  0  0  0  0  0999 V2000
   -2.4353   -3.4983    1.0236 H   0  0  0  0  0  0  0  0  0  0  0  0
   -2.2970   -2.5818    0.4435 C   0  0  0  0  0  0  0  0  0  0  0  0
   -3.2753   -2.1651    0.1939 H   0  0  0  0  0  0  0  0  0  0  0  0
   -1.7653   -2.8322   -0.4787 H   0  0  0  0  0  0  0  0  0  0  0  0
   -1.4870   -1.5779    1.2441 C   0  0  0  0  0  0  0  0  0  0  0  0
   -1.3687   -1.7178    2.4513 O   0  0  0  0  0  0  0  0  0  0  0  0
   -1.2162   -0.3354    0.7164 N   0  0  0  0  0  0  0  0  0  0  0  0
   -1.7963   -0.1163   -0.0859 H   0  0  0  0  0  0  0  0  0  0  0  0
    0.1531    0.1909    0.5623 C   0  0  1  0  0  0  0  0  0  0  0  0
    0.6615    0.2207    1.5323 H   0  0  0  0  0  0  0  0  0  0  0  0
    0.9513   -0.6867   -0.4516 C   0  0  0  0  0  0  0  0  0  0  0  0
    0.3833   -0.7401   -1.3853 H   0  0  0  0  0  0  0  0  0  0  0  0
    1.9062   -0.2068   -0.6722 H   0  0  0  0  0  0  0  0  0  0  0  0
    1.3284   -2.1040   -0.0444 C   0  0  0  0  0  0  0  0  0  0  0  0
    1.5112   -2.3622    1.1645 O   0  5  0  0  0  0  0  0  0  0  0  0
    1.4226   -2.9367   -0.9781 O   0  0  0  0  0  0  0  0  0  0  0  0
    0.1046    1.6191   -0.0528 C   0  0  0  0  0  0  0  0  0  0  0  0
   -0.9643    2.2060   -0.2061 O   0  0  0  0  0  0  0  0  0  0  0  0
    1.2394    2.2150   -0.5786 N   0  0  0  0  0  0  0  0  0  0  0  0
    2.1009    1.6786   -0.5248 H   0  0  0  0  0  0  0  0  0  0  0  0
    1.2406    3.4845   -1.2908 C   0  0  0  0  0  0  0  0  0  0  0  0
    0.8556    4.2839   -0.6496 H   0  0  0  0  0  0  0  0  0  0  0  0
    2.2598    3.7439   -1.5919 H   0  0  0  0  0  0  0  0  0  0  0  0
    0.6194    3.4197   -2.1898 H   0  0  0  0  0  0  0  0  0  0  0  0
  1  2  1  0  0  0  0
  2  3  1  0  0  0  0
  2  4  1  0  0  0  0
  2  5  1  0  0  0  0
  5  6  2  0  0  0  0
  5  7  1  0  0  0  0
  7  8  1  0  0  0  0
  7  9  1  0  0  0  0
  9 10  1  0  0  0  0
  9 11  1  0  0  0  0
  9 17  1  0  0  0  0
 11 12  1  0  0  0  0
 11 13  1  0  0  0  0
 11 14  1  0  0  0  0
 14 15  1  0  0  0  0
 14 16  2  0  0  0  0
 17 18  2  0  0  0  0
 17 19  1  0  0  0  0
 19 20  1  0  0  0  0
 19 21  1  0  0  0  0
 21 22  1  0  0  0  0
 21 23  1  0  0  0  0
 21 24  1  0  0  0  0
M  CHG  1  15  -1
M  END
$$$$

  -OEChem-01062216073D

 24 23  0     1  0  0  0  0  0999 V2000
   -2.4357   -3.4716    1.0240 H   0  0  0  0  0  0  0  0  0  0  0  0
   -2.2831   -2.5628    0.4352 C   0  0  0  0  0  0  0  0  0  0  0  0
   -3.2548   -2.1475    0.1593 H   0  0  0  0  0  0  0  0  0  0  0  0
   -1.7320   -2.8261   -0.4717 H   0  0  0  0  0  0  0  0  0  0  0  0
   -1.4882   -1.5509    1.2406 C   0  0  0  0  0  0  0  0  0  0  0  0
   -1.4002   -1.6744    2.4520 O   0  0  0  0  0  0  0  0  0  0  0  0
   -1.1993   -0.3166    0.7027 N   0  0  0  0  0  0  0  0  0  0  0  0
   -1.7755   -0.1013   -0.1022 H   0  0  0  0  0  0  0  0  0  0  0  0
    0.1801    0.1837    0.5458 C   0  0  1  0  0  0  0  0  0  0  0  0
    0.6852    0.2212    1.5171 H   0  0  0  0  0  0  0  0  0  0  0  0
    0.9703   -0.7276   -0.4455 C   0  0  0  0  0  0  0  0  0  0  0  0
    0.4144   -0.7846   -1.3863 H   0  0  0  0  0  0  0  0  0  0  0  0
    1.9400   -0.2729   -0.6546 H   0  0  0  0  0  0  0  0  0  0  0  0
    1.3225   -2.1432   -0.0111 C   0  0  0  0  0  0  0  0  0  0  0  0
    1.4948   -2.3867    1.2021 O   0  5  0  0  0  0  0  0  0  0  0  0
    1.4069   -2.9907   -0.9322 O   0  0  0  0  0  0  0  0  0  0  0  0
    0.1432    1.6101   -0.0822 C   0  0  0  0  0  0  0  0  0  0  0  0
   -0.8626    2.3094    0.0068 O   0  0  0  0  0  0  0  0  0  0  0  0
    1.1669    2.0898   -0.8844 N   0  0  0  0  0  0  0  0  0  0  0  0
    1.9642    1.4748   -1.0202 H   0  0  0  0  0  0  0  0  0  0  0  0
    1.1264    3.3599   -1.5946 C   0  0  0  0  0  0  0  0  0  0  0  0
    1.0146    4.1894   -0.8890 H   0  0  0  0  0  0  0  0  0  0  0  0
    2.0548    3.5049   -2.1548 H   0  0  0  0  0  0  0  0  0  0  0  0
    0.2895    3.3776   -2.3002 H   0  0  0  0  0  0  0  0  0  0  0  0
  1  2  1  0  0  0  0
  2  3  1  0  0  0  0
  2  4  1  0  0  0  0
  2  5  1  0  0  0  0
  5  6  2  0  0  0  0
  5  7  1  0  0  0  0
  7  8  1  0  0  0  0
  7  9  1  0  0  0  0
  9 10  1  0  0  0  0
  9 11  1  0  0  0  0
  9 17  1  0  0  0  0
 11 12  1  0  0  0  0
 11 13  1  0  0  0  0
 11 14  1  0  0  0  0
 14 15  1  0  0  0  0
 14 16  2  0  0  0  0
 17 18  2  0  0  0  0
 17 19  1  0  0  0  0
 19 20  1  0  0  0  0
 19 21  1  0  0  0  0
 21 22  1  0  0  0  0
 21 23  1  0  0  0  0
 21 24  1  0  0  0  0
M  CHG  1  15  -1
M  END
$$$$

  -OEChem-01062216073D

 24 23  0     1  0  0  0  0  0999 V2000
   -2.4013   -3.4667    1.0299 H   0  0  0  0  0  0  0  0  0  0  0  0
   -2.2683   -2.5556    0.4401 C   0  0  0  0  0  0  0  0  0  0  0  0
   -3.2489   -2.1574    0.1701 H   0  0  0  0  0  0  0  0  0  0  0  0
   -1.7180   -2.8101   -0.4697 H   0  0  0  0  0  0  0  0  0  0  0  0
   -1.4871   -1.5297    1.2413 C   0  0  0  0  0  0  0  0  0  0  0  0
   -1.4230   -1.6324    2.4560 O   0  0  0  0  0  0  0  0  0  0  0  0
   -1.1933   -0.3036    0.6869 N   0  0  0  0  0  0  0  0  0  0  0  0
   -1.7650   -0.1102   -0.1259 H   0  0  0  0  0  0  0  0  0  0  0  0
    0.1924    0.1763    0.5174 C   0  0  1  0  0  0  0  0  0  0  0  0
    0.6968    0.2275    1.4888 H   0  0  0  0  0  0  0  0  0  0  0  0
    0.9825   -0.7595   -0.4499 C   0  0  0  0  0  0  0  0  0  0  0  0
    0.4327   -0.8345   -1.3929 H   0  0  0  0  0  0  0  0  0  0  0  0
    1.9556   -0.3092   -0.6567 H   0  0  0  0  0  0  0  0  0  0  0  0
    1.3258   -2.1674    0.0151 C   0  0  0  0  0  0  0  0  0  0  0  0
    1.4916   -2.3890    1.2332 O   0  5  0  0  0  0  0  0  0  0  0  0
    1.4009   -3.0337   -0.8894 O   0  0  0  0  0  0  0  0  0  0  0  0
    0.1622    1.5962   -0.1266 C   0  0  0  0  0  0  0  0  0  0  0  0
   -0.7013    2.4071    0.1935 O   0  0  0  0  0  0  0  0  0  0  0  0
    1.0009    1.9613   -1.1690 N   0  0  0  0  0  0  0  0  0  0  0  0
    1.6716    1.2636   -1.4788 H   0  0  0  0  0  0  0  0  0  0  0  0
    0.9458    3.2431   -1.8574 C   0  0  0  0  0  0  0  0  0  0  0  0
    1.1016    4.0645   -1.1505 H   0  0  0  0  0  0  0  0  0  0  0  0
    1.7275    3.2916   -2.6213 H   0  0  0  0  0  0  0  0  0  0  0  0
   -0.0250    3.3739   -2.3460 H   0  0  0  0  0  0  0  0  0  0  0  0
  1  2  1  0  0  0  0
  2  3  1  0  0  0  0
  2  4  1  0  0  0  0
  2  5  1  0  0  0  0
  5  6  2  0  0  0  0
  5  7  1  0  0  0  0
  7  8  1  0  0  0  0
  7  9  1  0  0  0  0
  9 10  1  0  0  0  0
  9 11  1  0  0  0  0
  9 17  1  0  0  0  0
 11 12  1  0  0  0  0
 11 13  1  0  0  0  0
 11 14  1  0  0  0  0
 14 15  1  0  0  0  0
 14 16  2  0  0  0  0
 17 18  2  0  0  0  0
 17 19  1  0  0  0  0
 19 20  1  0  0  0  0
 19 21  1  0  0  0  0
 21 22  1  0  0  0  0
 21 23  1  0  0  0  0
 21 24  1  0  0  0  0
M  CHG  1  15  -1
M  END
$$$$

  -OEChem-01062216073D

 24 23  0     1  0  0  0  0  0999 V2000
   -2.3466   -3.4793    1.0494 H   0  0  0  0  0  0  0  0  0  0  0  0
   -2.2363   -2.5705    0.4515 C   0  0  0  0  0  0  0  0  0  0  0  0
   -3.2263   -2.2014    0.1749 H   0  0  0  0  0  0  0  0  0  0  0  0
   -1.6775   -2.8193   -0.4548 H   0  0  0  0  0  0  0  0  0  0  0  0
   -1.4855   -1.5169    1.2465 C   0  0  0  0  0  0  0  0  0  0  0  0
   -1.4515   -1.5909    2.4644 O   0  0  0  0  0  0  0  0  0  0  0  0
   -1.2009   -0.2961    0.6747 N   0  0  0  0  0  0  0  0  0  0  0  0
   -1.7669   -0.1345   -0.1484 H   0  0  0  0  0  0  0  0  0  0  0  0
    0.1860    0.1754    0.4917 C   0  0  1  0  0  0  0  0  0  0  0  0
    0.6935    0.2402    1.4607 H   0  0  0  0  0  0  0  0  0  0  0  0
    0.9771   -0.7721   -0.4621 C   0  0  0  0  0  0  0  0  0  0  0  0
    0.4230   -0.8692   -1.4006 H   0  0  0  0  0  0  0  0  0  0  0  0
    1.9442   -0.3123   -0.6812 H   0  0  0  0  0  0  0  0  0  0  0  0
    1.3231   -2.1728    0.0227 C   0  0  0  0  0  0  0  0  0  0  0  0
    1.4895   -2.3786    1.2434 O   0  5  0  0  0  0  0  0  0  0  0  0
    1.3903   -3.0518   -0.8702 O   0  0  0  0  0  0  0  0  0  0  0  0
    0.1574    1.5860   -0.1674 C   0  0  0  0  0  0  0  0  0  0  0  0
   -0.5000    2.4921    0.3323 O   0  0  0  0  0  0  0  0  0  0  0  0
    0.7544    1.8469   -1.3919 N   0  0  0  0  0  0  0  0  0  0  0  0
    1.2783    1.0843   -1.8134 H   0  0  0  0  0  0  0  0  0  0  0  0
    0.7095    3.1348   -2.0692 C   0  0  0  0  0  0  0  0  0  0  0  0
    1.1558    3.9128   -1.4416 H   0  0  0  0  0  0  0  0  0  0  0  0
    1.2690    3.0838   -3.0079 H   0  0  0  0  0  0  0  0  0  0  0  0
   -0.3248    3.4118   -2.2967 H   0  0  0  0  0  0  0  0  0  0  0  0
  1  2  1  0  0  0  0
  2  3  1  0  0  0  0
  2  4  1  0  0  0  0
  2  5  1  0  0  0  0
  5  6  2  0  0  0  0
  5  7  1  0  0  0  0
  7  8  1  0  0  0  0
  7  9  1  0  0  0  0
  9 10  1  0  0  0  0
  9 11  1  0  0  0  0
  9 17  1  0  0  0  0
 11 12  1  0  0  0  0
 11 13  1  0  0  0  0
 11 14  1  0  0  0  0
 14 15  1  0  0  0  0
 14 16  2  0  0  0  0
 17 18  2  0  0  0  0
 17 19  1  0  0  0  0
 19 20  1  0  0  0  0
 19 21  1  0  0  0  0
 21 22  1  0  0  0  0
 21 23  1  0  0  0  0
 21 24  1  0  0  0  0
M  CHG  1  15  -1
M  END
$$$$

  -OEChem-01062216073D

 24 23  0     1  0  0  0  0  0999 V2000
   -2.2487   -3.5107    1.0686 H   0  0  0  0  0  0  0  0  0  0  0  0
   -2.1944   -2.5963    0.4714 C   0  0  0  0  0  0  0  0  0  0  0  0
   -3.2059   -2.2773    0.2115 H   0  0  0  0  0  0  0  0  0  0  0  0
   -1.6379   -2.8150   -0.4438 H   0  0  0  0  0  0  0  0  0  0  0  0
   -1.4866   -1.5081    1.2588 C   0  0  0  0  0  0  0  0  0  0  0  0
   -1.4945   -1.5478    2.4787 O   0  0  0  0  0  0  0  0  0  0  0  0
   -1.2193   -0.2928    0.6670 N   0  0  0  0  0  0  0  0  0  0  0  0
   -1.7780   -0.1702   -0.1677 H   0  0  0  0  0  0  0  0  0  0  0  0
    0.1648    0.1801    0.4704 C   0  0  1  0  0  0  0  0  0  0  0  0
    0.6763    0.2590    1.4367 H   0  0  0  0  0  0  0  0  0  0  0  0
    0.9575   -0.7728   -0.4754 C   0  0  0  0  0  0  0  0  0  0  0  0
    0.3944   -0.8954   -1.4054 H   0  0  0  0  0  0  0  0  0  0  0  0
    1.9141   -0.3004   -0.7148 H   0  0  0  0  0  0  0  0  0  0  0  0
    1.3125   -2.1651    0.0260 C   0  0  0  0  0  0  0  0  0  0  0  0
    1.4841   -2.3550    1.2485 O   0  5  0  0  0  0  0  0  0  0  0  0
    1.3658   -3.0575   -0.8544 O   0  0  0  0  0  0  0  0  0  0  0  0
    0.1338    1.5790   -0.2072 C   0  0  0  0  0  0  0  0  0  0  0  0
   -0.2762    2.5579    0.4052 O   0  0  0  0  0  0  0  0  0  0  0  0
    0.4477    1.7545   -1.5468 N   0  0  0  0  0  0  0  0  0  0  0  0
    0.8290    0.9459   -2.0308 H   0  0  0  0  0  0  0  0  0  0  0  0
    0.4342    3.0424   -2.2256 C   0  0  0  0  0  0  0  0  0  0  0  0
    1.1408    3.7318   -1.7525 H   0  0  0  0  0  0  0  0  0  0  0  0
    0.7215    2.9162   -3.2735 H   0  0  0  0  0  0  0  0  0  0  0  0
   -0.5677    3.4821   -2.1926 H   0  0  0  0  0  0  0  0  0  0  0  0
  1  2  1  0  0  0  0
  2  3  1  0  0  0  0
  2  4  1  0  0  0  0
  2  5  1  0  0  0  0
  5  6  2  0  0  0  0
  5  7  1  0  0  0  0
  7  8  1  0  0  0  0
  7  9  1  0  0  0  0
  9 10  1  0  0  0  0
  9 11  1  0  0  0  0
  9 17  1  0  0  0  0
 11 12  1  0  0  0  0
 11 13  1  0  0  0  0
 11 14  1  0  0  0  0
 14 15  1  0  0  0  0
 14 16  2  0  0  0  0
 17 18  2  0  0  0  0
 17 19  1  0  0  0  0
 19 20  1  0  0  0  0
 19 21  1  0  0  0  0
 21 22  1  0  0  0  0
 21 23  1  0  0  0  0
 21 24  1  0  0  0  0
M  CHG  1  15  -1
M  END
$$$$

  -OEChem-01062216073D

 24 23  0     1  0  0  0  0  0999 V2000
   -2.1536   -3.5361    1.0733 H   0  0  0  0  0  0  0  0  0  0  0  0
   -2.1656   -2.6143    0.4852 C   0  0  0  0  0  0  0  0  0  0  0  0
   -3.1993   -2.3499    0.2522 H   0  0  0  0  0  0  0  0  0  0  0  0
   -1.6204   -2.7939   -0.4451 H   0  0  0  0  0  0  0  0  0  0  0  0
   -1.5018   -1.4965    1.2699 C   0  0  0  0  0  0  0  0  0  0  0  0
   -1.5568   -1.5066    2.4892 O   0  0  0  0  0  0  0  0  0  0  0  0
   -1.2429   -0.2866    0.6630 N   0  0  0  0  0  0  0  0  0  0  0  0
   -1.7947   -0.1882   -0.1793 H   0  0  0  0  0  0  0  0  0  0  0  0
    0.1411    0.1848    0.4614 C   0  0  1  0  0  0  0  0  0  0  0  0
    0.6537    0.2718    1.4264 H   0  0  0  0  0  0  0  0  0  0  0  0
    0.9365   -0.7673   -0.4810 C   0  0  0  0  0  0  0  0  0  0  0  0
    0.3722   -0.9026   -1.4079 H   0  0  0  0  0  0  0  0  0  0  0  0
    1.8871   -0.2873   -0.7295 H   0  0  0  0  0  0  0  0  0  0  0  0
    1.2933   -2.1560    0.0294 C   0  0  0  0  0  0  0  0  0  0  0  0
    1.4629   -2.3381    1.2534 O   0  5  0  0  0  0  0  0  0  0  0  0
    1.3328   -3.0570   -0.8431 O   0  0  0  0  0  0  0  0  0  0  0  0
    0.1115    1.5731   -0.2315 C   0  0  0  0  0  0  0  0  0  0  0  0
   -0.0194    2.5987    0.4256 O   0  0  0  0  0  0  0  0  0  0  0  0
    0.1234    1.6899   -1.6134 N   0  0  0  0  0  0  0  0  0  0  0  0
    0.3394    0.8429   -2.1321 H   0  0  0  0  0  0  0  0  0  0  0  0
    0.1391    2.9649   -2.3162 C   0  0  0  0  0  0  0  0  0  0  0  0
    1.0281    3.5417   -2.0418 H   0  0  0  0  0  0  0  0  0  0  0  0
    0.1542    2.7967   -3.3972 H   0  0  0  0  0  0  0  0  0  0  0  0
   -0.7534    3.5495   -2.0704 H   0  0  0  0  0  0  0  0  0  0  0  0
  1  2  1  0  0  0  0
  2  3  1  0  0  0  0
  2  4  1  0  0  0  0
  2  5  1  0  0  0  0
  5  6  2  0  0  0  0
  5  7  1  0  0  0  0
  7  8  1  0  0  0  0
  7  9  1  0  0  0  0
  9 10  1  0  0  0  0
  9 11  1  0  0  0  0
  9 17  1  0  0  0  0
 11 12  1  0  0  0  0
 11 13  1  0  0  0  0
 11 14  1  0  0  0  0
 14 15  1  0  0  0  0
 14 16  2  0  0  0  0
 17 18  2  0  0  0  0
 17 19  1  0  0  0  0
 19 20  1  0  0  0  0
 19 21  1  0  0  0  0
 21 22  1  0  0  0  0
 21 23  1  0  0  0  0
 21 24  1  0  0  0  0
M  CHG  1  15  -1
M  END
$$$$

  -OEChem-01062216073D

 24 23  0     1  0  0  0  0  0999 V2000
   -2.0115   -3.5679    1.0442 H   0  0  0  0  0  0  0  0  0  0  0  0
   -2.1361   -2.6320    0.4925 C   0  0  0  0  0  0  0  0  0  0  0  0
   -3.2004   -2.4468    0.3329 H   0  0  0  0  0  0  0  0  0  0  0  0
   -1.6390   -2.7362   -0.4755 H   0  0  0  0  0  0  0  0  0  0  0  0
   -1.5174   -1.4899    1.2790 C   0  0  0  0  0  0  0  0  0  0  0  0
   -1.6293   -1.4745    2.4944 O   0  0  0  0  0  0  0  0  0  0  0  0
   -1.2635   -0.2832    0.6634 N   0  0  0  0  0  0  0  0  0  0  0  0
   -1.8097   -0.2003   -0.1840 H   0  0  0  0  0  0  0  0  0  0  0  0
    0.1216    0.1862    0.4626 C   0  0  1  0  0  0  0  0  0  0  0  0
    0.6344    0.2750    1.4276 H   0  0  0  0  0  0  0  0  0  0  0  0
    0.9175   -0.7580   -0.4850 C   0  0  0  0  0  0  0  0  0  0  0  0
    0.3570   -0.8891   -1.4145 H   0  0  0  0  0  0  0  0  0  0  0  0
    1.8669   -0.2743   -0.7309 H   0  0  0  0  0  0  0  0  0  0  0  0
    1.2706   -2.1486    0.0236 C   0  0  0  0  0  0  0  0  0  0  0  0
    1.4359   -2.3326    1.2483 O   0  5  0  0  0  0  0  0  0  0  0  0
    1.2955   -3.0513   -0.8476 O   0  0  0  0  0  0  0  0  0  0  0  0
    0.0954    1.5667   -0.2389 C   0  0  0  0  0  0  0  0  0  0  0  0
    0.2571    2.6021    0.3953 O   0  0  0  0  0  0  0  0  0  0  0  0
   -0.1977    1.6652   -1.5907 N   0  0  0  0  0  0  0  0  0  0  0  0
   -0.1736    0.7963   -2.1163 H   0  0  0  0  0  0  0  0  0  0  0  0
   -0.1794    2.9233   -2.3229 C   0  0  0  0  0  0  0  0  0  0  0  0
    0.8185    3.3720   -2.2877 H   0  0  0  0  0  0  0  0  0  0  0  0
   -0.4466    2.7517   -3.3697 H   0  0  0  0  0  0  0  0  0  0  0  0
   -0.9006    3.6267   -1.8942 H   0  0  0  0  0  0  0  0  0  0  0  0
  1  2  1  0  0  0  0
  2  3  1  0  0  0  0
  2  4  1  0  0  0  0
  2  5  1  0  0  0  0
  5  6  2  0  0  0  0
  5  7  1  0  0  0  0
  7  8  1  0  0  0  0
  7  9  1  0  0  0  0
  9 10  1  0  0  0  0
  9 11  1  0  0  0  0
  9 17  1  0  0  0  0
 11 12  1  0  0  0  0
 11 13  1  0  0  0  0
 11 14  1  0  0  0  0
 14 15  1  0  0  0  0
 14 16  2  0  0  0  0
 17 18  2  0  0  0  0
 17 19  1  0  0  0  0
 19 20  1  0  0  0  0
 19 21  1  0  0  0  0
 21 22  1  0  0  0  0
 21 23  1  0  0  0  0
 21 24  1  0  0  0  0
M  CHG  1  15  -1
M  END
$$$$

  -OEChem-01062216073D

 24 23  0     1  0  0  0  0  0999 V2000
   -2.1851   -3.5494    1.1268 H   0  0  0  0  0  0  0  0  0  0  0  0
   -2.1638   -2.6475    0.5089 C   0  0  0  0  0  0  0  0  0  0  0  0
   -3.1851   -2.3795    0.2299 H   0  0  0  0  0  0  0  0  0  0  0  0
   -1.5882   -2.8642   -0.3948 H   0  0  0  0  0  0  0  0  0  0  0  0
   -1.5131   -1.5120    1.2794 C   0  0  0  0  0  0  0  0  0  0  0  0
   -1.5786   -1.4998    2.4983 O   0  0  0  0  0  0  0  0  0  0  0  0
   -1.2703   -0.3055    0.6590 N   0  0  0  0  0  0  0  0  0  0  0  0
   -1.8085   -0.2344   -0.1941 H   0  0  0  0  0  0  0  0  0  0  0  0
    0.1104    0.1852    0.4766 C   0  0  1  0  0  0  0  0  0  0  0  0
    0.6179    0.2745    1.4444 H   0  0  0  0  0  0  0  0  0  0  0  0
    0.9172   -0.7330   -0.4852 C   0  0  0  0  0  0  0  0  0  0  0  0
    0.3660   -0.8440   -1.4229 H   0  0  0  0  0  0  0  0  0  0  0  0
    1.8648   -0.2368   -0.7138 H   0  0  0  0  0  0  0  0  0  0  0  0
    1.2804   -2.1306   -0.0033 C   0  0  0  0  0  0  0  0  0  0  0  0
    1.4433   -2.3389    1.2178 O   0  5  0  0  0  0  0  0  0  0  0  0
    1.3011   -3.0175   -0.8910 O   0  0  0  0  0  0  0  0  0  0  0  0
    0.0748    1.5591   -0.2336 C   0  0  0  0  0  0  0  0  0  0  0  0
    0.4827    2.5725    0.3206 O   0  0  0  0  0  0  0  0  0  0  0  0
   -0.4932    1.6760   -1.4938 N   0  0  0  0  0  0  0  0  0  0  0  0
   -0.6371    0.8068   -1.9981 H   0  0  0  0  0  0  0  0  0  0  0  0
   -0.5052    2.9226   -2.2459 C   0  0  0  0  0  0  0  0  0  0  0  0
    0.5172    3.2550   -2.4527 H   0  0  0  0  0  0  0  0  0  0  0  0
   -1.0247    2.7805   -3.1981 H   0  0  0  0  0  0  0  0  0  0  0  0
   -1.0257    3.7045   -1.6834 H   0  0  0  0  0  0  0  0  0  0  0  0
  1  2  1  0  0  0  0
  2  3  1  0  0  0  0
  2  4  1  0  0  0  0
  2  5  1  0  0  0  0
  5  6  2  0  0  0  0
  5  7  1  0  0  0  0
  7  8  1  0  0  0  0
  7  9  1  0  0  0  0
  9 10  1  0  0  0  0
  9 11  1  0  0  0  0
  9 17  1  0  0  0  0
 11 12  1  0  0  0  0
 11 13  1  0  0  0  0
 11 14  1  0  0  0  0
 14 15  1  0  0  0  0
 14 16  2  0  0  0  0
 17 18  2  0  0  0  0
 17 19  1  0  0  0  0
 19 20  1  0  0  0  0
 19 21  1  0  0  0  0
 21 22  1  0  0  0  0
 21 23  1  0  0  0  0
 21 24  1  0  0  0  0
M  CHG  1  15  -1
M  END
$$$$

  -OEChem-01062216073D

 24 23  0     1  0  0  0  0  0999 V2000
   -1.9525   -3.6162    1.0809 H   0  0  0  0  0  0  0  0  0  0  0  0
   -2.1259   -2.6873    0.5304 C   0  0  0  0  0  0  0  0  0  0  0  0
   -3.2001   -2.5418    0.3974 H   0  0  0  0  0  0  0  0  0  0  0  0
   -1.6496   -2.7763   -0.4495 H   0  0  0  0  0  0  0  0  0  0  0  0
   -1.5299   -1.5212    1.2991 C   0  0  0  0  0  0  0  0  0  0  0  0
   -1.6484   -1.4849    2.5136 O   0  0  0  0  0  0  0  0  0  0  0  0
   -1.3046   -0.3166    0.6680 N   0  0  0  0  0  0  0  0  0  0  0  0
   -1.8335   -0.2759   -0.1914 H   0  0  0  0  0  0  0  0  0  0  0  0
    0.0736    0.1869    0.4877 C   0  0  1  0  0  0  0  0  0  0  0  0
    0.5827    0.2757    1.4547 H   0  0  0  0  0  0  0  0  0  0  0  0
    0.8764   -0.7241   -0.4820 C   0  0  0  0  0  0  0  0  0  0  0  0
    0.3223   -0.8237   -1.4198 H   0  0  0  0  0  0  0  0  0  0  0  0
    1.8241   -0.2278   -0.7102 H   0  0  0  0  0  0  0  0  0  0  0  0
    1.2424   -2.1230   -0.0059 C   0  0  0  0  0  0  0  0  0  0  0  0
    1.4098   -2.3332    1.2148 O   0  5  0  0  0  0  0  0  0  0  0  0
    1.2457   -3.0111   -0.8925 O   0  0  0  0  0  0  0  0  0  0  0  0
    0.0531    1.5556   -0.2337 C   0  0  0  0  0  0  0  0  0  0  0  0
    0.7140    2.5002    0.1812 O   0  0  0  0  0  0  0  0  0  0  0  0
   -0.7549    1.7496   -1.3452 N   0  0  0  0  0  0  0  0  0  0  0  0
   -1.1198    0.9119   -1.7839 H   0  0  0  0  0  0  0  0  0  0  0  0
   -0.7547    2.9857   -2.1150 C   0  0  0  0  0  0  0  0  0  0  0  0
    0.2360    3.1692   -2.5433 H   0  0  0  0  0  0  0  0  0  0  0  0
   -1.4800    2.9195   -2.9312 H   0  0  0  0  0  0  0  0  0  0  0  0
   -1.0291    3.8333   -1.4787 H   0  0  0  0  0  0  0  0  0  0  0  0
  1  2  1  0  0  0  0
  2  3  1  0  0  0  0
  2  4  1  0  0  0  0
  2  5  1  0  0  0  0
  5  6  2  0  0  0  0
  5  7  1  0  0  0  0
  7  8  1  0  0  0  0
  7  9  1  0  0  0  0
  9 10  1  0  0  0  0
  9 11  1  0  0  0  0
  9 17  1  0  0  0  0
 11 12  1  0  0  0  0
 11 13  1  0  0  0  0
 11 14  1  0  0  0  0
 14 15  1  0  0  0  0
 14 16  2  0  0  0  0
 17 18  2  0  0  0  0
 17 19  1  0  0  0  0
 19 20  1  0  0  0  0
 19 21  1  0  0  0  0
 21 22  1  0  0  0  0
 21 23  1  0  0  0  0
 21 24  1  0  0  0  0
M  CHG  1  15  -1
M  END
$$$$

  -OEChem-01062216073D

 24 23  0     1  0  0  0  0  0999 V2000
   -1.8898   -3.6498    1.0901 H   0  0  0  0  0  0  0  0  0  0  0  0
   -2.0946   -2.7298    0.5356 C   0  0  0  0  0  0  0  0  0  0  0  0
   -3.1731   -2.6223    0.4006 H   0  0  0  0  0  0  0  0  0  0  0  0
   -1.6157   -2.8071   -0.4438 H   0  0  0  0  0  0  0  0  0  0  0  0
   -1.5407   -1.5412    1.3016 C   0  0  0  0  0  0  0  0  0  0  0  0
   -1.7080   -1.4837    2.5096 O   0  0  0  0  0  0  0  0  0  0  0  0
   -1.3312   -0.3379    0.6623 N   0  0  0  0  0  0  0  0  0  0  0  0
   -1.8205   -0.3608   -0.2201 H   0  0  0  0  0  0  0  0  0  0  0  0
    0.0446    0.1783    0.4870 C   0  0  1  0  0  0  0  0  0  0  0  0
    0.5473    0.2718    1.4567 H   0  0  0  0  0  0  0  0  0  0  0  0
    0.8543   -0.7345   -0.4750 C   0  0  0  0  0  0  0  0  0  0  0  0
    0.3042   -0.8367   -1.4150 H   0  0  0  0  0  0  0  0  0  0  0  0
    1.8024   -0.2381   -0.7020 H   0  0  0  0  0  0  0  0  0  0  0  0
    1.2253   -2.1284    0.0125 C   0  0  0  0  0  0  0  0  0  0  0  0
    1.3893   -2.3256    1.2363 O   0  5  0  0  0  0  0  0  0  0  0  0
    1.2236   -3.0277   -0.8629 O   0  0  0  0  0  0  0  0  0  0  0  0
    0.0412    1.5460   -0.2419 C   0  0  0  0  0  0  0  0  0  0  0  0
    0.9221    2.3717   -0.0318 O   0  0  0  0  0  0  0  0  0  0  0  0
   -0.9480    1.8692   -1.1598 N   0  0  0  0  0  0  0  0  0  0  0  0
   -1.6413    1.1626   -1.3680 H   0  0  0  0  0  0  0  0  0  0  0  0
   -0.9695    3.1153   -1.9125 C   0  0  0  0  0  0  0  0  0  0  0  0
   -0.0828    3.1919   -2.5498 H   0  0  0  0  0  0  0  0  0  0  0  0
   -1.8586    3.1541   -2.5486 H   0  0  0  0  0  0  0  0  0  0  0  0
   -0.9931    3.9732   -1.2328 H   0  0  0  0  0  0  0  0  0  0  0  0
  1  2  1  0  0  0  0
  2  3  1  0  0  0  0
  2  4  1  0  0  0  0
  2  5  1  0  0  0  0
  5  6  2  0  0  0  0
  5  7  1  0  0  0  0
  7  8  1  0  0  0  0
  7  9  1  0  0  0  0
  9 10  1  0  0  0  0
  9 11  1  0  0  0  0
  9 17  1  0  0  0  0
 11 12  1  0  0  0  0
 11 13  1  0  0  0  0
 11 14  1  0  0  0  0
 14 15  1  0  0  0  0
 14 16  2  0  0  0  0
 17 18  2  0  0  0  0
 17 19  1  0  0  0  0
 19 20  1  0  0  0  0
 19 21  1  0  0  0  0
 21 22  1  0  0  0  0
 21 23  1  0  0  0  0
 21 24  1  0  0  0  0
M  CHG  1  15  -1
M  END
$$$$

  -OEChem-01062216073D

 24 23  0     1  0  0  0  0  0999 V2000
   -1.4494   -3.6043    0.9023 H   0  0  0  0  0  0  0  0  0  0  0  0
   -1.9952   -2.7420    0.5085 C   0  0  0  0  0  0  0  0  0  0  0  0
   -3.0687   -2.9223    0.6024 H   0  0  0  0  0  0  0  0  0  0  0  0
   -1.7437   -2.6313   -0.5491 H   0  0  0  0  0  0  0  0  0  0  0  0
   -1.6007   -1.4980    1.2877 C   0  0  0  0  0  0  0  0  0  0  0  0
   -2.0084   -1.3758    2.4325 O   0  0  0  0  0  0  0  0  0  0  0  0
   -1.3476   -0.3105    0.6344 N   0  0  0  0  0  0  0  0  0  0  0  0
   -1.8077   -0.3641   -0.2649 H   0  0  0  0  0  0  0  0  0  0  0  0
    0.0421    0.1592    0.4351 C   0  0  1  0  0  0  0  0  0  0  0  0
    0.5427    0.2752    1.4031 H   0  0  0  0  0  0  0  0  0  0  0  0
    0.8448   -0.8087   -0.4769 C   0  0  0  0  0  0  0  0  0  0  0  0
    0.2983   -0.9480   -1.4141 H   0  0  0  0  0  0  0  0  0  0  0  0
    1.8036   -0.3432   -0.7219 H   0  0  0  0  0  0  0  0  0  0  0  0
    1.1815   -2.1793    0.0942 C   0  0  0  0  0  0  0  0  0  0  0  0
    1.3246   -2.3011    1.3319 O   0  5  0  0  0  0  0  0  0  0  0  0
    1.1763   -3.1324   -0.7217 O   0  0  0  0  0  0  0  0  0  0  0  0
    0.0498    1.5197   -0.3103 C   0  0  0  0  0  0  0  0  0  0  0  0
    1.0696    2.1948   -0.3944 O   0  0  0  0  0  0  0  0  0  0  0  0
   -1.0894    1.9744   -0.9578 N   0  0  0  0  0  0  0  0  0  0  0  0
   -1.9586    1.5392   -0.6696 H   0  0  0  0  0  0  0  0  0  0  0  0
   -1.1575    3.2664   -1.6271 C   0  0  0  0  0  0  0  0  0  0  0  0
   -0.3793    3.3434   -2.3936 H   0  0  0  0  0  0  0  0  0  0  0  0
   -2.1301    3.3859   -2.1133 H   0  0  0  0  0  0  0  0  0  0  0  0
   -1.0256    4.0787   -0.9052 H   0  0  0  0  0  0  0  0  0  0  0  0
  1  2  1  0  0  0  0
  2  3  1  0  0  0  0
  2  4  1  0  0  0  0
  2  5  1  0  0  0  0
  5  6  2  0  0  0  0
  5  7  1  0  0  0  0
  7  8  1  0  0  0  0
  7  9  1  0  0  0  0
  9 10  1  0  0  0  0
  9 11  1  0  0  0  0
  9 17  1  0  0  0  0
 11 12  1  0  0  0  0
 11 13  1  0  0  0  0
 11 14  1  0  0  0  0
 14 15  1  0  0  0  0
 14 16  2  0  0  0  0
 17 18  2  0  0  0  0
 17 19  1  0  0  0  0
 19 20  1  0  0  0  0
 19 21  1  0  0  0  0
 21 22  1  0  0  0  0
 21 23  1  0  0  0  0
 21 24  1  0  0  0  0
M  CHG  1  15  -1
M  END
$$$$

  -OEChem-01062216073D

 24 23  0     1  0  0  0  0  0999 V2000
   -1.3973   -3.6053    0.8982 H   0  0  0  0  0  0  0  0  0  0  0  0
   -1.9615   -2.7564    0.5015 C   0  0  0  0  0  0  0  0  0  0  0  0
   -3.0306   -2.9625    0.5918 H   0  0  0  0  0  0  0  0  0  0  0  0
   -1.7095   -2.6406   -0.5556 H   0  0  0  0  0  0  0  0  0  0  0  0
   -1.5994   -1.5029    1.2815 C   0  0  0  0  0  0  0  0  0  0  0  0
   -2.0568   -1.3701    2.4064 O   0  0  0  0  0  0  0  0  0  0  0  0
   -1.3440   -0.3157    0.6289 N   0  0  0  0  0  0  0  0  0  0  0  0
   -1.8232   -0.3512   -0.2628 H   0  0  0  0  0  0  0  0  0  0  0  0
    0.0431    0.1553    0.4090 C   0  0  1  0  0  0  0  0  0  0  0  0
    0.5489    0.2858    1.3722 H   0  0  0  0  0  0  0  0  0  0  0  0
    0.8487   -0.8244   -0.4890 C   0  0  0  0  0  0  0  0  0  0  0  0
    0.2990   -0.9864   -1.4205 H   0  0  0  0  0  0  0  0  0  0  0  0
    1.8048   -0.3616   -0.7472 H   0  0  0  0  0  0  0  0  0  0  0  0
    1.1949   -2.1789    0.1139 C   0  0  0  0  0  0  0  0  0  0  0  0
    1.3420   -2.2667    1.3545 O   0  5  0  0  0  0  0  0  0  0  0  0
    1.1991   -3.1528   -0.6770 O   0  0  0  0  0  0  0  0  0  0  0  0
    0.0190    1.5184   -0.3349 C   0  0  0  0  0  0  0  0  0  0  0  0
    1.0467    2.1029   -0.6598 O   0  0  0  0  0  0  0  0  0  0  0  0
   -1.1937    2.0953   -0.6797 N   0  0  0  0  0  0  0  0  0  0  0  0
   -2.0026    1.7214   -0.1918 H   0  0  0  0  0  0  0  0  0  0  0  0
   -1.3019    3.4122   -1.2920 C   0  0  0  0  0  0  0  0  0  0  0  0
   -0.7708    3.4341   -2.2491 H   0  0  0  0  0  0  0  0  0  0  0  0
   -2.3525    3.6554   -1.4761 H   0  0  0  0  0  0  0  0  0  0  0  0
   -0.8773    4.1768   -0.6337 H   0  0  0  0  0  0  0  0  0  0  0  0
  1  2  1  0  0  0  0
  2  3  1  0  0  0  0
  2  4  1  0  0  0  0
  2  5  1  0  0  0  0
  5  6  2  0  0  0  0
  5  7  1  0  0  0  0
  7  8  1  0  0  0  0
  7  9  1  0  0  0  0
  9 10  1  0  0  0  0
  9 11  1  0  0  0  0
  9 17  1  0  0  0  0
 11 12  1  0  0  0  0
 11 13  1  0  0  0  0
 11 14  1  0  0  0  0
 14 15  1  0  0  0  0
 14 16  2  0  0  0  0
 17 18  2  0  0  0  0
 17 19  1  0  0  0  0
 19 20  1  0  0  0  0
 19 21  1  0  0  0  0
 21 22  1  0  0  0  0
 21 23  1  0  0  0  0
 21 24  1  0  0  0  0
M  CHG  1  15  -1
M  END
$$$$

  -OEChem-01062216073D

 24 23  0     1  0  0  0  0  0999 V2000
   -1.3313   -3.5922    0.8456 H   0  0  0  0  0  0  0  0  0  0  0  0
   -1.9376   -2.7595    0.4776 C   0  0  0  0  0  0  0  0  0  0  0  0
   -2.9950   -3.0101    0.5906 H   0  0  0  0  0  0  0  0  0  0  0  0
   -1.7184   -2.6162   -0.5833 H   0  0  0  0  0  0  0  0  0  0  0  0
   -1.6061   -1.5052    1.2702 C   0  0  0  0  0  0  0  0  0  0  0  0
   -2.1243   -1.3677    2.3681 O   0  0  0  0  0  0  0  0  0  0  0  0
   -1.3403   -0.3152    0.6278 N   0  0  0  0  0  0  0  0  0  0  0  0
   -1.8525   -0.3118   -0.2468 H   0  0  0  0  0  0  0  0  0  0  0  0
    0.0451    0.1502    0.3862 C   0  0  1  0  0  0  0  0  0  0  0  0
    0.5580    0.2877    1.3444 H   0  0  0  0  0  0  0  0  0  0  0  0
    0.8523   -0.8384   -0.5010 C   0  0  0  0  0  0  0  0  0  0  0  0
    0.3002   -1.0184   -1.4275 H   0  0  0  0  0  0  0  0  0  0  0  0
    1.8062   -0.3769   -0.7691 H   0  0  0  0  0  0  0  0  0  0  0  0
    1.2064   -2.1793    0.1277 C   0  0  0  0  0  0  0  0  0  0  0  0
    1.3571   -2.2392    1.3701 O   0  5  0  0  0  0  0  0  0  0  0  0
    1.2239   -3.1694   -0.6425 O   0  0  0  0  0  0  0  0  0  0  0  0
   -0.0089    1.5217   -0.3436 C   0  0  0  0  0  0  0  0  0  0  0  0
    0.9569    2.0141   -0.9164 O   0  0  0  0  0  0  0  0  0  0  0  0
   -1.2025    2.2255   -0.3667 N   0  0  0  0  0  0  0  0  0  0  0  0
   -1.9191    1.8843    0.2697 H   0  0  0  0  0  0  0  0  0  0  0  0
   -1.3396    3.5627   -0.9264 C   0  0  0  0  0  0  0  0  0  0  0  0
   -1.0502    3.5677   -1.9823 H   0  0  0  0  0  0  0  0  0  0  0  0
   -2.3794    3.8943   -0.8532 H   0  0  0  0  0  0  0  0  0  0  0  0
   -0.7082    4.2721   -0.3820 H   0  0  0  0  0  0  0  0  0  0  0  0
  1  2  1  0  0  0  0
  2  3  1  0  0  0  0
  2  4  1  0  0  0  0
  2  5  1  0  0  0  0
  5  6  2  0  0  0  0
  5  7  1  0  0  0  0
  7  8  1  0  0  0  0
  7  9  1  0  0  0  0
  9 10  1  0  0  0  0
  9 11  1  0  0  0  0
  9 17  1  0  0  0  0
 11 12  1  0  0  0  0
 11 13  1  0  0  0  0
 11 14  1  0  0  0  0
 14 15  1  0  0  0  0
 14 16  2  0  0  0  0
 17 18  2  0  0  0  0
 17 19  1  0  0  0  0
 19 20  1  0  0  0  0
 19 21  1  0  0  0  0
 21 22  1  0  0  0  0
 21 23  1  0  0  0  0
 21 24  1  0  0  0  0
M  CHG  1  15  -1
M  END
$$$$

  -OEChem-01062216073D

 24 23  0     1  0  0  0  0  0999 V2000
   -1.3412   -3.5935    0.8365 H   0  0  0  0  0  0  0  0  0  0  0  0
   -1.9279   -2.7537    0.4530 C   0  0  0  0  0  0  0  0  0  0  0  0
   -2.9906   -2.9950    0.5307 H   0  0  0  0  0  0  0  0  0  0  0  0
   -1.6738   -2.6080   -0.5999 H   0  0  0  0  0  0  0  0  0  0  0  0
   -1.6109   -1.5054    1.2610 C   0  0  0  0  0  0  0  0  0  0  0  0
   -2.1525   -1.3759    2.3487 O   0  0  0  0  0  0  0  0  0  0  0  0
   -1.3401   -0.3091    0.6333 N   0  0  0  0  0  0  0  0  0  0  0  0
   -1.8783   -0.2699   -0.2247 H   0  0  0  0  0  0  0  0  0  0  0  0
    0.0438    0.1494    0.3769 C   0  0  1  0  0  0  0  0  0  0  0  0
    0.5629    0.2838    1.3324 H   0  0  0  0  0  0  0  0  0  0  0  0
    0.8522   -0.8401   -0.5081 C   0  0  0  0  0  0  0  0  0  0  0  0
    0.2982   -1.0283   -1.4320 H   0  0  0  0  0  0  0  0  0  0  0  0
    1.8035   -0.3762   -0.7812 H   0  0  0  0  0  0  0  0  0  0  0  0
    1.2118   -2.1742    0.1317 C   0  0  0  0  0  0  0  0  0  0  0  0
    1.3646   -2.2195    1.3748 O   0  5  0  0  0  0  0  0  0  0  0  0
    1.2371   -3.1722   -0.6280 O   0  0  0  0  0  0  0  0  0  0  0  0
   -0.0318    1.5305   -0.3309 C   0  0  0  0  0  0  0  0  0  0  0  0
    0.7989    1.9302   -1.1394 O   0  0  0  0  0  0  0  0  0  0  0  0
   -1.1095    2.3541   -0.0516 N   0  0  0  0  0  0  0  0  0  0  0  0
   -1.7286    2.0356    0.6908 H   0  0  0  0  0  0  0  0  0  0  0  0
   -1.2676    3.7002   -0.5825 C   0  0  0  0  0  0  0  0  0  0  0  0
   -1.2763    3.6819   -1.6771 H   0  0  0  0  0  0  0  0  0  0  0  0
   -2.2127    4.1300   -0.2377 H   0  0  0  0  0  0  0  0  0  0  0  0
   -0.4487    4.3432   -0.2444 H   0  0  0  0  0  0  0  0  0  0  0  0
  1  2  1  0  0  0  0
  2  3  1  0  0  0  0
  2  4  1  0  0  0  0
  2  5  1  0  0  0  0
  5  6  2  0  0  0  0
  5  7  1  0  0  0  0
  7  8  1  0  0  0  0
  7  9  1  0  0  0  0
  9 10  1  0  0  0  0
  9 11  1  0  0  0  0
  9 17  1  0  0  0  0
 11 12  1  0  0  0  0
 11 13  1  0  0  0  0
 11 14  1  0  0  0  0
 14 15  1  0  0  0  0
 14 16  2  0  0  0  0
 17 18  2  0  0  0  0
 17 19  1  0  0  0  0
 19 20  1  0  0  0  0
 19 21  1  0  0  0  0
 21 22  1  0  0  0  0
 21 23  1  0  0  0  0
 21 24  1  0  0  0  0
M  CHG  1  15  -1
M  END
$$$$

  -OEChem-01062216073D

 24 23  0     1  0  0  0  0  0999 V2000
   -1.3293   -3.5709    0.7845 H   0  0  0  0  0  0  0  0  0  0  0  0
   -1.9304   -2.7325    0.4216 C   0  0  0  0  0  0  0  0  0  0  0  0
   -2.9889   -2.9909    0.5022 H   0  0  0  0  0  0  0  0  0  0  0  0
   -1.6869   -2.5622   -0.6299 H   0  0  0  0  0  0  0  0  0  0  0  0
   -1.6258   -1.4956    1.2517 C   0  0  0  0  0  0  0  0  0  0  0  0
   -2.1948   -1.3765    2.3267 O   0  0  0  0  0  0  0  0  0  0  0  0
   -1.3371   -0.2920    0.6471 N   0  0  0  0  0  0  0  0  0  0  0  0
   -1.8898   -0.2139   -0.1990 H   0  0  0  0  0  0  0  0  0  0  0  0
    0.0499    0.1497    0.3881 C   0  0  1  0  0  0  0  0  0  0  0  0
    0.5725    0.2675    1.3437 H   0  0  0  0  0  0  0  0  0  0  0  0
    0.8568   -0.8330   -0.5039 C   0  0  0  0  0  0  0  0  0  0  0  0
    0.3031   -1.0139   -1.4295 H   0  0  0  0  0  0  0  0  0  0  0  0
    1.8077   -0.3651   -0.7722 H   0  0  0  0  0  0  0  0  0  0  0  0
    1.2096   -2.1726    0.1284 C   0  0  0  0  0  0  0  0  0  0  0  0
    1.3578   -2.2234    1.3722 O   0  5  0  0  0  0  0  0  0  0  0  0
    1.2457   -3.1661   -0.6364 O   0  0  0  0  0  0  0  0  0  0  0  0
   -0.0254    1.5434   -0.2889 C   0  0  0  0  0  0  0  0  0  0  0  0
    0.5937    1.8527   -1.3013 O   0  0  0  0  0  0  0  0  0  0  0  0
   -0.8967    2.4737    0.2493 N   0  0  0  0  0  0  0  0  0  0  0  0
   -1.4146    2.1776    1.0739 H   0  0  0  0  0  0  0  0  0  0  0  0
   -1.1088    3.8084   -0.2907 C   0  0  0  0  0  0  0  0  0  0  0  0
   -1.4657    3.7505   -1.3239 H   0  0  0  0  0  0  0  0  0  0  0  0
   -1.8573    4.3388    0.3052 H   0  0  0  0  0  0  0  0  0  0  0  0
   -0.1769    4.3824   -0.2685 H   0  0  0  0  0  0  0  0  0  0  0  0
  1  2  1  0  0  0  0
  2  3  1  0  0  0  0
  2  4  1  0  0  0  0
  2  5  1  0  0  0  0
  5  6  2  0  0  0  0
  5  7  1  0  0  0  0
  7  8  1  0  0  0  0
  7  9  1  0  0  0  0
  9 10  1  0  0  0  0
  9 11  1  0  0  0  0
  9 17  1  0  0  0  0
 11 12  1  0  0  0  0
 11 13  1  0  0  0  0
 11 14  1  0  0  0  0
 14 15  1  0  0  0  0
 14 16  2  0  0  0  0
 17 18  2  0  0  0  0
 17 19  1  0  0  0  0
 19 20  1  0  0  0  0
 19 21  1  0  0  0  0
 21 22  1  0  0  0  0
 21 23  1  0  0  0  0
 21 24  1  0  0  0  0
M  CHG  1  15  -1
M  END
$$$$

  -OEChem-01062216073D

 24 23  0     1  0  0  0  0  0999 V2000
   -1.3778   -3.5618    0.7244 H   0  0  0  0  0  0  0  0  0  0  0  0
   -1.9699   -2.7050    0.3906 C   0  0  0  0  0  0  0  0  0  0  0  0
   -3.0316   -2.9435    0.4885 H   0  0  0  0  0  0  0  0  0  0  0  0
   -1.7435   -2.5183   -0.6621 H   0  0  0  0  0  0  0  0  0  0  0  0
   -1.6236   -1.4913    1.2377 C   0  0  0  0  0  0  0  0  0  0  0  0
   -2.1245   -1.3985    2.3485 O   0  0  0  0  0  0  0  0  0  0  0  0
   -1.3334   -0.2804    0.6492 N   0  0  0  0  0  0  0  0  0  0  0  0
   -1.8667   -0.1990   -0.2092 H   0  0  0  0  0  0  0  0  0  0  0  0
    0.0569    0.1563    0.4141 C   0  0  1  0  0  0  0  0  0  0  0  0
    0.5705    0.2578    1.3765 H   0  0  0  0  0  0  0  0  0  0  0  0
    0.8711   -0.8174   -0.4814 C   0  0  0  0  0  0  0  0  0  0  0  0
    0.3259   -0.9856   -1.4147 H   0  0  0  0  0  0  0  0  0  0  0  0
    1.8240   -0.3447   -0.7341 H   0  0  0  0  0  0  0  0  0  0  0  0
    1.2119   -2.1684    0.1331 C   0  0  0  0  0  0  0  0  0  0  0  0
    1.3455   -2.2391    1.3774 O   0  5  0  0  0  0  0  0  0  0  0  0
    1.2592   -3.1492   -0.6471 O   0  0  0  0  0  0  0  0  0  0  0  0
   -0.0069    1.5552   -0.2470 C   0  0  0  0  0  0  0  0  0  0  0  0
    0.3667    1.7903   -1.3915 O   0  0  0  0  0  0  0  0  0  0  0  0
   -0.6260    2.5690    0.4610 N   0  0  0  0  0  0  0  0  0  0  0  0
   -1.0272    2.3068    1.3585 H   0  0  0  0  0  0  0  0  0  0  0  0
   -0.8775    3.9001   -0.0709 C   0  0  0  0  0  0  0  0  0  0  0  0
   -1.5330    3.8448   -0.9460 H   0  0  0  0  0  0  0  0  0  0  0  0
   -1.3623    4.5214    0.6879 H   0  0  0  0  0  0  0  0  0  0  0  0
    0.0628    4.3798   -0.3609 H   0  0  0  0  0  0  0  0  0  0  0  0
  1  2  1  0  0  0  0
  2  3  1  0  0  0  0
  2  4  1  0  0  0  0
  2  5  1  0  0  0  0
  5  6  2  0  0  0  0
  5  7  1  0  0  0  0
  7  8  1  0  0  0  0
  7  9  1  0  0  0  0
  9 10  1  0  0  0  0
  9 11  1  0  0  0  0
  9 17  1  0  0  0  0
 11 12  1  0  0  0  0
 11 13  1  0  0  0  0
 11 14  1  0  0  0  0
 14 15  1  0  0  0  0
 14 16  2  0  0  0  0
 17 18  2  0  0  0  0
 17 19  1  0  0  0  0
 19 20  1  0  0  0  0
 19 21  1  0  0  0  0
 21 22  1  0  0  0  0
 21 23  1  0  0  0  0
 21 24  1  0  0  0  0
M  CHG  1  15  -1
M  END
$$$$

  -OEChem-01062216073D

 24 23  0     1  0  0  0  0  0999 V2000
   -1.8399   -3.6225    0.8933 H   0  0  0  0  0  0  0  0  0  0  0  0
   -2.0691   -2.6815    0.3858 C   0  0  0  0  0  0  0  0  0  0  0  0
   -3.1481   -2.6060    0.2339 H   0  0  0  0  0  0  0  0  0  0  0  0
   -1.5703   -2.6864   -0.5869 H   0  0  0  0  0  0  0  0  0  0  0  0
   -1.5754   -1.5173    1.2271 C   0  0  0  0  0  0  0  0  0  0  0  0
   -1.8679   -1.4764    2.4128 O   0  0  0  0  0  0  0  0  0  0  0  0
   -1.3122   -0.2967    0.6470 N   0  0  0  0  0  0  0  0  0  0  0  0
   -1.8241   -0.2262   -0.2258 H   0  0  0  0  0  0  0  0  0  0  0  0
    0.0725    0.1643    0.4409 C   0  0  1  0  0  0  0  0  0  0  0  0
    0.5761    0.2536    1.4099 H   0  0  0  0  0  0  0  0  0  0  0  0
    0.9027   -0.7826   -0.4692 C   0  0  0  0  0  0  0  0  0  0  0  0
    0.3648   -0.9362   -1.4092 H   0  0  0  0  0  0  0  0  0  0  0  0
    1.8497   -0.2911   -0.7069 H   0  0  0  0  0  0  0  0  0  0  0  0
    1.2560   -2.1470    0.1076 C   0  0  0  0  0  0  0  0  0  0  0  0
    1.3848   -2.2537    1.3490 O   0  5  0  0  0  0  0  0  0  0  0  0
    1.3222   -3.1025   -0.7023 O   0  0  0  0  0  0  0  0  0  0  0  0
    0.0062    1.5636   -0.2148 C   0  0  0  0  0  0  0  0  0  0  0  0
    0.1000    1.7459   -1.4247 O   0  0  0  0  0  0  0  0  0  0  0  0
   -0.3443    2.6353    0.5854 N   0  0  0  0  0  0  0  0  0  0  0  0
   -0.5651    2.4181    1.5540 H   0  0  0  0  0  0  0  0  0  0  0  0
   -0.6128    3.9730    0.0790 C   0  0  0  0  0  0  0  0  0  0  0  0
   -1.4816    3.9622   -0.5868 H   0  0  0  0  0  0  0  0  0  0  0  0
   -0.8190    4.6537    0.9100 H   0  0  0  0  0  0  0  0  0  0  0  0
    0.2527    4.3543   -0.4725 H   0  0  0  0  0  0  0  0  0  0  0  0
  1  2  1  0  0  0  0
  2  3  1  0  0  0  0
  2  4  1  0  0  0  0
  2  5  1  0  0  0  0
  5  6  2  0  0  0  0
  5  7  1  0  0  0  0
  7  8  1  0  0  0  0
  7  9  1  0  0  0  0
  9 10  1  0  0  0  0
  9 11  1  0  0  0  0
  9 17  1  0  0  0  0
 11 12  1  0  0  0  0
 11 13  1  0  0  0  0
 11 14  1  0  0  0  0
 14 15  1  0  0  0  0
 14 16  2  0  0  0  0
 17 18  2  0  0  0  0
 17 19  1  0  0  0  0
 19 20  1  0  0  0  0
 19 21  1  0  0  0  0
 21 22  1  0  0  0  0
 21 23  1  0  0  0  0
 21 24  1  0  0  0  0
M  CHG  1  15  -1
M  END
$$$$

  -OEChem-01062216073D

 24 23  0     1  0  0  0  0  0999 V2000
   -1.9616   -3.6083    0.9155 H   0  0  0  0  0  0  0  0  0  0  0  0
   -2.1063   -2.6647    0.3823 C   0  0  0  0  0  0  0  0  0  0  0  0
   -3.1700   -2.5234    0.1790 H   0  0  0  0  0  0  0  0  0  0  0  0
   -1.5648   -2.7201   -0.5657 H   0  0  0  0  0  0  0  0  0  0  0  0
   -1.5761   -1.5174    1.2241 C   0  0  0  0  0  0  0  0  0  0  0  0
   -1.8062   -1.4983    2.4241 O   0  0  0  0  0  0  0  0  0  0  0  0
   -1.3095   -0.2955    0.6492 N   0  0  0  0  0  0  0  0  0  0  0  0
   -1.8138   -0.2136   -0.2278 H   0  0  0  0  0  0  0  0  0  0  0  0
    0.0757    0.1656    0.4591 C   0  0  1  0  0  0  0  0  0  0  0  0
    0.5715    0.2431    1.4330 H   0  0  0  0  0  0  0  0  0  0  0  0
    0.9134   -0.7659   -0.4589 C   0  0  0  0  0  0  0  0  0  0  0  0
    0.3807   -0.9071   -1.4039 H   0  0  0  0  0  0  0  0  0  0  0  0
    1.8605   -0.2685   -0.6843 H   0  0  0  0  0  0  0  0  0  0  0  0
    1.2654   -2.1398    0.0961 C   0  0  0  0  0  0  0  0  0  0  0  0
    1.3862   -2.2690    1.3358 O   0  5  0  0  0  0  0  0  0  0  0  0
    1.3550   -3.0774   -0.7322 O   0  0  0  0  0  0  0  0  0  0  0  0
    0.0220    1.5643   -0.1940 C   0  0  0  0  0  0  0  0  0  0  0  0
   -0.1753    1.7180   -1.3958 O   0  0  0  0  0  0  0  0  0  0  0  0
   -0.0189    2.6747    0.6293 N   0  0  0  0  0  0  0  0  0  0  0  0
   -0.0234    2.4937    1.6296 H   0  0  0  0  0  0  0  0  0  0  0  0
   -0.2852    4.0243    0.1540 C   0  0  0  0  0  0  0  0  0  0  0  0
   -1.2842    4.0827   -0.2898 H   0  0  0  0  0  0  0  0  0  0  0  0
   -0.2328    4.7323    0.9864 H   0  0  0  0  0  0  0  0  0  0  0  0
    0.4553    4.3188   -0.5966 H   0  0  0  0  0  0  0  0  0  0  0  0
  1  2  1  0  0  0  0
  2  3  1  0  0  0  0
  2  4  1  0  0  0  0
  2  5  1  0  0  0  0
  5  6  2  0  0  0  0
  5  7  1  0  0  0  0
  7  8  1  0  0  0  0
  7  9  1  0  0  0  0
  9 10  1  0  0  0  0
  9 11  1  0  0  0  0
  9 17  1  0  0  0  0
 11 12  1  0  0  0  0
 11 13  1  0  0  0  0
 11 14  1  0  0  0  0
 14 15  1  0  0  0  0
 14 16  2  0  0  0  0
 17 18  2  0  0  0  0
 17 19  1  0  0  0  0
 19 20  1  0  0  0  0
 19 21  1  0  0  0  0
 21 22  1  0  0  0  0
 21 23  1  0  0  0  0
 21 24  1  0  0  0  0
M  CHG  1  15  -1
M  END
$$$$

  -OEChem-01062216073D

 24 23  0     1  0  0  0  0  0999 V2000
   -1.9954   -3.6151    0.9183 H   0  0  0  0  0  0  0  0  0  0  0  0
   -2.1318   -2.6687    0.3879 C   0  0  0  0  0  0  0  0  0  0  0  0
   -3.1953   -2.5129    0.1944 H   0  0  0  0  0  0  0  0  0  0  0  0
   -1.5983   -2.7289   -0.5644 H   0  0  0  0  0  0  0  0  0  0  0  0
   -1.5792   -1.5294    1.2256 C   0  0  0  0  0  0  0  0  0  0  0  0
   -1.7577   -1.5289    2.4345 O   0  0  0  0  0  0  0  0  0  0  0  0
   -1.3192   -0.3049    0.6531 N   0  0  0  0  0  0  0  0  0  0  0  0
   -1.8205   -0.2142   -0.2252 H   0  0  0  0  0  0  0  0  0  0  0  0
    0.0624    0.1699    0.4779 C   0  0  1  0  0  0  0  0  0  0  0  0
    0.5491    0.2412    1.4567 H   0  0  0  0  0  0  0  0  0  0  0  0
    0.9122   -0.7404   -0.4490 C   0  0  0  0  0  0  0  0  0  0  0  0
    0.3851   -0.8705   -1.3988 H   0  0  0  0  0  0  0  0  0  0  0  0
    1.8562   -0.2323   -0.6623 H   0  0  0  0  0  0  0  0  0  0  0  0
    1.2739   -2.1201    0.0844 C   0  0  0  0  0  0  0  0  0  0  0  0
    1.3906   -2.2698    1.3220 O   0  5  0  0  0  0  0  0  0  0  0  0
    1.3854   -3.0400   -0.7608 O   0  0  0  0  0  0  0  0  0  0  0  0
    0.0146    1.5669   -0.1758 C   0  0  0  0  0  0  0  0  0  0  0  0
   -0.4186    1.7246   -1.3141 O   0  0  0  0  0  0  0  0  0  0  0  0
    0.2729    2.6829    0.5993 N   0  0  0  0  0  0  0  0  0  0  0  0
    0.4926    2.5168    1.5774 H   0  0  0  0  0  0  0  0  0  0  0  0
    0.0813    4.0501    0.1384 C   0  0  0  0  0  0  0  0  0  0  0  0
   -0.9755    4.2351   -0.0795 H   0  0  0  0  0  0  0  0  0  0  0  0
    0.4061    4.7550    0.9095 H   0  0  0  0  0  0  0  0  0  0  0  0
    0.6687    4.2348   -0.7669 H   0  0  0  0  0  0  0  0  0  0  0  0
  1  2  1  0  0  0  0
  2  3  1  0  0  0  0
  2  4  1  0  0  0  0
  2  5  1  0  0  0  0
  5  6  2  0  0  0  0
  5  7  1  0  0  0  0
  7  8  1  0  0  0  0
  7  9  1  0  0  0  0
  9 10  1  0  0  0  0
  9 11  1  0  0  0  0
  9 17  1  0  0  0  0
 11 12  1  0  0  0  0
 11 13  1  0  0  0  0
 11 14  1  0  0  0  0
 14 15  1  0  0  0  0
 14 16  2  0  0  0  0
 17 18  2  0  0  0  0
 17 19  1  0  0  0  0
 19 20  1  0  0  0  0
 19 21  1  0  0  0  0
 21 22  1  0  0  0  0
 21 23  1  0  0  0  0
 21 24  1  0  0  0  0
M  CHG  1  15  -1
M  END
$$$$

  -OEChem-01062216073D

 24 23  0     1  0  0  0  0  0999 V2000
   -2.1211   -3.6022    0.9668 H   0  0  0  0  0  0  0  0  0  0  0  0
   -2.1630   -2.6651    0.4051 C   0  0  0  0  0  0  0  0  0  0  0  0
   -3.2018   -2.4425    0.1519 H   0  0  0  0  0  0  0  0  0  0  0  0
   -1.5875   -2.7904   -0.5160 H   0  0  0  0  0  0  0  0  0  0  0  0
   -1.5727   -1.5402    1.2365 C   0  0  0  0  0  0  0  0  0  0  0  0
   -1.6859   -1.5614    2.4530 O   0  0  0  0  0  0  0  0  0  0  0  0
   -1.3195   -0.3138    0.6656 N   0  0  0  0  0  0  0  0  0  0  0  0
   -1.8281   -0.2092   -0.2073 H   0  0  0  0  0  0  0  0  0  0  0  0
    0.0573    0.1753    0.4957 C   0  0  1  0  0  0  0  0  0  0  0  0
    0.5428    0.2422    1.4754 H   0  0  0  0  0  0  0  0  0  0  0  0
    0.9099   -0.7146   -0.4468 C   0  0  0  0  0  0  0  0  0  0  0  0
    0.3804   -0.8309   -1.3970 H   0  0  0  0  0  0  0  0  0  0  0  0
    1.8503   -0.1974   -0.6540 H   0  0  0  0  0  0  0  0  0  0  0  0
    1.2848   -2.1007    0.0598 C   0  0  0  0  0  0  0  0  0  0  0  0
    1.4086   -2.2735    1.2933 O   0  5  0  0  0  0  0  0  0  0  0  0
    1.4056   -3.0015   -0.8047 O   0  0  0  0  0  0  0  0  0  0  0  0
    0.0077    1.5715   -0.1583 C   0  0  0  0  0  0  0  0  0  0  0  0
   -0.6270    1.7608   -1.1933 O   0  0  0  0  0  0  0  0  0  0  0  0
    0.5482    2.6570    0.5065 N   0  0  0  0  0  0  0  0  0  0  0  0
    0.9919    2.4720    1.4016 H   0  0  0  0  0  0  0  0  0  0  0  0
    0.4328    4.0308    0.0402 C   0  0  0  0  0  0  0  0  0  0  0  0
   -0.6187    4.3318   -0.0059 H   0  0  0  0  0  0  0  0  0  0  0  0
    0.9567    4.7044    0.7248 H   0  0  0  0  0  0  0  0  0  0  0  0
    0.8762    4.1359   -0.9552 H   0  0  0  0  0  0  0  0  0  0  0  0
  1  2  1  0  0  0  0
  2  3  1  0  0  0  0
  2  4  1  0  0  0  0
  2  5  1  0  0  0  0
  5  6  2  0  0  0  0
  5  7  1  0  0  0  0
  7  8  1  0  0  0  0
  7  9  1  0  0  0  0
  9 10  1  0  0  0  0
  9 11  1  0  0  0  0
  9 17  1  0  0  0  0
 11 12  1  0  0  0  0
 11 13  1  0  0  0  0
 11 14  1  0  0  0  0
 14 15  1  0  0  0  0
 14 16  2  0  0  0  0
 17 18  2  0  0  0  0
 17 19  1  0  0  0  0
 19 20  1  0  0  0  0
 19 21  1  0  0  0  0
 21 22  1  0  0  0  0
 21 23  1  0  0  0  0
 21 24  1  0  0  0  0
M  CHG  1  15  -1
M  END
$$$$

  -OEChem-01062216073D

 24 23  0     1  0  0  0  0  0999 V2000
   -2.2914   -3.5741    1.0291 H   0  0  0  0  0  0  0  0  0  0  0  0
   -2.1971   -2.6664    0.4271 C   0  0  0  0  0  0  0  0  0  0  0  0
   -3.1876   -2.3576    0.0859 H   0  0  0  0  0  0  0  0  0  0  0  0
   -1.5715   -2.8912   -0.4410 H   0  0  0  0  0  0  0  0  0  0  0  0
   -1.5568   -1.5628    1.2500 C   0  0  0  0  0  0  0  0  0  0  0  0
   -1.5918   -1.6141    2.4703 O   0  0  0  0  0  0  0  0  0  0  0  0
   -1.3185   -0.3297    0.6872 N   0  0  0  0  0  0  0  0  0  0  0  0
   -1.8439   -0.2064   -0.1734 H   0  0  0  0  0  0  0  0  0  0  0  0
    0.0495    0.1844    0.5183 C   0  0  1  0  0  0  0  0  0  0  0  0
    0.5390    0.2454    1.4964 H   0  0  0  0  0  0  0  0  0  0  0  0
    0.9030   -0.6769   -0.4492 C   0  0  0  0  0  0  0  0  0  0  0  0
    0.3640   -0.7791   -1.3958 H   0  0  0  0  0  0  0  0  0  0  0  0
    1.8352   -0.1447   -0.6560 H   0  0  0  0  0  0  0  0  0  0  0  0
    1.3026   -2.0687    0.0202 C   0  0  0  0  0  0  0  0  0  0  0  0
    1.4438   -2.2708    1.2470 O   0  5  0  0  0  0  0  0  0  0  0  0
    1.4355   -2.9431   -0.8692 O   0  0  0  0  0  0  0  0  0  0  0  0
   -0.0101    1.5843   -0.1267 C   0  0  0  0  0  0  0  0  0  0  0  0
   -0.8014    1.8268   -1.0356 O   0  0  0  0  0  0  0  0  0  0  0  0
    0.7749    2.6051    0.3772 N   0  0  0  0  0  0  0  0  0  0  0  0
    1.4078    2.3670    1.1355 H   0  0  0  0  0  0  0  0  0  0  0  0
    0.7617    3.9654   -0.1392 C   0  0  0  0  0  0  0  0  0  0  0  0
   -0.2406    4.3972   -0.0539 H   0  0  0  0  0  0  0  0  0  0  0  0
    1.4567    4.5897    0.4300 H   0  0  0  0  0  0  0  0  0  0  0  0
    1.0652    3.9778   -1.1908 H   0  0  0  0  0  0  0  0  0  0  0  0
  1  2  1  0  0  0  0
  2  3  1  0  0  0  0
  2  4  1  0  0  0  0
  2  5  1  0  0  0  0
  5  6  2  0  0  0  0
  5  7  1  0  0  0  0
  7  8  1  0  0  0  0
  7  9  1  0  0  0  0
  9 10  1  0  0  0  0
  9 11  1  0  0  0  0
  9 17  1  0  0  0  0
 11 12  1  0  0  0  0
 11 13  1  0  0  0  0
 11 14  1  0  0  0  0
 14 15  1  0  0  0  0
 14 16  2  0  0  0  0
 17 18  2  0  0  0  0
 17 19  1  0  0  0  0
 19 20  1  0  0  0  0
 19 21  1  0  0  0  0
 21 22  1  0  0  0  0
 21 23  1  0  0  0  0
 21 24  1  0  0  0  0
M  CHG  1  15  -1
M  END
$$$$

  -OEChem-01062216073D

 24 23  0     1  0  0  0  0  0999 V2000
   -2.2959   -3.5803    1.0289 H   0  0  0  0  0  0  0  0  0  0  0  0
   -2.2189   -2.6629    0.4389 C   0  0  0  0  0  0  0  0  0  0  0  0
   -3.2197   -2.3444    0.1390 H   0  0  0  0  0  0  0  0  0  0  0  0
   -1.6254   -2.8752   -0.4545 H   0  0  0  0  0  0  0  0  0  0  0  0
   -1.5443   -1.5757    1.2562 C   0  0  0  0  0  0  0  0  0  0  0  0
   -1.5269   -1.6520    2.4754 O   0  0  0  0  0  0  0  0  0  0  0  0
   -1.3139   -0.3365    0.7032 N   0  0  0  0  0  0  0  0  0  0  0  0
   -1.8521   -0.1943   -0.1463 H   0  0  0  0  0  0  0  0  0  0  0  0
    0.0482    0.1970    0.5418 C   0  0  1  0  0  0  0  0  0  0  0  0
    0.5400    0.2499    1.5192 H   0  0  0  0  0  0  0  0  0  0  0  0
    0.8988   -0.6453   -0.4466 C   0  0  0  0  0  0  0  0  0  0  0  0
    0.3521   -0.7328   -1.3904 H   0  0  0  0  0  0  0  0  0  0  0  0
    1.8279   -0.1077   -0.6534 H   0  0  0  0  0  0  0  0  0  0  0  0
    1.3109   -2.0435   -0.0085 C   0  0  0  0  0  0  0  0  0  0  0  0
    1.4648   -2.2701    1.2120 O   0  5  0  0  0  0  0  0  0  0  0  0
    1.4463   -2.8966   -0.9181 O   0  0  0  0  0  0  0  0  0  0  0  0
   -0.0117    1.6022   -0.0939 C   0  0  0  0  0  0  0  0  0  0  0  0
   -0.9209    1.9138   -0.8605 O   0  0  0  0  0  0  0  0  0  0  0  0
    0.9696    2.5298    0.2047 N   0  0  0  0  0  0  0  0  0  0  0  0
    1.7281    2.2169    0.8042 H   0  0  0  0  0  0  0  0  0  0  0  0
    1.0309    3.8591   -0.3840 C   0  0  0  0  0  0  0  0  0  0  0  0
    0.1206    4.4222   -0.1540 H   0  0  0  0  0  0  0  0  0  0  0  0
    1.8877    4.4076    0.0182 H   0  0  0  0  0  0  0  0  0  0  0  0
    1.1413    3.7905   -1.4711 H   0  0  0  0  0  0  0  0  0  0  0  0
  1  2  1  0  0  0  0
  2  3  1  0  0  0  0
  2  4  1  0  0  0  0
  2  5  1  0  0  0  0
  5  6  2  0  0  0  0
  5  7  1  0  0  0  0
  7  8  1  0  0  0  0
  7  9  1  0  0  0  0
  9 10  1  0  0  0  0
  9 11  1  0  0  0  0
  9 17  1  0  0  0  0
 11 12  1  0  0  0  0
 11 13  1  0  0  0  0
 11 14  1  0  0  0  0
 14 15  1  0  0  0  0
 14 16  2  0  0  0  0
 17 18  2  0  0  0  0
 17 19  1  0  0  0  0
 19 20  1  0  0  0  0
 19 21  1  0  0  0  0
 21 22  1  0  0  0  0
 21 23  1  0  0  0  0
 21 24  1  0  0  0  0
M  CHG  1  15  -1
M  END
$$$$

  -OEChem-01062216073D

 24 23  0     1  0  0  0  0  0999 V2000
   -2.3448   -3.5584    1.0401 H   0  0  0  0  0  0  0  0  0  0  0  0
   -2.2391   -2.6460    0.4470 C   0  0  0  0  0  0  0  0  0  0  0  0
   -3.2296   -2.2953    0.1493 H   0  0  0  0  0  0  0  0  0  0  0  0
   -1.6554   -2.8803   -0.4475 H   0  0  0  0  0  0  0  0  0  0  0  0
   -1.5257   -1.5802    1.2591 C   0  0  0  0  0  0  0  0  0  0  0  0
   -1.4637   -1.6798    2.4751 O   0  0  0  0  0  0  0  0  0  0  0  0
   -1.2933   -0.3367    0.7166 N   0  0  0  0  0  0  0  0  0  0  0  0
   -1.8457   -0.1716   -0.1190 H   0  0  0  0  0  0  0  0  0  0  0  0
    0.0670    0.2047    0.5595 C   0  0  1  0  0  0  0  0  0  0  0  0
    0.5667    0.2459    1.5334 H   0  0  0  0  0  0  0  0  0  0  0  0
    0.9009   -0.6339   -0.4493 C   0  0  0  0  0  0  0  0  0  0  0  0
    0.3417   -0.7042   -1.3872 H   0  0  0  0  0  0  0  0  0  0  0  0
    1.8336   -0.1055   -0.6617 H   0  0  0  0  0  0  0  0  0  0  0  0
    1.3110   -2.0408   -0.0383 C   0  0  0  0  0  0  0  0  0  0  0  0
    1.4807   -2.2899    1.1752 O   0  5  0  0  0  0  0  0  0  0  0  0
    1.4347   -2.8767   -0.9654 O   0  0  0  0  0  0  0  0  0  0  0  0
    0.0107    1.6177   -0.0660 C   0  0  0  0  0  0  0  0  0  0  0  0
   -0.9911    2.0132   -0.6592 O   0  0  0  0  0  0  0  0  0  0  0  0
    1.1268    2.4338   -0.0172 N   0  0  0  0  0  0  0  0  0  0  0  0
    1.9613    2.0395    0.4084 H   0  0  0  0  0  0  0  0  0  0  0  0
    1.2083    3.7329   -0.6678 C   0  0  0  0  0  0  0  0  0  0  0  0
    0.4219    4.3974   -0.2957 H   0  0  0  0  0  0  0  0  0  0  0  0
    2.1777    4.1956   -0.4608 H   0  0  0  0  0  0  0  0  0  0  0  0
    1.0990    3.6248   -1.7517 H   0  0  0  0  0  0  0  0  0  0  0  0
  1  2  1  0  0  0  0
  2  3  1  0  0  0  0
  2  4  1  0  0  0  0
  2  5  1  0  0  0  0
  5  6  2  0  0  0  0
  5  7  1  0  0  0  0
  7  8  1  0  0  0  0
  7  9  1  0  0  0  0
  9 10  1  0  0  0  0
  9 11  1  0  0  0  0
  9 17  1  0  0  0  0
 11 12  1  0  0  0  0
 11 13  1  0  0  0  0
 11 14  1  0  0  0  0
 14 15  1  0  0  0  0
 14 16  2  0  0  0  0
 17 18  2  0  0  0  0
 17 19  1  0  0  0  0
 19 20  1  0  0  0  0
 19 21  1  0  0  0  0
 21 22  1  0  0  0  0
 21 23  1  0  0  0  0
 21 24  1  0  0  0  0
M  CHG  1  15  -1
M  END
$$$$

  -OEChem-01062216073D

 24 23  0     1  0  0  0  0  0999 V2000
   -2.4593   -3.5540    1.0694 H   0  0  0  0  0  0  0  0  0  0  0  0
   -2.3416   -2.6588    0.4528 C   0  0  0  0  0  0  0  0  0  0  0  0
   -3.3269   -2.2337    0.2492 H   0  0  0  0  0  0  0  0  0  0  0  0
   -1.8699   -2.9458   -0.4912 H   0  0  0  0  0  0  0  0  0  0  0  0
   -1.4693   -1.6441    1.1695 C   0  0  0  0  0  0  0  0  0  0  0  0
   -1.1649   -1.8153    2.3408 O   0  0  0  0  0  0  0  0  0  0  0  0
   -1.2626   -0.3995    0.6159 N   0  0  0  0  0  0  0  0  0  0  0  0
   -1.8166   -0.2323   -0.2163 H   0  0  0  0  0  0  0  0  0  0  0  0
    0.0826    0.1915    0.5355 C   0  0  1  0  0  0  0  0  0  0  0  0
    0.6427    0.0170    1.4609 H   0  0  0  0  0  0  0  0  0  0  0  0
    0.8146   -0.4268   -0.6902 C   0  0  0  0  0  0  0  0  0  0  0  0
    0.1905   -0.2862   -1.5779 H   0  0  0  0  0  0  0  0  0  0  0  0
    1.7495    0.1121   -0.8588 H   0  0  0  0  0  0  0  0  0  0  0  0
    1.2083   -1.8958   -0.6125 C   0  0  0  0  0  0  0  0  0  0  0  0
    1.4584   -2.4029    0.5025 O   0  5  0  0  0  0  0  0  0  0  0  0
    1.2285   -2.5180   -1.7017 O   0  0  0  0  0  0  0  0  0  0  0  0
    0.0129    1.7115    0.2405 C   0  0  0  0  0  0  0  0  0  0  0  0
   -1.0541    2.2742    0.0048 O   0  0  0  0  0  0  0  0  0  0  0  0
    1.1795    2.4490    0.1303 N   0  0  0  0  0  0  0  0  0  0  0  0
    2.0520    1.9411    0.2473 H   0  0  0  0  0  0  0  0  0  0  0  0
    1.2206    3.8518   -0.2554 C   0  0  0  0  0  0  0  0  0  0  0  0
    0.6366    4.4580    0.4445 H   0  0  0  0  0  0  0  0  0  0  0  0
    2.2531    4.2128   -0.2466 H   0  0  0  0  0  0  0  0  0  0  0  0
    0.8148    3.9830   -1.2636 H   0  0  0  0  0  0  0  0  0  0  0  0
  1  2  1  0  0  0  0
  2  3  1  0  0  0  0
  2  4  1  0  0  0  0
  2  5  1  0  0  0  0
  5  6  2  0  0  0  0
  5  7  1  0  0  0  0
  7  8  1  0  0  0  0
  7  9  1  0  0  0  0
  9 10  1  0  0  0  0
  9 11  1  0  0  0  0
  9 17  1  0  0  0  0
 11 12  1  0  0  0  0
 11 13  1  0  0  0  0
 11 14  1  0  0  0  0
 14 15  1  0  0  0  0
 14 16  2  0  0  0  0
 17 18  2  0  0  0  0
 17 19  1  0  0  0  0
 19 20  1  0  0  0  0
 19 21  1  0  0  0  0
 21 22  1  0  0  0  0
 21 23  1  0  0  0  0
 21 24  1  0  0  0  0
M  CHG  1  15  -1
M  END
$$$$

  -OEChem-01062216073D

 24 23  0     1  0  0  0  0  0999 V2000
   -2.4480   -3.5454    1.0508 H   0  0  0  0  0  0  0  0  0  0  0  0
   -2.3572   -2.6314    0.4575 C   0  0  0  0  0  0  0  0  0  0  0  0
   -3.3500   -2.2006    0.3102 H   0  0  0  0  0  0  0  0  0  0  0  0
   -1.9273   -2.8892   -0.5143 H   0  0  0  0  0  0  0  0  0  0  0  0
   -1.4543   -1.6384    1.1665 C   0  0  0  0  0  0  0  0  0  0  0  0
   -1.1346   -1.8245    2.3312 O   0  0  0  0  0  0  0  0  0  0  0  0
   -1.2342   -0.3950    0.6151 N   0  0  0  0  0  0  0  0  0  0  0  0
   -1.7989   -0.2153   -0.2065 H   0  0  0  0  0  0  0  0  0  0  0  0
    0.1164    0.1862    0.5299 C   0  0  1  0  0  0  0  0  0  0  0  0
    0.6805    0.0112    1.4529 H   0  0  0  0  0  0  0  0  0  0  0  0
    0.8316   -0.4577   -0.6965 C   0  0  0  0  0  0  0  0  0  0  0  0
    0.2054   -0.3133   -1.5820 H   0  0  0  0  0  0  0  0  0  0  0  0
    1.7779    0.0562   -0.8743 H   0  0  0  0  0  0  0  0  0  0  0  0
    1.2088   -1.9306   -0.6122 C   0  0  0  0  0  0  0  0  0  0  0  0
    1.4639   -2.4364    0.5018 O   0  5  0  0  0  0  0  0  0  0  0  0
    1.2155   -2.5557   -1.6999 O   0  0  0  0  0  0  0  0  0  0  0  0
    0.0479    1.7117    0.2367 C   0  0  0  0  0  0  0  0  0  0  0  0
   -1.0185    2.3216    0.2606 O   0  0  0  0  0  0  0  0  0  0  0  0
    1.1705    2.4060   -0.1843 N   0  0  0  0  0  0  0  0  0  0  0  0
    2.0285    1.8693   -0.2767 H   0  0  0  0  0  0  0  0  0  0  0  0
    1.1610    3.8026   -0.5944 C   0  0  0  0  0  0  0  0  0  0  0  0
    0.8012    4.4384    0.2208 H   0  0  0  0  0  0  0  0  0  0  0  0
    2.1727    4.1221   -0.8607 H   0  0  0  0  0  0  0  0  0  0  0  0
    0.5129    3.9408   -1.4657 H   0  0  0  0  0  0  0  0  0  0  0  0
  1  2  1  0  0  0  0
  2  3  1  0  0  0  0
  2  4  1  0  0  0  0
  2  5  1  0  0  0  0
  5  6  2  0  0  0  0
  5  7  1  0  0  0  0
  7  8  1  0  0  0  0
  7  9  1  0  0  0  0
  9 10  1  0  0  0  0
  9 11  1  0  0  0  0
  9 17  1  0  0  0  0
 11 12  1  0  0  0  0
 11 13  1  0  0  0  0
 11 14  1  0  0  0  0
 14 15  1  0  0  0  0
 14 16  2  0  0  0  0
 17 18  2  0  0  0  0
 17 19  1  0  0  0  0
 19 20  1  0  0  0  0
 19 21  1  0  0  0  0
 21 22  1  0  0  0  0
 21 23  1  0  0  0  0
 21 24  1  0  0  0  0
M  CHG  1  15  -1
M  END
$$$$

  -OEChem-01062216073D

 24 23  0     1  0  0  0  0  0999 V2000
   -2.4692   -3.5128    1.0840 H   0  0  0  0  0  0  0  0  0  0  0  0
   -2.3469   -2.6196    0.4654 C   0  0  0  0  0  0  0  0  0  0  0  0
   -3.3283   -2.1787    0.2775 H   0  0  0  0  0  0  0  0  0  0  0  0
   -1.8946   -2.9142   -0.4856 H   0  0  0  0  0  0  0  0  0  0  0  0
   -1.4474   -1.6192    1.1683 C   0  0  0  0  0  0  0  0  0  0  0  0
   -1.1356   -1.7933    2.3367 O   0  0  0  0  0  0  0  0  0  0  0  0
   -1.2220   -0.3819    0.6046 N   0  0  0  0  0  0  0  0  0  0  0  0
   -1.7848   -0.2166   -0.2206 H   0  0  0  0  0  0  0  0  0  0  0  0
    0.1361    0.1810    0.5049 C   0  0  1  0  0  0  0  0  0  0  0  0
    0.7019    0.0132    1.4281 H   0  0  0  0  0  0  0  0  0  0  0  0
    0.8408   -0.4966   -0.7109 C   0  0  0  0  0  0  0  0  0  0  0  0
    0.2206   -0.3560   -1.6014 H   0  0  0  0  0  0  0  0  0  0  0  0
    1.7989   -0.0059   -0.8896 H   0  0  0  0  0  0  0  0  0  0  0  0
    1.2008   -1.9721   -0.6025 C   0  0  0  0  0  0  0  0  0  0  0  0
    1.4534   -2.4648    0.5175 O   0  5  0  0  0  0  0  0  0  0  0  0
    1.1941   -2.6126   -1.6812 O   0  0  0  0  0  0  0  0  0  0  0  0
    0.0700    1.7081    0.2008 C   0  0  0  0  0  0  0  0  0  0  0  0
   -0.9176    2.3727    0.5019 O   0  0  0  0  0  0  0  0  0  0  0  0
    1.0641    2.3556   -0.5163 N   0  0  0  0  0  0  0  0  0  0  0  0
    1.8546    1.7896   -0.8111 H   0  0  0  0  0  0  0  0  0  0  0  0
    1.0211    3.7607   -0.8946 C   0  0  0  0  0  0  0  0  0  0  0  0
    0.9629    4.3949   -0.0042 H   0  0  0  0  0  0  0  0  0  0  0  0
    1.9257    4.0260   -1.4498 H   0  0  0  0  0  0  0  0  0  0  0  0
    0.1530    3.9598   -1.5310 H   0  0  0  0  0  0  0  0  0  0  0  0
  1  2  1  0  0  0  0
  2  3  1  0  0  0  0
  2  4  1  0  0  0  0
  2  5  1  0  0  0  0
  5  6  2  0  0  0  0
  5  7  1  0  0  0  0
  7  8  1  0  0  0  0
  7  9  1  0  0  0  0
  9 10  1  0  0  0  0
  9 11  1  0  0  0  0
  9 17  1  0  0  0  0
 11 12  1  0  0  0  0
 11 13  1  0  0  0  0
 11 14  1  0  0  0  0
 14 15  1  0  0  0  0
 14 16  2  0  0  0  0
 17 18  2  0  0  0  0
 17 19  1  0  0  0  0
 19 20  1  0  0  0  0
 19 21  1  0  0  0  0
 21 22  1  0  0  0  0
 21 23  1  0  0  0  0
 21 24  1  0  0  0  0
M  CHG  1  15  -1
M  END
$$$$

  -OEChem-01062216073D

 24 23  0     1  0  0  0  0  0999 V2000
   -2.4259   -3.5161    1.0780 H   0  0  0  0  0  0  0  0  0  0  0  0
   -2.3389   -2.6109    0.4709 C   0  0  0  0  0  0  0  0  0  0  0  0
   -3.3343   -2.1918    0.3094 H   0  0  0  0  0  0  0  0  0  0  0  0
   -1.8992   -2.8808   -0.4931 H   0  0  0  0  0  0  0  0  0  0  0  0
   -1.4499   -1.5997    1.1718 C   0  0  0  0  0  0  0  0  0  0  0  0
   -1.1507   -1.7606    2.3452 O   0  0  0  0  0  0  0  0  0  0  0  0
   -1.2202   -0.3687    0.5952 N   0  0  0  0  0  0  0  0  0  0  0  0
   -1.7764   -0.2233   -0.2377 H   0  0  0  0  0  0  0  0  0  0  0  0
    0.1443    0.1771    0.4845 C   0  0  1  0  0  0  0  0  0  0  0  0
    0.7074    0.0198    1.4114 H   0  0  0  0  0  0  0  0  0  0  0  0
    0.8516   -0.5243   -0.7154 C   0  0  0  0  0  0  0  0  0  0  0  0
    0.2393   -0.3940   -1.6128 H   0  0  0  0  0  0  0  0  0  0  0  0
    1.8150   -0.0401   -0.8879 H   0  0  0  0  0  0  0  0  0  0  0  0
    1.2030   -2.0000   -0.5849 C   0  0  0  0  0  0  0  0  0  0  0  0
    1.4473   -2.4820    0.5413 O   0  5  0  0  0  0  0  0  0  0  0  0
    1.1923   -2.6527   -1.6564 O   0  0  0  0  0  0  0  0  0  0  0  0
    0.0816    1.7024    0.1680 C   0  0  0  0  0  0  0  0  0  0  0  0
   -0.7513    2.4218    0.7103 O   0  0  0  0  0  0  0  0  0  0  0  0
    0.8812    2.2961   -0.7973 N   0  0  0  0  0  0  0  0  0  0  0  0
    1.5361    1.6891   -1.2821 H   0  0  0  0  0  0  0  0  0  0  0  0
    0.8133    3.7027   -1.1673 C   0  0  0  0  0  0  0  0  0  0  0  0
    1.0133    4.3375   -0.2980 H   0  0  0  0  0  0  0  0  0  0  0  0
    1.5595    3.9247   -1.9359 H   0  0  0  0  0  0  0  0  0  0  0  0
   -0.1770    3.9465   -1.5651 H   0  0  0  0  0  0  0  0  0  0  0  0
  1  2  1  0  0  0  0
  2  3  1  0  0  0  0
  2  4  1  0  0  0  0
  2  5  1  0  0  0  0
  5  6  2  0  0  0  0
  5  7  1  0  0  0  0
  7  8  1  0  0  0  0
  7  9  1  0  0  0  0
  9 10  1  0  0  0  0
  9 11  1  0  0  0  0
  9 17  1  0  0  0  0
 11 12  1  0  0  0  0
 11 13  1  0  0  0  0
 11 14  1  0  0  0  0
 14 15  1  0  0  0  0
 14 16  2  0  0  0  0
 17 18  2  0  0  0  0
 17 19  1  0  0  0  0
 19 20  1  0  0  0  0
 19 21  1  0  0  0  0
 21 22  1  0  0  0  0
 21 23  1  0  0  0  0
 21 24  1  0  0  0  0
M  CHG  1  15  -1
M  END
$$$$

  -OEChem-01062216073D

 24 23  0     1  0  0  0  0  0999 V2000
   -2.4125   -3.5139    1.0963 H   0  0  0  0  0  0  0  0  0  0  0  0
   -2.3228   -2.6158    0.4788 C   0  0  0  0  0  0  0  0  0  0  0  0
   -3.3189   -2.2061    0.2977 H   0  0  0  0  0  0  0  0  0  0  0  0
   -1.8675   -2.8950   -0.4755 H   0  0  0  0  0  0  0  0  0  0  0  0
   -1.4515   -1.5885    1.1789 C   0  0  0  0  0  0  0  0  0  0  0  0
   -1.1708   -1.7294    2.3591 O   0  0  0  0  0  0  0  0  0  0  0  0
   -1.2270   -0.3629    0.5887 N   0  0  0  0  0  0  0  0  0  0  0  0
   -1.7744   -0.2452   -0.2540 H   0  0  0  0  0  0  0  0  0  0  0  0
    0.1387    0.1770    0.4680 C   0  0  1  0  0  0  0  0  0  0  0  0
    0.7028    0.0310    1.3964 H   0  0  0  0  0  0  0  0  0  0  0  0
    0.8501   -0.5354   -0.7219 C   0  0  0  0  0  0  0  0  0  0  0  0
    0.2364   -0.4226   -1.6208 H   0  0  0  0  0  0  0  0  0  0  0  0
    1.8088   -0.0407   -0.8979 H   0  0  0  0  0  0  0  0  0  0  0  0
    1.2033   -2.0092   -0.5749 C   0  0  0  0  0  0  0  0  0  0  0  0
    1.4452   -2.4805    0.5561 O   0  5  0  0  0  0  0  0  0  0  0  0
    1.1846   -2.6738   -1.6391 O   0  0  0  0  0  0  0  0  0  0  0  0
    0.0728    1.6976    0.1378 C   0  0  0  0  0  0  0  0  0  0  0  0
   -0.5523    2.4670    0.8595 O   0  0  0  0  0  0  0  0  0  0  0  0
    0.6249    2.2317   -1.0173 N   0  0  0  0  0  0  0  0  0  0  0  0
    1.1248    1.5859   -1.6223 H   0  0  0  0  0  0  0  0  0  0  0  0
    0.5570    3.6390   -1.3841 C   0  0  0  0  0  0  0  0  0  0  0  0
    1.0361    4.2573   -0.6182 H   0  0  0  0  0  0  0  0  0  0  0  0
    1.0729    3.8038   -2.3346 H   0  0  0  0  0  0  0  0  0  0  0  0
   -0.4848    3.9558   -1.4962 H   0  0  0  0  0  0  0  0  0  0  0  0
  1  2  1  0  0  0  0
  2  3  1  0  0  0  0
  2  4  1  0  0  0  0
  2  5  1  0  0  0  0
  5  6  2  0  0  0  0
  5  7  1  0  0  0  0
  7  8  1  0  0  0  0
  7  9  1  0  0  0  0
  9 10  1  0  0  0  0
  9 11  1  0  0  0  0
  9 17  1  0  0  0  0
 11 12  1  0  0  0  0
 11 13  1  0  0  0  0
 11 14  1  0  0  0  0
 14 15  1  0  0  0  0
 14 16  2  0  0  0  0
 17 18  2  0  0  0  0
 17 19  1  0  0  0  0
 19 20  1  0  0  0  0
 19 21  1  0  0  0  0
 21 22  1  0  0  0  0
 21 23  1  0  0  0  0
 21 24  1  0  0  0  0
M  CHG  1  15  -1
M  END
$$$$

  -OEChem-01062216073D

 24 23  0     1  0  0  0  0  0999 V2000
   -2.3800   -3.5328    1.1274 H   0  0  0  0  0  0  0  0  0  0  0  0
   -2.3001   -2.6441    0.4952 C   0  0  0  0  0  0  0  0  0  0  0  0
   -3.3014   -2.2554    0.2973 H   0  0  0  0  0  0  0  0  0  0  0  0
   -1.8298   -2.9315   -0.4493 H   0  0  0  0  0  0  0  0  0  0  0  0
   -1.4548   -1.5896    1.1868 C   0  0  0  0  0  0  0  0  0  0  0  0
   -1.1869   -1.7050    2.3726 O   0  0  0  0  0  0  0  0  0  0  0  0
   -1.2498   -0.3676    0.5814 N   0  0  0  0  0  0  0  0  0  0  0  0
   -1.7908   -0.2794   -0.2692 H   0  0  0  0  0  0  0  0  0  0  0  0
    0.1113    0.1819    0.4540 C   0  0  1  0  0  0  0  0  0  0  0  0
    0.6766    0.0493    1.3840 H   0  0  0  0  0  0  0  0  0  0  0  0
    0.8306   -0.5325   -0.7290 C   0  0  0  0  0  0  0  0  0  0  0  0
    0.2111   -0.4444   -1.6266 H   0  0  0  0  0  0  0  0  0  0  0  0
    1.7768   -0.0176   -0.9155 H   0  0  0  0  0  0  0  0  0  0  0  0
    1.1987   -2.0013   -0.5695 C   0  0  0  0  0  0  0  0  0  0  0  0
    1.4445   -2.4624    0.5648 O   0  5  0  0  0  0  0  0  0  0  0  0
    1.1761   -2.6758   -1.6275 O   0  0  0  0  0  0  0  0  0  0  0  0
    0.0387    1.6965    0.1080 C   0  0  0  0  0  0  0  0  0  0  0  0
   -0.3398    2.5098    0.9431 O   0  0  0  0  0  0  0  0  0  0  0  0
    0.3071    2.1752   -1.1663 N   0  0  0  0  0  0  0  0  0  0  0  0
    0.6689    1.5004   -1.8348 H   0  0  0  0  0  0  0  0  0  0  0  0
    0.2774    3.5844   -1.5312 C   0  0  0  0  0  0  0  0  0  0  0  0
    1.0196    4.1443   -0.9533 H   0  0  0  0  0  0  0  0  0  0  0  0
    0.5053    3.7011   -2.5949 H   0  0  0  0  0  0  0  0  0  0  0  0
   -0.7139    4.0089   -1.3425 H   0  0  0  0  0  0  0  0  0  0  0  0
  1  2  1  0  0  0  0
  2  3  1  0  0  0  0
  2  4  1  0  0  0  0
  2  5  1  0  0  0  0
  5  6  2  0  0  0  0
  5  7  1  0  0  0  0
  7  8  1  0  0  0  0
  7  9  1  0  0  0  0
  9 10  1  0  0  0  0
  9 11  1  0  0  0  0
  9 17  1  0  0  0  0
 11 12  1  0  0  0  0
 11 13  1  0  0  0  0
 11 14  1  0  0  0  0
 14 15  1  0  0  0  0
 14 16  2  0  0  0  0
 17 18  2  0  0  0  0
 17 19  1  0  0  0  0
 19 20  1  0  0  0  0
 19 21  1  0  0  0  0
 21 22  1  0  0  0  0
 21 23  1  0  0  0  0
 21 24  1  0  0  0  0
M  CHG  1  15  -1
M  END
$$$$

  -OEChem-01062216073D

 24 23  0     1  0  0  0  0  0999 V2000
   -2.3166   -3.5633    1.1258 H   0  0  0  0  0  0  0  0  0  0  0  0
   -2.2721   -2.6673    0.5008 C   0  0  0  0  0  0  0  0  0  0  0  0
   -3.2876   -2.3136    0.3100 H   0  0  0  0  0  0  0  0  0  0  0  0
   -1.7962   -2.9307   -0.4478 H   0  0  0  0  0  0  0  0  0  0  0  0
   -1.4621   -1.5893    1.1983 C   0  0  0  0  0  0  0  0  0  0  0  0
   -1.2260   -1.6818    2.3929 O   0  0  0  0  0  0  0  0  0  0  0  0
   -1.2679   -0.3692    0.5852 N   0  0  0  0  0  0  0  0  0  0  0  0
   -1.7988   -0.3028   -0.2736 H   0  0  0  0  0  0  0  0  0  0  0  0
    0.0915    0.1840    0.4560 C   0  0  1  0  0  0  0  0  0  0  0  0
    0.6591    0.0546    1.3852 H   0  0  0  0  0  0  0  0  0  0  0  0
    0.8112   -0.5233   -0.7299 C   0  0  0  0  0  0  0  0  0  0  0  0
    0.1880   -0.4442   -1.6253 H   0  0  0  0  0  0  0  0  0  0  0  0
    1.7498    0.0036   -0.9230 H   0  0  0  0  0  0  0  0  0  0  0  0
    1.1829   -1.9915   -0.5711 C   0  0  0  0  0  0  0  0  0  0  0  0
    1.4303   -2.4519    0.5632 O   0  5  0  0  0  0  0  0  0  0  0  0
    1.1435   -2.6697   -1.6263 O   0  0  0  0  0  0  0  0  0  0  0  0
    0.0161    1.6938    0.1023 C   0  0  0  0  0  0  0  0  0  0  0  0
   -0.0879    2.5398    0.9826 O   0  0  0  0  0  0  0  0  0  0  0  0
   -0.0187    2.1287   -1.2146 N   0  0  0  0  0  0  0  0  0  0  0  0
    0.1753    1.4270   -1.9234 H   0  0  0  0  0  0  0  0  0  0  0  0
   -0.0386    3.5318   -1.6023 C   0  0  0  0  0  0  0  0  0  0  0  0
    0.8680    4.0372   -1.2544 H   0  0  0  0  0  0  0  0  0  0  0  0
   -0.0892    3.6189   -2.6916 H   0  0  0  0  0  0  0  0  0  0  0  0
   -0.9119    4.0356   -1.1755 H   0  0  0  0  0  0  0  0  0  0  0  0
  1  2  1  0  0  0  0
  2  3  1  0  0  0  0
  2  4  1  0  0  0  0
  2  5  1  0  0  0  0
  5  6  2  0  0  0  0
  5  7  1  0  0  0  0
  7  8  1  0  0  0  0
  7  9  1  0  0  0  0
  9 10  1  0  0  0  0
  9 11  1  0  0  0  0
  9 17  1  0  0  0  0
 11 12  1  0  0  0  0
 11 13  1  0  0  0  0
 11 14  1  0  0  0  0
 14 15  1  0  0  0  0
 14 16  2  0  0  0  0
 17 18  2  0  0  0  0
 17 19  1  0  0  0  0
 19 20  1  0  0  0  0
 19 21  1  0  0  0  0
 21 22  1  0  0  0  0
 21 23  1  0  0  0  0
 21 24  1  0  0  0  0
M  CHG  1  15  -1
M  END
$$$$

  -OEChem-01062216073D

 24 23  0     1  0  0  0  0  0999 V2000
   -2.2935   -3.5849    1.1342 H   0  0  0  0  0  0  0  0  0  0  0  0
   -2.2489   -2.6938    0.5022 C   0  0  0  0  0  0  0  0  0  0  0  0
   -3.2651   -2.3578    0.2855 H   0  0  0  0  0  0  0  0  0  0  0  0
   -1.7481   -2.9584   -0.4332 H   0  0  0  0  0  0  0  0  0  0  0  0
   -1.4716   -1.5968    1.2072 C   0  0  0  0  0  0  0  0  0  0  0  0
   -1.2598   -1.6740    2.4073 O   0  0  0  0  0  0  0  0  0  0  0  0
   -1.2891   -0.3765    0.5909 N   0  0  0  0  0  0  0  0  0  0  0  0
   -1.8103   -0.3269   -0.2748 H   0  0  0  0  0  0  0  0  0  0  0  0
    0.0688    0.1825    0.4673 C   0  0  1  0  0  0  0  0  0  0  0  0
    0.6367    0.0514    1.3964 H   0  0  0  0  0  0  0  0  0  0  0  0
    0.7923   -0.5073   -0.7247 C   0  0  0  0  0  0  0  0  0  0  0  0
    0.1731   -0.4221   -1.6218 H   0  0  0  0  0  0  0  0  0  0  0  0
    1.7277    0.0274   -0.9107 H   0  0  0  0  0  0  0  0  0  0  0  0
    1.1674   -1.9759   -0.5764 C   0  0  0  0  0  0  0  0  0  0  0  0
    1.4132   -2.4449    0.5551 O   0  5  0  0  0  0  0  0  0  0  0  0
    1.1124   -2.6497   -1.6338 O   0  0  0  0  0  0  0  0  0  0  0  0
   -0.0076    1.6888    0.1105 C   0  0  0  0  0  0  0  0  0  0  0  0
    0.1783    2.5499    0.9620 O   0  0  0  0  0  0  0  0  0  0  0  0
   -0.3436    2.1006   -1.1709 N   0  0  0  0  0  0  0  0  0  0  0  0
   -0.3432    1.3790   -1.8854 H   0  0  0  0  0  0  0  0  0  0  0  0
   -0.3564    3.4956   -1.5875 C   0  0  0  0  0  0  0  0  0  0  0  0
    0.6459    3.9280   -1.5055 H   0  0  0  0  0  0  0  0  0  0  0  0
   -0.6850    3.5733   -2.6280 H   0  0  0  0  0  0  0  0  0  0  0  0
   -1.0452    4.0757   -0.9649 H   0  0  0  0  0  0  0  0  0  0  0  0
  1  2  1  0  0  0  0
  2  3  1  0  0  0  0
  2  4  1  0  0  0  0
  2  5  1  0  0  0  0
  5  6  2  0  0  0  0
  5  7  1  0  0  0  0
  7  8  1  0  0  0  0
  7  9  1  0  0  0  0
  9 10  1  0  0  0  0
  9 11  1  0  0  0  0
  9 17  1  0  0  0  0
 11 12  1  0  0  0  0
 11 13  1  0  0  0  0
 11 14  1  0  0  0  0
 14 15  1  0  0  0  0
 14 16  2  0  0  0  0
 17 18  2  0  0  0  0
 17 19  1  0  0  0  0
 19 20  1  0  0  0  0
 19 21  1  0  0  0  0
 21 22  1  0  0  0  0
 21 23  1  0  0  0  0
 21 24  1  0  0  0  0
M  CHG  1  15  -1
M  END
$$$$

  -OEChem-01062216073D

 24 23  0     1  0  0  0  0  0999 V2000
   -2.2655   -3.6113    1.1476 H   0  0  0  0  0  0  0  0  0  0  0  0
   -2.2306   -2.7224    0.5117 C   0  0  0  0  0  0  0  0  0  0  0  0
   -3.2506   -2.4039    0.2862 H   0  0  0  0  0  0  0  0  0  0  0  0
   -1.7193   -2.9839   -0.4189 H   0  0  0  0  0  0  0  0  0  0  0  0
   -1.4752   -1.6105    1.2177 C   0  0  0  0  0  0  0  0  0  0  0  0
   -1.2802   -1.6744    2.4217 O   0  0  0  0  0  0  0  0  0  0  0  0
   -1.3028   -0.3897    0.5991 N   0  0  0  0  0  0  0  0  0  0  0  0
   -1.8107   -0.3575   -0.2749 H   0  0  0  0  0  0  0  0  0  0  0  0
    0.0534    0.1770    0.4860 C   0  0  1  0  0  0  0  0  0  0  0  0
    0.6229    0.0400    1.4133 H   0  0  0  0  0  0  0  0  0  0  0  0
    0.7752   -0.4866   -0.7192 C   0  0  0  0  0  0  0  0  0  0  0  0
    0.1589   -0.3784   -1.6159 H   0  0  0  0  0  0  0  0  0  0  0  0
    1.7110    0.0521   -0.8933 H   0  0  0  0  0  0  0  0  0  0  0  0
    1.1508   -1.9572   -0.5956 C   0  0  0  0  0  0  0  0  0  0  0  0
    1.3974   -2.4438    0.5286 O   0  5  0  0  0  0  0  0  0  0  0  0
    1.0789   -2.6177   -1.6603 O   0  0  0  0  0  0  0  0  0  0  0  0
   -0.0229    1.6808    0.1266 C   0  0  0  0  0  0  0  0  0  0  0  0
    0.4321    2.5365    0.8765 O   0  0  0  0  0  0  0  0  0  0  0  0
   -0.6386    2.0927   -1.0464 N   0  0  0  0  0  0  0  0  0  0  0  0
   -0.8413    1.3645   -1.7233 H   0  0  0  0  0  0  0  0  0  0  0  0
   -0.6657    3.4800   -1.4871 C   0  0  0  0  0  0  0  0  0  0  0  0
    0.3502    3.8398   -1.6790 H   0  0  0  0  0  0  0  0  0  0  0  0
   -1.2475    3.5697   -2.4092 H   0  0  0  0  0  0  0  0  0  0  0  0
   -1.1291    4.1154   -0.7252 H   0  0  0  0  0  0  0  0  0  0  0  0
  1  2  1  0  0  0  0
  2  3  1  0  0  0  0
  2  4  1  0  0  0  0
  2  5  1  0  0  0  0
  5  6  2  0  0  0  0
  5  7  1  0  0  0  0
  7  8  1  0  0  0  0
  7  9  1  0  0  0  0
  9 10  1  0  0  0  0
  9 11  1  0  0  0  0
  9 17  1  0  0  0  0
 11 12  1  0  0  0  0
 11 13  1  0  0  0  0
 11 14  1  0  0  0  0
 14 15  1  0  0  0  0
 14 16  2  0  0  0  0
 17 18  2  0  0  0  0
 17 19  1  0  0  0  0
 19 20  1  0  0  0  0
 19 21  1  0  0  0  0
 21 22  1  0  0  0  0
 21 23  1  0  0  0  0
 21 24  1  0  0  0  0
M  CHG  1  15  -1
M  END
$$$$

  -OEChem-01062216073D

 24 23  0     1  0  0  0  0  0999 V2000
   -2.2102   -3.6522    1.1477 H   0  0  0  0  0  0  0  0  0  0  0  0
   -2.2018   -2.7597    0.5161 C   0  0  0  0  0  0  0  0  0  0  0  0
   -3.2307   -2.4705    0.2920 H   0  0  0  0  0  0  0  0  0  0  0  0
   -1.6837   -3.0021   -0.4158 H   0  0  0  0  0  0  0  0  0  0  0  0
   -1.4798   -1.6291    1.2274 C   0  0  0  0  0  0  0  0  0  0  0  0
   -1.3186   -1.6740    2.4373 O   0  0  0  0  0  0  0  0  0  0  0  0
   -1.3216   -0.4079    0.6056 N   0  0  0  0  0  0  0  0  0  0  0  0
   -1.8032   -0.4104   -0.2830 H   0  0  0  0  0  0  0  0  0  0  0  0
    0.0318    0.1714    0.5048 C   0  0  1  0  0  0  0  0  0  0  0  0
    0.6008    0.0292    1.4315 H   0  0  0  0  0  0  0  0  0  0  0  0
    0.7514   -0.4749   -0.7094 C   0  0  0  0  0  0  0  0  0  0  0  0
    0.1344   -0.3496   -1.6039 H   0  0  0  0  0  0  0  0  0  0  0  0
    1.6877    0.0650   -0.8773 H   0  0  0  0  0  0  0  0  0  0  0  0
    1.1292   -1.9461   -0.6005 C   0  0  0  0  0  0  0  0  0  0  0  0
    1.3781   -2.4409    0.5200 O   0  5  0  0  0  0  0  0  0  0  0  0
    1.0378   -2.6025   -1.6663 O   0  0  0  0  0  0  0  0  0  0  0  0
   -0.0341    1.6746    0.1420 C   0  0  0  0  0  0  0  0  0  0  0  0
    0.6640    2.4971    0.7234 O   0  0  0  0  0  0  0  0  0  0  0  0
   -0.8842    2.1224   -0.8586 N   0  0  0  0  0  0  0  0  0  0  0  0
   -1.3334    1.4114   -1.4237 H   0  0  0  0  0  0  0  0  0  0  0  0
   -0.9239    3.5050   -1.3134 C   0  0  0  0  0  0  0  0  0  0  0  0
    0.0360    3.7888   -1.7565 H   0  0  0  0  0  0  0  0  0  0  0  0
   -1.7063    3.6301   -2.0676 H   0  0  0  0  0  0  0  0  0  0  0  0
   -1.1416    4.1776   -0.4773 H   0  0  0  0  0  0  0  0  0  0  0  0
  1  2  1  0  0  0  0
  2  3  1  0  0  0  0
  2  4  1  0  0  0  0
  2  5  1  0  0  0  0
  5  6  2  0  0  0  0
  5  7  1  0  0  0  0
  7  8  1  0  0  0  0
  7  9  1  0  0  0  0
  9 10  1  0  0  0  0
  9 11  1  0  0  0  0
  9 17  1  0  0  0  0
 11 12  1  0  0  0  0
 11 13  1  0  0  0  0
 11 14  1  0  0  0  0
 14 15  1  0  0  0  0
 14 16  2  0  0  0  0
 17 18  2  0  0  0  0
 17 19  1  0  0  0  0
 19 20  1  0  0  0  0
 19 21  1  0  0  0  0
 21 22  1  0  0  0  0
 21 23  1  0  0  0  0
 21 24  1  0  0  0  0
M  CHG  1  15  -1
M  END
$$$$

  -OEChem-01062216073D

 24 23  0     1  0  0  0  0  0999 V2000
   -2.1114   -3.6835    1.1250 H   0  0  0  0  0  0  0  0  0  0  0  0
   -2.1570   -2.7857    0.5027 C   0  0  0  0  0  0  0  0  0  0  0  0
   -3.2017   -2.5478    0.2917 H   0  0  0  0  0  0  0  0  0  0  0  0
   -1.6379   -2.9928   -0.4369 H   0  0  0  0  0  0  0  0  0  0  0  0
   -1.4880   -1.6269    1.2207 C   0  0  0  0  0  0  0  0  0  0  0  0
   -1.3992   -1.6346    2.4391 O   0  0  0  0  0  0  0  0  0  0  0  0
   -1.3319   -0.4118    0.5866 N   0  0  0  0  0  0  0  0  0  0  0  0
   -1.7658   -0.4663   -0.3257 H   0  0  0  0  0  0  0  0  0  0  0  0
    0.0247    0.1638    0.4939 C   0  0  1  0  0  0  0  0  0  0  0  0
    0.5844    0.0271    1.4269 H   0  0  0  0  0  0  0  0  0  0  0  0
    0.7502   -0.4976   -0.7080 C   0  0  0  0  0  0  0  0  0  0  0  0
    0.1397   -0.3744   -1.6075 H   0  0  0  0  0  0  0  0  0  0  0  0
    1.6913    0.0345   -0.8751 H   0  0  0  0  0  0  0  0  0  0  0  0
    1.1188   -1.9696   -0.5769 C   0  0  0  0  0  0  0  0  0  0  0  0
    1.3550   -2.4480    0.5542 O   0  5  0  0  0  0  0  0  0  0  0  0
    1.0197   -2.6450   -1.6299 O   0  0  0  0  0  0  0  0  0  0  0  0
   -0.0227    1.6653    0.1178 C   0  0  0  0  0  0  0  0  0  0  0  0
    0.8773    2.4284    0.4496 O   0  0  0  0  0  0  0  0  0  0  0  0
   -1.0540    2.1695   -0.6595 N   0  0  0  0  0  0  0  0  0  0  0  0
   -1.8276    1.5459   -0.8540 H   0  0  0  0  0  0  0  0  0  0  0  0
   -1.1576    3.5672   -1.0529 C   0  0  0  0  0  0  0  0  0  0  0  0
   -0.2887    3.8609   -1.6508 H   0  0  0  0  0  0  0  0  0  0  0  0
   -2.0587    3.7223   -1.6536 H   0  0  0  0  0  0  0  0  0  0  0  0
   -1.2143    4.2105   -0.1689 H   0  0  0  0  0  0  0  0  0  0  0  0
  1  2  1  0  0  0  0
  2  3  1  0  0  0  0
  2  4  1  0  0  0  0
  2  5  1  0  0  0  0
  5  6  2  0  0  0  0
  5  7  1  0  0  0  0
  7  8  1  0  0  0  0
  7  9  1  0  0  0  0
  9 10  1  0  0  0  0
  9 11  1  0  0  0  0
  9 17  1  0  0  0  0
 11 12  1  0  0  0  0
 11 13  1  0  0  0  0
 11 14  1  0  0  0  0
 14 15  1  0  0  0  0
 14 16  2  0  0  0  0
 17 18  2  0  0  0  0
 17 19  1  0  0  0  0
 19 20  1  0  0  0  0
 19 21  1  0  0  0  0
 21 22  1  0  0  0  0
 21 23  1  0  0  0  0
 21 24  1  0  0  0  0
M  CHG  1  15  -1
M  END
$$$$

  -OEChem-01062216073D

 24 23  0     1  0  0  0  0  0999 V2000
   -2.1325   -3.6805    1.1235 H   0  0  0  0  0  0  0  0  0  0  0  0
   -2.1504   -2.7918    0.4867 C   0  0  0  0  0  0  0  0  0  0  0  0
   -3.1863   -2.5458    0.2437 H   0  0  0  0  0  0  0  0  0  0  0  0
   -1.6089   -3.0192   -0.4355 H   0  0  0  0  0  0  0  0  0  0  0  0
   -1.4873   -1.6292    1.2046 C   0  0  0  0  0  0  0  0  0  0  0  0
   -1.4279   -1.6213    2.4248 O   0  0  0  0  0  0  0  0  0  0  0  0
   -1.3253   -0.4162    0.5683 N   0  0  0  0  0  0  0  0  0  0  0  0
   -1.7463   -0.4753   -0.3512 H   0  0  0  0  0  0  0  0  0  0  0  0
    0.0321    0.1596    0.4772 C   0  0  1  0  0  0  0  0  0  0  0  0
    0.5862    0.0319    1.4149 H   0  0  0  0  0  0  0  0  0  0  0  0
    0.7644   -0.5166   -0.7126 C   0  0  0  0  0  0  0  0  0  0  0  0
    0.1590   -0.4028   -1.6169 H   0  0  0  0  0  0  0  0  0  0  0  0
    1.7078    0.0101   -0.8821 H   0  0  0  0  0  0  0  0  0  0  0  0
    1.1308   -1.9869   -0.5573 C   0  0  0  0  0  0  0  0  0  0  0  0
    1.3592   -2.4459    0.5838 O   0  5  0  0  0  0  0  0  0  0  0  0
    1.0371   -2.6810   -1.5986 O   0  0  0  0  0  0  0  0  0  0  0  0
   -0.0252    1.6606    0.0963 C   0  0  0  0  0  0  0  0  0  0  0  0
    0.9649    2.3791    0.1770 O   0  0  0  0  0  0  0  0  0  0  0  0
   -1.1945    2.2090   -0.4068 N   0  0  0  0  0  0  0  0  0  0  0  0
   -2.0314    1.6526   -0.2705 H   0  0  0  0  0  0  0  0  0  0  0  0
   -1.3402    3.6220   -0.7268 C   0  0  0  0  0  0  0  0  0  0  0  0
   -0.6094    3.9199   -1.4859 H   0  0  0  0  0  0  0  0  0  0  0  0
   -2.3426    3.8162   -1.1197 H   0  0  0  0  0  0  0  0  0  0  0  0
   -1.1917    4.2346    0.1683 H   0  0  0  0  0  0  0  0  0  0  0  0
  1  2  1  0  0  0  0
  2  3  1  0  0  0  0
  2  4  1  0  0  0  0
  2  5  1  0  0  0  0
  5  6  2  0  0  0  0
  5  7  1  0  0  0  0
  7  8  1  0  0  0  0
  7  9  1  0  0  0  0
  9 10  1  0  0  0  0
  9 11  1  0  0  0  0
  9 17  1  0  0  0  0
 11 12  1  0  0  0  0
 11 13  1  0  0  0  0
 11 14  1  0  0  0  0
 14 15  1  0  0  0  0
 14 16  2  0  0  0  0
 17 18  2  0  0  0  0
 17 19  1  0  0  0  0
 19 20  1  0  0  0  0
 19 21  1  0  0  0  0
 21 22  1  0  0  0  0
 21 23  1  0  0  0  0
 21 24  1  0  0  0  0
M  CHG  1  15  -1
M  END
$$$$

  -OEChem-01062216073D

 24 23  0     1  0  0  0  0  0999 V2000
   -2.0949   -3.6923    1.0813 H   0  0  0  0  0  0  0  0  0  0  0  0
   -2.1428   -2.7927    0.4617 C   0  0  0  0  0  0  0  0  0  0  0  0
   -3.1878   -2.5605    0.2455 H   0  0  0  0  0  0  0  0  0  0  0  0
   -1.6174   -2.9934   -0.4760 H   0  0  0  0  0  0  0  0  0  0  0  0
   -1.4850   -1.6325    1.1877 C   0  0  0  0  0  0  0  0  0  0  0  0
   -1.4449   -1.6217    2.4089 O   0  0  0  0  0  0  0  0  0  0  0  0
   -1.3179   -0.4173    0.5578 N   0  0  0  0  0  0  0  0  0  0  0  0
   -1.7443   -0.4610   -0.3609 H   0  0  0  0  0  0  0  0  0  0  0  0
    0.0399    0.1587    0.4660 C   0  0  1  0  0  0  0  0  0  0  0  0
    0.5912    0.0367    1.4056 H   0  0  0  0  0  0  0  0  0  0  0  0
    0.7760   -0.5299   -0.7160 C   0  0  0  0  0  0  0  0  0  0  0  0
    0.1729   -0.4246   -1.6228 H   0  0  0  0  0  0  0  0  0  0  0  0
    1.7212   -0.0084   -0.8895 H   0  0  0  0  0  0  0  0  0  0  0  0
    1.1412   -1.9985   -0.5428 C   0  0  0  0  0  0  0  0  0  0  0  0
    1.3656   -2.4430    0.6052 O   0  5  0  0  0  0  0  0  0  0  0  0
    1.0516   -2.7062   -1.5753 O   0  0  0  0  0  0  0  0  0  0  0  0
   -0.0344    1.6623    0.0907 C   0  0  0  0  0  0  0  0  0  0  0  0
    0.9710    2.3477   -0.0623 O   0  0  0  0  0  0  0  0  0  0  0  0
   -1.2688    2.2609   -0.1025 N   0  0  0  0  0  0  0  0  0  0  0  0
   -2.0652    1.7234    0.2273 H   0  0  0  0  0  0  0  0  0  0  0  0
   -1.4387    3.6841   -0.3563 C   0  0  0  0  0  0  0  0  0  0  0  0
   -0.9242    3.9713   -1.2790 H   0  0  0  0  0  0  0  0  0  0  0  0
   -2.5010    3.9213   -0.4658 H   0  0  0  0  0  0  0  0  0  0  0  0
   -1.0340    4.2724    0.4736 H   0  0  0  0  0  0  0  0  0  0  0  0
  1  2  1  0  0  0  0
  2  3  1  0  0  0  0
  2  4  1  0  0  0  0
  2  5  1  0  0  0  0
  5  6  2  0  0  0  0
  5  7  1  0  0  0  0
  7  8  1  0  0  0  0
  7  9  1  0  0  0  0
  9 10  1  0  0  0  0
  9 11  1  0  0  0  0
  9 17  1  0  0  0  0
 11 12  1  0  0  0  0
 11 13  1  0  0  0  0
 11 14  1  0  0  0  0
 14 15  1  0  0  0  0
 14 16  2  0  0  0  0
 17 18  2  0  0  0  0
 17 19  1  0  0  0  0
 19 20  1  0  0  0  0
 19 21  1  0  0  0  0
 21 22  1  0  0  0  0
 21 23  1  0  0  0  0
 21 24  1  0  0  0  0
M  CHG  1  15  -1
M  END
$$$$

  -OEChem-01062216073D

 24 23  0     1  0  0  0  0  0999 V2000
   -2.0811   -3.6916    1.0384 H   0  0  0  0  0  0  0  0  0  0  0  0
   -2.1455   -2.7815    0.4357 C   0  0  0  0  0  0  0  0  0  0  0  0
   -3.1955   -2.5520    0.2420 H   0  0  0  0  0  0  0  0  0  0  0  0
   -1.6356   -2.9622   -0.5145 H   0  0  0  0  0  0  0  0  0  0  0  0
   -1.4822   -1.6303    1.1706 C   0  0  0  0  0  0  0  0  0  0  0  0
   -1.4523   -1.6225    2.3921 O   0  0  0  0  0  0  0  0  0  0  0  0
   -1.3084   -0.4115    0.5510 N   0  0  0  0  0  0  0  0  0  0  0  0
   -1.7511   -0.4324   -0.3609 H   0  0  0  0  0  0  0  0  0  0  0  0
    0.0509    0.1597    0.4507 C   0  0  1  0  0  0  0  0  0  0  0  0
    0.6021    0.0407    1.3907 H   0  0  0  0  0  0  0  0  0  0  0  0
    0.7889   -0.5434   -0.7228 C   0  0  0  0  0  0  0  0  0  0  0  0
    0.1874   -0.4481   -1.6314 H   0  0  0  0  0  0  0  0  0  0  0  0
    1.7360   -0.0276   -0.9014 H   0  0  0  0  0  0  0  0  0  0  0  0
    1.1525   -2.0101   -0.5297 C   0  0  0  0  0  0  0  0  0  0  0  0
    1.3741   -2.4372    0.6258 O   0  5  0  0  0  0  0  0  0  0  0  0
    1.0693   -2.7331   -1.5521 O   0  0  0  0  0  0  0  0  0  0  0  0
   -0.0424    1.6668    0.0878 C   0  0  0  0  0  0  0  0  0  0  0  0
    0.9167    2.3193   -0.3107 O   0  0  0  0  0  0  0  0  0  0  0  0
   -1.2583    2.3159    0.2233 N   0  0  0  0  0  0  0  0  0  0  0  0
   -1.9784    1.7883    0.7102 H   0  0  0  0  0  0  0  0  0  0  0  0
   -1.4393    3.7467    0.0264 C   0  0  0  0  0  0  0  0  0  0  0  0
   -1.1481    4.0327   -0.9895 H   0  0  0  0  0  0  0  0  0  0  0  0
   -2.4897    4.0155    0.1721 H   0  0  0  0  0  0  0  0  0  0  0  0
   -0.8327    4.3111    0.7419 H   0  0  0  0  0  0  0  0  0  0  0  0
  1  2  1  0  0  0  0
  2  3  1  0  0  0  0
  2  4  1  0  0  0  0
  2  5  1  0  0  0  0
  5  6  2  0  0  0  0
  5  7  1  0  0  0  0
  7  8  1  0  0  0  0
  7  9  1  0  0  0  0
  9 10  1  0  0  0  0
  9 11  1  0  0  0  0
  9 17  1  0  0  0  0
 11 12  1  0  0  0  0
 11 13  1  0  0  0  0
 11 14  1  0  0  0  0
 14 15  1  0  0  0  0
 14 16  2  0  0  0  0
 17 18  2  0  0  0  0
 17 19  1  0  0  0  0
 19 20  1  0  0  0  0
 19 21  1  0  0  0  0
 21 22  1  0  0  0  0
 21 23  1  0  0  0  0
 21 24  1  0  0  0  0
M  CHG  1  15  -1
M  END
$$$$

  -OEChem-01062216073D

 24 23  0     1  0  0  0  0  0999 V2000
   -1.9400   -3.7089    0.9239 H   0  0  0  0  0  0  0  0  0  0  0  0
   -2.1367   -2.7703    0.3987 C   0  0  0  0  0  0  0  0  0  0  0  0
   -3.2154   -2.6186    0.3217 H   0  0  0  0  0  0  0  0  0  0  0  0
   -1.7111   -2.8447   -0.6056 H   0  0  0  0  0  0  0  0  0  0  0  0
   -1.4964   -1.6190    1.1533 C   0  0  0  0  0  0  0  0  0  0  0  0
   -1.4962   -1.6152    2.3754 O   0  0  0  0  0  0  0  0  0  0  0  0
   -1.3122   -0.3956    0.5466 N   0  0  0  0  0  0  0  0  0  0  0  0
   -1.7639   -0.3957   -0.3612 H   0  0  0  0  0  0  0  0  0  0  0  0
    0.0514    0.1623    0.4430 C   0  0  1  0  0  0  0  0  0  0  0  0
    0.5975    0.0410    1.3854 H   0  0  0  0  0  0  0  0  0  0  0  0
    0.7957   -0.5546   -0.7187 C   0  0  0  0  0  0  0  0  0  0  0  0
    0.2018   -0.4655   -1.6329 H   0  0  0  0  0  0  0  0  0  0  0  0
    1.7469   -0.0452   -0.8934 H   0  0  0  0  0  0  0  0  0  0  0  0
    1.1508   -2.0208   -0.5055 C   0  0  0  0  0  0  0  0  0  0  0  0
    1.3606   -2.4322    0.6583 O   0  5  0  0  0  0  0  0  0  0  0  0
    1.0764   -2.7580   -1.5183 O   0  0  0  0  0  0  0  0  0  0  0  0
   -0.0485    1.6732    0.0972 C   0  0  0  0  0  0  0  0  0  0  0  0
    0.7984    2.2845   -0.5463 O   0  0  0  0  0  0  0  0  0  0  0  0
   -1.1539    2.3766    0.5437 N   0  0  0  0  0  0  0  0  0  0  0  0
   -1.7827    1.8624    1.1566 H   0  0  0  0  0  0  0  0  0  0  0  0
   -1.3294    3.8122    0.3808 C   0  0  0  0  0  0  0  0  0  0  0  0
   -1.3117    4.0820   -0.6800 H   0  0  0  0  0  0  0  0  0  0  0  0
   -2.2912    4.1222    0.7996 H   0  0  0  0  0  0  0  0  0  0  0  0
   -0.5327    4.3559    0.8988 H   0  0  0  0  0  0  0  0  0  0  0  0
  1  2  1  0  0  0  0
  2  3  1  0  0  0  0
  2  4  1  0  0  0  0
  2  5  1  0  0  0  0
  5  6  2  0  0  0  0
  5  7  1  0  0  0  0
  7  8  1  0  0  0  0
  7  9  1  0  0  0  0
  9 10  1  0  0  0  0
  9 11  1  0  0  0  0
  9 17  1  0  0  0  0
 11 12  1  0  0  0  0
 11 13  1  0  0  0  0
 11 14  1  0  0  0  0
 14 15  1  0  0  0  0
 14 16  2  0  0  0  0
 17 18  2  0  0  0  0
 17 19  1  0  0  0  0
 19 20  1  0  0  0  0
 19 21  1  0  0  0  0
 21 22  1  0  0  0  0
 21 23  1  0  0  0  0
 21 24  1  0  0  0  0
M  CHG  1  15  -1
M  END
$$$$

  -OEChem-01062216073D

 24 23  0     1  0  0  0  0  0999 V2000
   -2.1676   -3.6445    0.9823 H   0  0  0  0  0  0  0  0  0  0  0  0
   -2.1770   -2.7283    0.3857 C   0  0  0  0  0  0  0  0  0  0  0  0
   -3.2109   -2.4516    0.1685 H   0  0  0  0  0  0  0  0  0  0  0  0
   -1.6519   -2.9238   -0.5532 H   0  0  0  0  0  0  0  0  0  0  0  0
   -1.4816   -1.6122    1.1442 C   0  0  0  0  0  0  0  0  0  0  0  0
   -1.4412   -1.6337    2.3657 O   0  0  0  0  0  0  0  0  0  0  0  0
   -1.2855   -0.3817    0.5570 N   0  0  0  0  0  0  0  0  0  0  0  0
   -1.7545   -0.3515   -0.3416 H   0  0  0  0  0  0  0  0  0  0  0  0
    0.0815    0.1615    0.4462 C   0  0  1  0  0  0  0  0  0  0  0  0
    0.6328    0.0277    1.3839 H   0  0  0  0  0  0  0  0  0  0  0  0
    0.8217   -0.5491   -0.7218 C   0  0  0  0  0  0  0  0  0  0  0  0
    0.2268   -0.4516   -1.6344 H   0  0  0  0  0  0  0  0  0  0  0  0
    1.7734   -0.0386   -0.8921 H   0  0  0  0  0  0  0  0  0  0  0  0
    1.1713   -2.0184   -0.5218 C   0  0  0  0  0  0  0  0  0  0  0  0
    1.3805   -2.4392    0.6386 O   0  5  0  0  0  0  0  0  0  0  0  0
    1.1034   -2.7466   -1.5414 O   0  0  0  0  0  0  0  0  0  0  0  0
   -0.0276    1.6765    0.1278 C   0  0  0  0  0  0  0  0  0  0  0  0
    0.6173    2.2511   -0.7437 O   0  0  0  0  0  0  0  0  0  0  0  0
   -0.9396    2.4191    0.8563 N   0  0  0  0  0  0  0  0  0  0  0  0
   -1.4626    1.9097    1.5654 H   0  0  0  0  0  0  0  0  0  0  0  0
   -1.1685    3.8453    0.6796 C   0  0  0  0  0  0  0  0  0  0  0  0
   -1.4979    4.0564   -0.3427 H   0  0  0  0  0  0  0  0  0  0  0  0
   -1.9438    4.1887    1.3709 H   0  0  0  0  0  0  0  0  0  0  0  0
   -0.2512    4.4077    0.8805 H   0  0  0  0  0  0  0  0  0  0  0  0
  1  2  1  0  0  0  0
  2  3  1  0  0  0  0
  2  4  1  0  0  0  0
  2  5  1  0  0  0  0
  5  6  2  0  0  0  0
  5  7  1  0  0  0  0
  7  8  1  0  0  0  0
  7  9  1  0  0  0  0
  9 10  1  0  0  0  0
  9 11  1  0  0  0  0
  9 17  1  0  0  0  0
 11 12  1  0  0  0  0
 11 13  1  0  0  0  0
 11 14  1  0  0  0  0
 14 15  1  0  0  0  0
 14 16  2  0  0  0  0
 17 18  2  0  0  0  0
 17 19  1  0  0  0  0
 19 20  1  0  0  0  0
 19 21  1  0  0  0  0
 21 22  1  0  0  0  0
 21 23  1  0  0  0  0
 21 24  1  0  0  0  0
M  CHG  1  15  -1
M  END
$$$$

  -OEChem-01062216073D

 24 23  0     1  0  0  0  0  0999 V2000
   -2.1951   -3.6241    0.9519 H   0  0  0  0  0  0  0  0  0  0  0  0
   -2.1962   -2.7016    0.3650 C   0  0  0  0  0  0  0  0  0  0  0  0
   -3.2273   -2.4128    0.1508 H   0  0  0  0  0  0  0  0  0  0  0  0
   -1.6726   -2.8917   -0.5760 H   0  0  0  0  0  0  0  0  0  0  0  0
   -1.4912   -1.5998    1.1355 C   0  0  0  0  0  0  0  0  0  0  0  0
   -1.4405   -1.6391    2.3563 O   0  0  0  0  0  0  0  0  0  0  0  0
   -1.2814   -0.3656    0.5614 N   0  0  0  0  0  0  0  0  0  0  0  0
   -1.7545   -0.3141   -0.3341 H   0  0  0  0  0  0  0  0  0  0  0  0
    0.0900    0.1615    0.4535 C   0  0  1  0  0  0  0  0  0  0  0  0
    0.6384    0.0144    1.3910 H   0  0  0  0  0  0  0  0  0  0  0  0
    0.8339   -0.5474   -0.7125 C   0  0  0  0  0  0  0  0  0  0  0  0
    0.2432   -0.4468   -1.6277 H   0  0  0  0  0  0  0  0  0  0  0  0
    1.7862   -0.0358   -0.8762 H   0  0  0  0  0  0  0  0  0  0  0  0
    1.1737   -2.0195   -0.5167 C   0  0  0  0  0  0  0  0  0  0  0  0
    1.3722   -2.4447    0.6441 O   0  5  0  0  0  0  0  0  0  0  0  0
    1.1222   -2.7430   -1.5405 O   0  0  0  0  0  0  0  0  0  0  0  0
   -0.0047    1.6786    0.1520 C   0  0  0  0  0  0  0  0  0  0  0  0
    0.3903    2.2052   -0.8840 O   0  0  0  0  0  0  0  0  0  0  0  0
   -0.6538    2.4716    1.0806 N   0  0  0  0  0  0  0  0  0  0  0  0
   -1.0482    1.9865    1.8836 H   0  0  0  0  0  0  0  0  0  0  0  0
   -0.9115    3.8931    0.9052 C   0  0  0  0  0  0  0  0  0  0  0  0
   -1.5563    4.0602    0.0365 H   0  0  0  0  0  0  0  0  0  0  0  0
   -1.4110    4.2958    1.7913 H   0  0  0  0  0  0  0  0  0  0  0  0
    0.0273    4.4373    0.7605 H   0  0  0  0  0  0  0  0  0  0  0  0
  1  2  1  0  0  0  0
  2  3  1  0  0  0  0
  2  4  1  0  0  0  0
  2  5  1  0  0  0  0
  5  6  2  0  0  0  0
  5  7  1  0  0  0  0
  7  8  1  0  0  0  0
  7  9  1  0  0  0  0
  9 10  1  0  0  0  0
  9 11  1  0  0  0  0
  9 17  1  0  0  0  0
 11 12  1  0  0  0  0
 11 13  1  0  0  0  0
 11 14  1  0  0  0  0
 14 15  1  0  0  0  0
 14 16  2  0  0  0  0
 17 18  2  0  0  0  0
 17 19  1  0  0  0  0
 19 20  1  0  0  0  0
 19 21  1  0  0  0  0
 21 22  1  0  0  0  0
 21 23  1  0  0  0  0
 21 24  1  0  0  0  0
M  CHG  1  15  -1
M  END
$$$$

  -OEChem-01062216073D

 24 23  0     1  0  0  0  0  0999 V2000
   -2.3025   -3.5785    0.9771 H   0  0  0  0  0  0  0  0  0  0  0  0
   -2.2238   -2.6762    0.3647 C   0  0  0  0  0  0  0  0  0  0  0  0
   -3.2262   -2.3391    0.0925 H   0  0  0  0  0  0  0  0  0  0  0  0
   -1.6681   -2.9235   -0.5441 H   0  0  0  0  0  0  0  0  0  0  0  0
   -1.4940   -1.5899    1.1343 C   0  0  0  0  0  0  0  0  0  0  0  0
   -1.4122   -1.6462    2.3529 O   0  0  0  0  0  0  0  0  0  0  0  0
   -1.2742   -0.3555    0.5648 N   0  0  0  0  0  0  0  0  0  0  0  0
   -1.7535   -0.2861   -0.3266 H   0  0  0  0  0  0  0  0  0  0  0  0
    0.0989    0.1617    0.4566 C   0  0  1  0  0  0  0  0  0  0  0  0
    0.6470    0.0049    1.3927 H   0  0  0  0  0  0  0  0  0  0  0  0
    0.8441   -0.5421   -0.7110 C   0  0  0  0  0  0  0  0  0  0  0  0
    0.2535   -0.4396   -1.6262 H   0  0  0  0  0  0  0  0  0  0  0  0
    1.7947   -0.0270   -0.8726 H   0  0  0  0  0  0  0  0  0  0  0  0
    1.1797   -2.0162   -0.5224 C   0  0  0  0  0  0  0  0  0  0  0  0
    1.3739   -2.4473    0.6370 O   0  5  0  0  0  0  0  0  0  0  0  0
    1.1419   -2.7331   -1.5514 O   0  0  0  0  0  0  0  0  0  0  0  0
    0.0191    1.6784    0.1609 C   0  0  0  0  0  0  0  0  0  0  0  0
    0.1234    2.1610   -0.9632 O   0  0  0  0  0  0  0  0  0  0  0  0
   -0.3241    2.5155    1.2066 N   0  0  0  0  0  0  0  0  0  0  0  0
   -0.5454    2.0590    2.0883 H   0  0  0  0  0  0  0  0  0  0  0  0
   -0.6046    3.9350    1.0516 C   0  0  0  0  0  0  0  0  0  0  0  0
   -1.4678    4.0846    0.3953 H   0  0  0  0  0  0  0  0  0  0  0  0
   -0.8268    4.3815    2.0251 H   0  0  0  0  0  0  0  0  0  0  0  0
    0.2607    4.4520    0.6243 H   0  0  0  0  0  0  0  0  0  0  0  0
  1  2  1  0  0  0  0
  2  3  1  0  0  0  0
  2  4  1  0  0  0  0
  2  5  1  0  0  0  0
  5  6  2  0  0  0  0
  5  7  1  0  0  0  0
  7  8  1  0  0  0  0
  7  9  1  0  0  0  0
  9 10  1  0  0  0  0
  9 11  1  0  0  0  0
  9 17  1  0  0  0  0
 11 12  1  0  0  0  0
 11 13  1  0  0  0  0
 11 14  1  0  0  0  0
 14 15  1  0  0  0  0
 14 16  2  0  0  0  0
 17 18  2  0  0  0  0
 17 19  1  0  0  0  0
 19 20  1  0  0  0  0
 19 21  1  0  0  0  0
 21 22  1  0  0  0  0
 21 23  1  0  0  0  0
 21 24  1  0  0  0  0
M  CHG  1  15  -1
M  END
$$$$

  -OEChem-01062216073D

 24 23  0     1  0  0  0  0  0999 V2000
   -2.3250   -3.5749    0.9715 H   0  0  0  0  0  0  0  0  0  0  0  0
   -2.2448   -2.6712    0.3614 C   0  0  0  0  0  0  0  0  0  0  0  0
   -3.2469   -2.3288    0.0939 H   0  0  0  0  0  0  0  0  0  0  0  0
   -1.6931   -2.9176   -0.5503 H   0  0  0  0  0  0  0  0  0  0  0  0
   -1.5077   -1.5899    1.1310 C   0  0  0  0  0  0  0  0  0  0  0  0
   -1.4016   -1.6601    2.3472 O   0  0  0  0  0  0  0  0  0  0  0  0
   -1.2831   -0.3563    0.5616 N   0  0  0  0  0  0  0  0  0  0  0  0
   -1.7611   -0.2768   -0.3299 H   0  0  0  0  0  0  0  0  0  0  0  0
    0.0889    0.1619    0.4640 C   0  0  1  0  0  0  0  0  0  0  0  0
    0.6295   -0.0008    1.4034 H   0  0  0  0  0  0  0  0  0  0  0  0
    0.8461   -0.5311   -0.7010 C   0  0  0  0  0  0  0  0  0  0  0  0
    0.2613   -0.4278   -1.6199 H   0  0  0  0  0  0  0  0  0  0  0  0
    1.7945   -0.0095   -0.8535 H   0  0  0  0  0  0  0  0  0  0  0  0
    1.1853   -2.0052   -0.5186 C   0  0  0  0  0  0  0  0  0  0  0  0
    1.3710   -2.4426    0.6396 O   0  5  0  0  0  0  0  0  0  0  0  0
    1.1733   -2.7136   -1.5538 O   0  0  0  0  0  0  0  0  0  0  0  0
    0.0245    1.6768    0.1646 C   0  0  0  0  0  0  0  0  0  0  0  0
   -0.1470    2.1251   -0.9657 O   0  0  0  0  0  0  0  0  0  0  0  0
   -0.0055    2.5526    1.2344 N   0  0  0  0  0  0  0  0  0  0  0  0
   -0.0199    2.1303    2.1592 H   0  0  0  0  0  0  0  0  0  0  0  0
   -0.2465    3.9820    1.1049 C   0  0  0  0  0  0  0  0  0  0  0  0
   -1.2431    4.1657    0.6909 H   0  0  0  0  0  0  0  0  0  0  0  0
   -0.1830    4.4627    2.0856 H   0  0  0  0  0  0  0  0  0  0  0  0
    0.5010    4.4384    0.4479 H   0  0  0  0  0  0  0  0  0  0  0  0
  1  2  1  0  0  0  0
  2  3  1  0  0  0  0
  2  4  1  0  0  0  0
  2  5  1  0  0  0  0
  5  6  2  0  0  0  0
  5  7  1  0  0  0  0
  7  8  1  0  0  0  0
  7  9  1  0  0  0  0
  9 10  1  0  0  0  0
  9 11  1  0  0  0  0
  9 17  1  0  0  0  0
 11 12  1  0  0  0  0
 11 13  1  0  0  0  0
 11 14  1  0  0  0  0
 14 15  1  0  0  0  0
 14 16  2  0  0  0  0
 17 18  2  0  0  0  0
 17 19  1  0  0  0  0
 19 20  1  0  0  0  0
 19 21  1  0  0  0  0
 21 22  1  0  0  0  0
 21 23  1  0  0  0  0
 21 24  1  0  0  0  0
M  CHG  1  15  -1
M  END
$$$$

  -OEChem-01062216073D

 24 23  0     1  0  0  0  0  0999 V2000
   -2.3682   -3.5654    0.9956 H   0  0  0  0  0  0  0  0  0  0  0  0
   -2.2598   -2.6738    0.3722 C   0  0  0  0  0  0  0  0  0  0  0  0
   -3.2500   -2.3184    0.0795 H   0  0  0  0  0  0  0  0  0  0  0  0
   -1.6951   -2.9447   -0.5244 H   0  0  0  0  0  0  0  0  0  0  0  0
   -1.5172   -1.5931    1.1371 C   0  0  0  0  0  0  0  0  0  0  0  0
   -1.3828   -1.6745    2.3498 O   0  0  0  0  0  0  0  0  0  0  0  0
   -1.2935   -0.3608    0.5646 N   0  0  0  0  0  0  0  0  0  0  0  0
   -1.7769   -0.2701   -0.3230 H   0  0  0  0  0  0  0  0  0  0  0  0
    0.0758    0.1636    0.4727 C   0  0  1  0  0  0  0  0  0  0  0  0
    0.6125   -0.0014    1.4138 H   0  0  0  0  0  0  0  0  0  0  0  0
    0.8408   -0.5135   -0.6956 C   0  0  0  0  0  0  0  0  0  0  0  0
    0.2581   -0.4046   -1.6151 H   0  0  0  0  0  0  0  0  0  0  0  0
    1.7866    0.0151   -0.8402 H   0  0  0  0  0  0  0  0  0  0  0  0
    1.1893   -1.9870   -0.5270 C   0  0  0  0  0  0  0  0  0  0  0  0
    1.3743   -2.4350    0.6271 O   0  5  0  0  0  0  0  0  0  0  0  0
    1.1995   -2.6821   -1.5713 O   0  0  0  0  0  0  0  0  0  0  0  0
    0.0182    1.6761    0.1665 C   0  0  0  0  0  0  0  0  0  0  0  0
   -0.4012    2.1069   -0.9048 O   0  0  0  0  0  0  0  0  0  0  0  0
    0.2967    2.5730    1.1816 N   0  0  0  0  0  0  0  0  0  0  0  0
    0.5070    2.1746    2.0926 H   0  0  0  0  0  0  0  0  0  0  0  0
    0.1198    4.0123    1.0610 C   0  0  0  0  0  0  0  0  0  0  0  0
   -0.9343    4.2550    0.8927 H   0  0  0  0  0  0  0  0  0  0  0  0
    0.4489    4.5085    1.9787 H   0  0  0  0  0  0  0  0  0  0  0  0
    0.7121    4.4018    0.2268 H   0  0  0  0  0  0  0  0  0  0  0  0
  1  2  1  0  0  0  0
  2  3  1  0  0  0  0
  2  4  1  0  0  0  0
  2  5  1  0  0  0  0
  5  6  2  0  0  0  0
  5  7  1  0  0  0  0
  7  8  1  0  0  0  0
  7  9  1  0  0  0  0
  9 10  1  0  0  0  0
  9 11  1  0  0  0  0
  9 17  1  0  0  0  0
 11 12  1  0  0  0  0
 11 13  1  0  0  0  0
 11 14  1  0  0  0  0
 14 15  1  0  0  0  0
 14 16  2  0  0  0  0
 17 18  2  0  0  0  0
 17 19  1  0  0  0  0
 19 20  1  0  0  0  0
 19 21  1  0  0  0  0
 21 22  1  0  0  0  0
 21 23  1  0  0  0  0
 21 24  1  0  0  0  0
M  CHG  1  15  -1
M  END
$$$$

  -OEChem-01062216073D

 24 23  0     1  0  0  0  0  0999 V2000
   -2.3797   -3.5717    1.0072 H   0  0  0  0  0  0  0  0  0  0  0  0
   -2.2861   -2.6740    0.3905 C   0  0  0  0  0  0  0  0  0  0  0  0
   -3.2831   -2.3114    0.1312 H   0  0  0  0  0  0  0  0  0  0  0  0
   -1.7487   -2.9366   -0.5250 H   0  0  0  0  0  0  0  0  0  0  0  0
   -1.5173   -1.6044    1.1443 C   0  0  0  0  0  0  0  0  0  0  0  0
   -1.3450   -1.7019    2.3509 O   0  0  0  0  0  0  0  0  0  0  0  0
   -1.2967   -0.3725    0.5696 N   0  0  0  0  0  0  0  0  0  0  0  0
   -1.7885   -0.2703   -0.3123 H   0  0  0  0  0  0  0  0  0  0  0  0
    0.0667    0.1672    0.4834 C   0  0  1  0  0  0  0  0  0  0  0  0
    0.6020    0.0035    1.4255 H   0  0  0  0  0  0  0  0  0  0  0  0
    0.8371   -0.4925   -0.6897 C   0  0  0  0  0  0  0  0  0  0  0  0
    0.2518   -0.3802   -1.6073 H   0  0  0  0  0  0  0  0  0  0  0  0
    1.7781    0.0455   -0.8310 H   0  0  0  0  0  0  0  0  0  0  0  0
    1.2001   -1.9637   -0.5344 C   0  0  0  0  0  0  0  0  0  0  0  0
    1.3906   -2.4212    0.6149 O   0  5  0  0  0  0  0  0  0  0  0  0
    1.2284   -2.6456   -1.5870 O   0  0  0  0  0  0  0  0  0  0  0  0
    0.0076    1.6774    0.1704 C   0  0  0  0  0  0  0  0  0  0  0  0
   -0.6137    2.1070   -0.7989 O   0  0  0  0  0  0  0  0  0  0  0  0
    0.5667    2.5761    1.0606 N   0  0  0  0  0  0  0  0  0  0  0  0
    0.9917    2.1862    1.8971 H   0  0  0  0  0  0  0  0  0  0  0  0
    0.4668    4.0212    0.9215 C   0  0  0  0  0  0  0  0  0  0  0  0
   -0.5806    4.3376    0.9573 H   0  0  0  0  0  0  0  0  0  0  0  0
    1.0065    4.5138    1.7357 H   0  0  0  0  0  0  0  0  0  0  0  0
    0.9036    4.3450   -0.0287 H   0  0  0  0  0  0  0  0  0  0  0  0
  1  2  1  0  0  0  0
  2  3  1  0  0  0  0
  2  4  1  0  0  0  0
  2  5  1  0  0  0  0
  5  6  2  0  0  0  0
  5  7  1  0  0  0  0
  7  8  1  0  0  0  0
  7  9  1  0  0  0  0
  9 10  1  0  0  0  0
  9 11  1  0  0  0  0
  9 17  1  0  0  0  0
 11 12  1  0  0  0  0
 11 13  1  0  0  0  0
 11 14  1  0  0  0  0
 14 15  1  0  0  0  0
 14 16  2  0  0  0  0
 17 18  2  0  0  0  0
 17 19  1  0  0  0  0
 19 20  1  0  0  0  0
 19 21  1  0  0  0  0
 21 22  1  0  0  0  0
 21 23  1  0  0  0  0
 21 24  1  0  0  0  0
M  CHG  1  15  -1
M  END
$$$$

  -OEChem-01062216073D

 24 23  0     1  0  0  0  0  0999 V2000
   -2.3964   -3.5825    1.0284 H   0  0  0  0  0  0  0  0  0  0  0  0
   -2.3047   -2.6849    0.4109 C   0  0  0  0  0  0  0  0  0  0  0  0
   -3.3029   -2.3139    0.1684 H   0  0  0  0  0  0  0  0  0  0  0  0
   -1.7843   -2.9509   -0.5135 H   0  0  0  0  0  0  0  0  0  0  0  0
   -1.5144   -1.6224    1.1529 C   0  0  0  0  0  0  0  0  0  0  0  0
   -1.3021   -1.7367    2.3516 O   0  0  0  0  0  0  0  0  0  0  0  0
   -1.3053   -0.3871    0.5809 N   0  0  0  0  0  0  0  0  0  0  0  0
   -1.8113   -0.2713   -0.2911 H   0  0  0  0  0  0  0  0  0  0  0  0
    0.0498    0.1749    0.4995 C   0  0  1  0  0  0  0  0  0  0  0  0
    0.5864    0.0122    1.4410 H   0  0  0  0  0  0  0  0  0  0  0  0
    0.8257   -0.4589   -0.6836 C   0  0  0  0  0  0  0  0  0  0  0  0
    0.2361   -0.3408   -1.5978 H   0  0  0  0  0  0  0  0  0  0  0  0
    1.7593    0.0934   -0.8202 H   0  0  0  0  0  0  0  0  0  0  0  0
    1.2121   -1.9260   -0.5520 C   0  0  0  0  0  0  0  0  0  0  0  0
    1.4145   -2.3991    0.5885 O   0  5  0  0  0  0  0  0  0  0  0  0
    1.2574   -2.5872   -1.6171 O   0  0  0  0  0  0  0  0  0  0  0  0
   -0.0153    1.6847    0.1869 C   0  0  0  0  0  0  0  0  0  0  0  0
   -0.7990    2.1313   -0.6480 O   0  0  0  0  0  0  0  0  0  0  0  0
    0.7866    2.5610    0.8952 N   0  0  0  0  0  0  0  0  0  0  0  0
    1.4066    2.1555    1.5906 H   0  0  0  0  0  0  0  0  0  0  0  0
    0.7819    4.0027    0.6982 C   0  0  0  0  0  0  0  0  0  0  0  0
   -0.2098    4.4149    0.9103 H   0  0  0  0  0  0  0  0  0  0  0  0
    1.5042    4.4754    1.3703 H   0  0  0  0  0  0  0  0  0  0  0  0
    1.0556    4.2482   -0.3330 H   0  0  0  0  0  0  0  0  0  0  0  0
  1  2  1  0  0  0  0
  2  3  1  0  0  0  0
  2  4  1  0  0  0  0
  2  5  1  0  0  0  0
  5  6  2  0  0  0  0
  5  7  1  0  0  0  0
  7  8  1  0  0  0  0
  7  9  1  0  0  0  0
  9 10  1  0  0  0  0
  9 11  1  0  0  0  0
  9 17  1  0  0  0  0
 11 12  1  0  0  0  0
 11 13  1  0  0  0  0
 11 14  1  0  0  0  0
 14 15  1  0  0  0  0
 14 16  2  0  0  0  0
 17 18  2  0  0  0  0
 17 19  1  0  0  0  0
 19 20  1  0  0  0  0
 19 21  1  0  0  0  0
 21 22  1  0  0  0  0
 21 23  1  0  0  0  0
 21 24  1  0  0  0  0
M  CHG  1  15  -1
M  END
$$$$

  -OEChem-01062216073D

 24 23  0     1  0  0  0  0  0999 V2000
   -2.4336   -3.5730    1.0566 H   0  0  0  0  0  0  0  0  0  0  0  0
   -2.3139   -2.6859    0.4289 C   0  0  0  0  0  0  0  0  0  0  0  0
   -3.3005   -2.2941    0.1718 H   0  0  0  0  0  0  0  0  0  0  0  0
   -1.7913   -2.9757   -0.4871 H   0  0  0  0  0  0  0  0  0  0  0  0
   -1.5051   -1.6331    1.1648 C   0  0  0  0  0  0  0  0  0  0  0  0
   -1.2594   -1.7652    2.3551 O   0  0  0  0  0  0  0  0  0  0  0  0
   -1.3034   -0.3941    0.5982 N   0  0  0  0  0  0  0  0  0  0  0  0
   -1.8268   -0.2620   -0.2608 H   0  0  0  0  0  0  0  0  0  0  0  0
    0.0452    0.1843    0.5160 C   0  0  1  0  0  0  0  0  0  0  0  0
    0.5895    0.0194    1.4526 H   0  0  0  0  0  0  0  0  0  0  0  0
    0.8121   -0.4326   -0.6825 C   0  0  0  0  0  0  0  0  0  0  0  0
    0.2109   -0.3079   -1.5883 H   0  0  0  0  0  0  0  0  0  0  0  0
    1.7412    0.1252   -0.8256 H   0  0  0  0  0  0  0  0  0  0  0  0
    1.2115   -1.8980   -0.5739 C   0  0  0  0  0  0  0  0  0  0  0  0
    1.4316   -2.3846    0.5574 O   0  5  0  0  0  0  0  0  0  0  0  0
    1.2560   -2.5423   -1.6494 O   0  0  0  0  0  0  0  0  0  0  0  0
   -0.0235    1.6959    0.2086 C   0  0  0  0  0  0  0  0  0  0  0  0
   -0.9404    2.1747   -0.4556 O   0  0  0  0  0  0  0  0  0  0  0  0
    0.9736    2.5307    0.6798 N   0  0  0  0  0  0  0  0  0  0  0  0
    1.7321    2.0929    1.1950 H   0  0  0  0  0  0  0  0  0  0  0  0
    1.0269    3.9598    0.4115 C   0  0  0  0  0  0  0  0  0  0  0  0
    0.1271    4.4543    0.7912 H   0  0  0  0  0  0  0  0  0  0  0  0
    1.8979    4.4017    0.9041 H   0  0  0  0  0  0  0  0  0  0  0  0
    1.1063    4.1436   -0.6648 H   0  0  0  0  0  0  0  0  0  0  0  0
  1  2  1  0  0  0  0
  2  3  1  0  0  0  0
  2  4  1  0  0  0  0
  2  5  1  0  0  0  0
  5  6  2  0  0  0  0
  5  7  1  0  0  0  0
  7  8  1  0  0  0  0
  7  9  1  0  0  0  0
  9 10  1  0  0  0  0
  9 11  1  0  0  0  0
  9 17  1  0  0  0  0
 11 12  1  0  0  0  0
 11 13  1  0  0  0  0
 11 14  1  0  0  0  0
 14 15  1  0  0  0  0
 14 16  2  0  0  0  0
 17 18  2  0  0  0  0
 17 19  1  0  0  0  0
 19 20  1  0  0  0  0
 19 21  1  0  0  0  0
 21 22  1  0  0  0  0
 21 23  1  0  0  0  0
 21 24  1  0  0  0  0
M  CHG  1  15  -1
M  END
$$$$

  -OEChem-01062216073D

 24 23  0     1  0  0  0  0  0999 V2000
   -2.4203   -3.5798    1.0536 H   0  0  0  0  0  0  0  0  0  0  0  0
   -2.3232   -2.6796    0.4406 C   0  0  0  0  0  0  0  0  0  0  0  0
   -3.3184   -2.2849    0.2248 H   0  0  0  0  0  0  0  0  0  0  0  0
   -1.8305   -2.9495   -0.4978 H   0  0  0  0  0  0  0  0  0  0  0  0
   -1.4920   -1.6400    1.1702 C   0  0  0  0  0  0  0  0  0  0  0  0
   -1.2175   -1.7909    2.3519 O   0  0  0  0  0  0  0  0  0  0  0  0
   -1.2937   -0.3970    0.6106 N   0  0  0  0  0  0  0  0  0  0  0  0
   -1.8310   -0.2495   -0.2368 H   0  0  0  0  0  0  0  0  0  0  0  0
    0.0510    0.1930    0.5322 C   0  0  1  0  0  0  0  0  0  0  0  0
    0.6017    0.0230    1.4641 H   0  0  0  0  0  0  0  0  0  0  0  0
    0.8051   -0.4155   -0.6812 C   0  0  0  0  0  0  0  0  0  0  0  0
    0.1919   -0.2828   -1.5776 H   0  0  0  0  0  0  0  0  0  0  0  0
    1.7339    0.1399   -0.8343 H   0  0  0  0  0  0  0  0  0  0  0  0
    1.2083   -1.8813   -0.5936 C   0  0  0  0  0  0  0  0  0  0  0  0
    1.4437   -2.3813    0.5283 O   0  5  0  0  0  0  0  0  0  0  0  0
    1.2482   -2.5097   -1.6786 O   0  0  0  0  0  0  0  0  0  0  0  0
   -0.0169    1.7079    0.2315 C   0  0  0  0  0  0  0  0  0  0  0  0
   -1.0260    2.2271   -0.2408 O   0  0  0  0  0  0  0  0  0  0  0  0
    1.1073    2.4901    0.4282 N   0  0  0  0  0  0  0  0  0  0  0  0
    1.9437    2.0130    0.7531 H   0  0  0  0  0  0  0  0  0  0  0  0
    1.1831    3.9011    0.0814 C   0  0  0  0  0  0  0  0  0  0  0  0
    0.4172    4.4691    0.6191 H   0  0  0  0  0  0  0  0  0  0  0  0
    2.1644    4.3013    0.3528 H   0  0  0  0  0  0  0  0  0  0  0  0
    1.0374    4.0385   -0.9948 H   0  0  0  0  0  0  0  0  0  0  0  0
  1  2  1  0  0  0  0
  2  3  1  0  0  0  0
  2  4  1  0  0  0  0
  2  5  1  0  0  0  0
  5  6  2  0  0  0  0
  5  7  1  0  0  0  0
  7  8  1  0  0  0  0
  7  9  1  0  0  0  0
  9 10  1  0  0  0  0
  9 11  1  0  0  0  0
  9 17  1  0  0  0  0
 11 12  1  0  0  0  0
 11 13  1  0  0  0  0
 11 14  1  0  0  0  0
 14 15  1  0  0  0  0
 14 16  2  0  0  0  0
 17 18  2  0  0  0  0
 17 19  1  0  0  0  0
 19 20  1  0  0  0  0
 19 21  1  0  0  0  0
 21 22  1  0  0  0  0
 21 23  1  0  0  0  0
 21 24  1  0  0  0  0
M  CHG  1  15  -1
M  END
$$$$

  -OEChem-01062216073D

 24 23  0     1  0  0  0  0  0999 V2000
   -2.4707   -3.5806    1.0165 H   0  0  0  0  0  0  0  0  0  0  0  0
   -2.3988   -2.6669    0.4203 C   0  0  0  0  0  0  0  0  0  0  0  0
   -3.3939   -2.2279    0.3192 H   0  0  0  0  0  0  0  0  0  0  0  0
   -2.0161   -2.9261   -0.5709 H   0  0  0  0  0  0  0  0  0  0  0  0
   -1.4566   -1.6817    1.0878 C   0  0  0  0  0  0  0  0  0  0  0  0
   -1.0265   -1.9112    2.2096 O   0  0  0  0  0  0  0  0  0  0  0  0
   -1.2651   -0.4349    0.5312 N   0  0  0  0  0  0  0  0  0  0  0  0
   -1.8082   -0.2745   -0.3089 H   0  0  0  0  0  0  0  0  0  0  0  0
    0.0690    0.1823    0.5070 C   0  0  1  0  0  0  0  0  0  0  0  0
    0.6957   -0.1874    1.3266 H   0  0  0  0  0  0  0  0  0  0  0  0
    0.6918   -0.1656   -0.8712 C   0  0  0  0  0  0  0  0  0  0  0  0
    0.0047    0.1491   -1.6625 H   0  0  0  0  0  0  0  0  0  0  0  0
    1.6195    0.3962   -0.9999 H   0  0  0  0  0  0  0  0  0  0  0  0
    1.0600   -1.6260   -1.1000 C   0  0  0  0  0  0  0  0  0  0  0  0
    1.3808   -2.3364   -0.1214 O   0  5  0  0  0  0  0  0  0  0  0  0
    0.9814   -2.0340   -2.2836 O   0  0  0  0  0  0  0  0  0  0  0  0
    0.0042    1.7287    0.5713 C   0  0  0  0  0  0  0  0  0  0  0  0
   -1.0623    2.3380    0.5382 O   0  0  0  0  0  0  0  0  0  0  0  0
    1.1776    2.4634    0.5603 N   0  0  0  0  0  0  0  0  0  0  0  0
    2.0450    1.9355    0.5195 H   0  0  0  0  0  0  0  0  0  0  0  0
    1.2265    3.9171    0.5110 C   0  0  0  0  0  0  0  0  0  0  0  0
    0.6987    4.3470    1.3684 H   0  0  0  0  0  0  0  0  0  0  0  0
    2.2655    4.2583    0.5383 H   0  0  0  0  0  0  0  0  0  0  0  0
    0.7645    4.2842   -0.4111 H   0  0  0  0  0  0  0  0  0  0  0  0
  1  2  1  0  0  0  0
  2  3  1  0  0  0  0
  2  4  1  0  0  0  0
  2  5  1  0  0  0  0
  5  6  2  0  0  0  0
  5  7  1  0  0  0  0
  7  8  1  0  0  0  0
  7  9  1  0  0  0  0
  9 10  1  0  0  0  0
  9 11  1  0  0  0  0
  9 17  1  0  0  0  0
 11 12  1  0  0  0  0
 11 13  1  0  0  0  0
 11 14  1  0  0  0  0
 14 15  1  0  0  0  0
 14 16  2  0  0  0  0
 17 18  2  0  0  0  0
 17 19  1  0  0  0  0
 19 20  1  0  0  0  0
 19 21  1  0  0  0  0
 21 22  1  0  0  0  0
 21 23  1  0  0  0  0
 21 24  1  0  0  0  0
M  CHG  1  15  -1
M  END
$$$$

  -OEChem-01062216073D

 24 23  0     1  0  0  0  0  0999 V2000
   -2.4687   -3.5675    1.0263 H   0  0  0  0  0  0  0  0  0  0  0  0
   -2.3973   -2.6536    0.4304 C   0  0  0  0  0  0  0  0  0  0  0  0
   -3.3905   -2.2082    0.3401 H   0  0  0  0  0  0  0  0  0  0  0  0
   -2.0265   -2.9140   -0.5649 H   0  0  0  0  0  0  0  0  0  0  0  0
   -1.4413   -1.6758    1.0891 C   0  0  0  0  0  0  0  0  0  0  0  0
   -0.9969   -1.9129    2.2034 O   0  0  0  0  0  0  0  0  0  0  0  0
   -1.2469   -0.4297    0.5312 N   0  0  0  0  0  0  0  0  0  0  0  0
   -1.7972   -0.2677   -0.3033 H   0  0  0  0  0  0  0  0  0  0  0  0
    0.0914    0.1801    0.4985 C   0  0  1  0  0  0  0  0  0  0  0  0
    0.7239   -0.1891    1.3140 H   0  0  0  0  0  0  0  0  0  0  0  0
    0.6943   -0.1897   -0.8865 C   0  0  0  0  0  0  0  0  0  0  0  0
    0.0036    0.1292   -1.6730 H   0  0  0  0  0  0  0  0  0  0  0  0
    1.6314    0.3511   -1.0318 H   0  0  0  0  0  0  0  0  0  0  0  0
    1.0466   -1.6547   -1.1111 C   0  0  0  0  0  0  0  0  0  0  0  0
    1.3747   -2.3650   -0.1354 O   0  5  0  0  0  0  0  0  0  0  0  0
    0.9489   -2.0647   -2.2927 O   0  0  0  0  0  0  0  0  0  0  0  0
    0.0259    1.7312    0.5644 C   0  0  0  0  0  0  0  0  0  0  0  0
   -1.0218    2.3258    0.8043 O   0  0  0  0  0  0  0  0  0  0  0  0
    1.1354    2.4956    0.2416 N   0  0  0  0  0  0  0  0  0  0  0  0
    1.9775    1.9886   -0.0154 H   0  0  0  0  0  0  0  0  0  0  0  0
    1.1372    3.9500    0.1828 C   0  0  0  0  0  0  0  0  0  0  0  0
    0.8592    4.3726    1.1536 H   0  0  0  0  0  0  0  0  0  0  0  0
    2.1353    4.3134   -0.0790 H   0  0  0  0  0  0  0  0  0  0  0  0
    0.4300    4.3029   -0.5746 H   0  0  0  0  0  0  0  0  0  0  0  0
  1  2  1  0  0  0  0
  2  3  1  0  0  0  0
  2  4  1  0  0  0  0
  2  5  1  0  0  0  0
  5  6  2  0  0  0  0
  5  7  1  0  0  0  0
  7  8  1  0  0  0  0
  7  9  1  0  0  0  0
  9 10  1  0  0  0  0
  9 11  1  0  0  0  0
  9 17  1  0  0  0  0
 11 12  1  0  0  0  0
 11 13  1  0  0  0  0
 11 14  1  0  0  0  0
 14 15  1  0  0  0  0
 14 16  2  0  0  0  0
 17 18  2  0  0  0  0
 17 19  1  0  0  0  0
 19 20  1  0  0  0  0
 19 21  1  0  0  0  0
 21 22  1  0  0  0  0
 21 23  1  0  0  0  0
 21 24  1  0  0  0  0
M  CHG  1  15  -1
M  END
$$$$

  -OEChem-01062216073D

 24 23  0     1  0  0  0  0  0999 V2000
   -2.4720   -3.5493    1.0432 H   0  0  0  0  0  0  0  0  0  0  0  0
   -2.3982   -2.6378    0.4438 C   0  0  0  0  0  0  0  0  0  0  0  0
   -3.3886   -2.1850    0.3603 H   0  0  0  0  0  0  0  0  0  0  0  0
   -2.0374   -2.9047   -0.5534 H   0  0  0  0  0  0  0  0  0  0  0  0
   -1.4303   -1.6643    1.0916 C   0  0  0  0  0  0  0  0  0  0  0  0
   -0.9813   -1.9005    2.2040 O   0  0  0  0  0  0  0  0  0  0  0  0
   -1.2324   -0.4225    0.5245 N   0  0  0  0  0  0  0  0  0  0  0  0
   -1.7846   -0.2721   -0.3104 H   0  0  0  0  0  0  0  0  0  0  0  0
    0.1111    0.1761    0.4756 C   0  0  1  0  0  0  0  0  0  0  0  0
    0.7467   -0.1860    1.2919 H   0  0  0  0  0  0  0  0  0  0  0  0
    0.7040   -0.2240   -0.9064 C   0  0  0  0  0  0  0  0  0  0  0  0
    0.0166    0.0920   -1.6967 H   0  0  0  0  0  0  0  0  0  0  0  0
    1.6503    0.2972   -1.0595 H   0  0  0  0  0  0  0  0  0  0  0  0
    1.0436   -1.6947   -1.1113 C   0  0  0  0  0  0  0  0  0  0  0  0
    1.3718   -2.3956   -0.1296 O   0  5  0  0  0  0  0  0  0  0  0  0
    0.9343   -2.1176   -2.2873 O   0  0  0  0  0  0  0  0  0  0  0  0
    0.0411    1.7302    0.5351 C   0  0  0  0  0  0  0  0  0  0  0  0
   -0.9104    2.3090    1.0517 O   0  0  0  0  0  0  0  0  0  0  0  0
    1.0004    2.5223   -0.0763 N   0  0  0  0  0  0  0  0  0  0  0  0
    1.7615    2.0373   -0.5424 H   0  0  0  0  0  0  0  0  0  0  0  0
    0.9620    3.9773   -0.1088 C   0  0  0  0  0  0  0  0  0  0  0  0
    0.9578    4.3823    0.9083 H   0  0  0  0  0  0  0  0  0  0  0  0
    1.8419    4.3640   -0.6312 H   0  0  0  0  0  0  0  0  0  0  0  0
    0.0664    4.3250   -0.6336 H   0  0  0  0  0  0  0  0  0  0  0  0
  1  2  1  0  0  0  0
  2  3  1  0  0  0  0
  2  4  1  0  0  0  0
  2  5  1  0  0  0  0
  5  6  2  0  0  0  0
  5  7  1  0  0  0  0
  7  8  1  0  0  0  0
  7  9  1  0  0  0  0
  9 10  1  0  0  0  0
  9 11  1  0  0  0  0
  9 17  1  0  0  0  0
 11 12  1  0  0  0  0
 11 13  1  0  0  0  0
 11 14  1  0  0  0  0
 14 15  1  0  0  0  0
 14 16  2  0  0  0  0
 17 18  2  0  0  0  0
 17 19  1  0  0  0  0
 19 20  1  0  0  0  0
 19 21  1  0  0  0  0
 21 22  1  0  0  0  0
 21 23  1  0  0  0  0
 21 24  1  0  0  0  0
M  CHG  1  15  -1
M  END
$$$$

  -OEChem-01062216073D

 24 23  0     1  0  0  0  0  0999 V2000
   -2.4486   -3.5451    1.0605 H   0  0  0  0  0  0  0  0  0  0  0  0
   -2.3729   -2.6426    0.4480 C   0  0  0  0  0  0  0  0  0  0  0  0
   -3.3669   -2.2049    0.3337 H   0  0  0  0  0  0  0  0  0  0  0  0
   -1.9854   -2.9213   -0.5359 H   0  0  0  0  0  0  0  0  0  0  0  0
   -1.4330   -1.6456    1.1014 C   0  0  0  0  0  0  0  0  0  0  0  0
   -1.0014   -1.8614    2.2245 O   0  0  0  0  0  0  0  0  0  0  0  0
   -1.2401   -0.4087    0.5210 N   0  0  0  0  0  0  0  0  0  0  0  0
   -1.7835   -0.2843   -0.3237 H   0  0  0  0  0  0  0  0  0  0  0  0
    0.1084    0.1772    0.4569 C   0  0  1  0  0  0  0  0  0  0  0  0
    0.7442   -0.1765    1.2768 H   0  0  0  0  0  0  0  0  0  0  0  0
    0.7006   -0.2464   -0.9182 C   0  0  0  0  0  0  0  0  0  0  0  0
    0.0193    0.0646   -1.7161 H   0  0  0  0  0  0  0  0  0  0  0  0
    1.6535    0.2650   -1.0679 H   0  0  0  0  0  0  0  0  0  0  0  0
    1.0310   -1.7219   -1.1031 C   0  0  0  0  0  0  0  0  0  0  0  0
    1.3536   -2.4146   -0.1141 O   0  5  0  0  0  0  0  0  0  0  0  0
    0.9098   -2.1582   -2.2730 O   0  0  0  0  0  0  0  0  0  0  0  0
    0.0372    1.7323    0.5066 C   0  0  0  0  0  0  0  0  0  0  0  0
   -0.7394    2.3073    1.2626 O   0  0  0  0  0  0  0  0  0  0  0  0
    0.7838    2.5305   -0.3470 N   0  0  0  0  0  0  0  0  0  0  0  0
    1.3993    2.0501   -0.9968 H   0  0  0  0  0  0  0  0  0  0  0  0
    0.7357    3.9856   -0.3610 C   0  0  0  0  0  0  0  0  0  0  0  0
    1.0211    4.3869    0.6167 H   0  0  0  0  0  0  0  0  0  0  0  0
    1.4298    4.3761   -1.1109 H   0  0  0  0  0  0  0  0  0  0  0  0
   -0.2726    4.3335   -0.6074 H   0  0  0  0  0  0  0  0  0  0  0  0
  1  2  1  0  0  0  0
  2  3  1  0  0  0  0
  2  4  1  0  0  0  0
  2  5  1  0  0  0  0
  5  6  2  0  0  0  0
  5  7  1  0  0  0  0
  7  8  1  0  0  0  0
  7  9  1  0  0  0  0
  9 10  1  0  0  0  0
  9 11  1  0  0  0  0
  9 17  1  0  0  0  0
 11 12  1  0  0  0  0
 11 13  1  0  0  0  0
 11 14  1  0  0  0  0
 14 15  1  0  0  0  0
 14 16  2  0  0  0  0
 17 18  2  0  0  0  0
 17 19  1  0  0  0  0
 19 20  1  0  0  0  0
 19 21  1  0  0  0  0
 21 22  1  0  0  0  0
 21 23  1  0  0  0  0
 21 24  1  0  0  0  0
M  CHG  1  15  -1
M  END
$$$$

  -OEChem-01062216073D

 24 23  0     1  0  0  0  0  0999 V2000
   -2.4360   -3.5477    1.0771 H   0  0  0  0  0  0  0  0  0  0  0  0
   -2.3616   -2.6508    0.4561 C   0  0  0  0  0  0  0  0  0  0  0  0
   -3.3582   -2.2226    0.3280 H   0  0  0  0  0  0  0  0  0  0  0  0
   -1.9619   -2.9363   -0.5209 H   0  0  0  0  0  0  0  0  0  0  0  0
   -1.4355   -1.6404    1.1086 C   0  0  0  0  0  0  0  0  0  0  0  0
   -1.0130   -1.8429    2.2374 O   0  0  0  0  0  0  0  0  0  0  0  0
   -1.2480   -0.4065    0.5190 N   0  0  0  0  0  0  0  0  0  0  0  0
   -1.7818   -0.3046   -0.3348 H   0  0  0  0  0  0  0  0  0  0  0  0
    0.1017    0.1758    0.4486 C   0  0  1  0  0  0  0  0  0  0  0  0
    0.7373   -0.1719    1.2715 H   0  0  0  0  0  0  0  0  0  0  0  0
    0.6986   -0.2538   -0.9216 C   0  0  0  0  0  0  0  0  0  0  0  0
    0.0181    0.0483   -1.7236 H   0  0  0  0  0  0  0  0  0  0  0  0
    1.6485    0.2662   -1.0668 H   0  0  0  0  0  0  0  0  0  0  0  0
    1.0311   -1.7292   -1.1010 C   0  0  0  0  0  0  0  0  0  0  0  0
    1.3511   -2.4207   -0.1104 O   0  5  0  0  0  0  0  0  0  0  0  0
    0.9040   -2.1685   -2.2692 O   0  0  0  0  0  0  0  0  0  0  0  0
    0.0271    1.7301    0.4898 C   0  0  0  0  0  0  0  0  0  0  0  0
   -0.5310    2.3101    1.4148 O   0  0  0  0  0  0  0  0  0  0  0  0
    0.5154    2.5178   -0.5424 N   0  0  0  0  0  0  0  0  0  0  0  0
    0.9662    2.0300   -1.3114 H   0  0  0  0  0  0  0  0  0  0  0  0
    0.4536    3.9723   -0.5633 C   0  0  0  0  0  0  0  0  0  0  0  0
    0.9985    4.3906    0.2890 H   0  0  0  0  0  0  0  0  0  0  0  0
    0.9056    4.3536   -1.4836 H   0  0  0  0  0  0  0  0  0  0  0  0
   -0.5862    4.3122   -0.5217 H   0  0  0  0  0  0  0  0  0  0  0  0
  1  2  1  0  0  0  0
  2  3  1  0  0  0  0
  2  4  1  0  0  0  0
  2  5  1  0  0  0  0
  5  6  2  0  0  0  0
  5  7  1  0  0  0  0
  7  8  1  0  0  0  0
  7  9  1  0  0  0  0
  9 10  1  0  0  0  0
  9 11  1  0  0  0  0
  9 17  1  0  0  0  0
 11 12  1  0  0  0  0
 11 13  1  0  0  0  0
 11 14  1  0  0  0  0
 14 15  1  0  0  0  0
 14 16  2  0  0  0  0
 17 18  2  0  0  0  0
 17 19  1  0  0  0  0
 19 20  1  0  0  0  0
 19 21  1  0  0  0  0
 21 22  1  0  0  0  0
 21 23  1  0  0  0  0
 21 24  1  0  0  0  0
M  CHG  1  15  -1
M  END
$$$$

  -OEChem-01062216073D

 24 23  0     1  0  0  0  0  0999 V2000
   -2.4030   -3.5716    1.0911 H   0  0  0  0  0  0  0  0  0  0  0  0
   -2.3342   -2.6808    0.4608 C   0  0  0  0  0  0  0  0  0  0  0  0
   -3.3360   -2.2726    0.3103 H   0  0  0  0  0  0  0  0  0  0  0  0
   -1.9126   -2.9704   -0.5059 H   0  0  0  0  0  0  0  0  0  0  0  0
   -1.4392   -1.6450    1.1174 C   0  0  0  0  0  0  0  0  0  0  0  0
   -1.0373   -1.8229    2.2574 O   0  0  0  0  0  0  0  0  0  0  0  0
   -1.2681   -0.4133    0.5182 N   0  0  0  0  0  0  0  0  0  0  0  0
   -1.7929   -0.3366   -0.3440 H   0  0  0  0  0  0  0  0  0  0  0  0
    0.0764    0.1797    0.4437 C   0  0  1  0  0  0  0  0  0  0  0  0
    0.7147   -0.1574    1.2691 H   0  0  0  0  0  0  0  0  0  0  0  0
    0.6787   -0.2496   -0.9234 C   0  0  0  0  0  0  0  0  0  0  0  0
   -0.0091    0.0313   -1.7267 H   0  0  0  0  0  0  0  0  0  0  0  0
    1.6163    0.2920   -1.0739 H   0  0  0  0  0  0  0  0  0  0  0  0
    1.0251   -1.7229   -1.0938 C   0  0  0  0  0  0  0  0  0  0  0  0
    1.3501   -2.4065   -0.0994 O   0  5  0  0  0  0  0  0  0  0  0  0
    0.8897   -2.1720   -2.2574 O   0  0  0  0  0  0  0  0  0  0  0  0
   -0.0085    1.7313    0.4741 C   0  0  0  0  0  0  0  0  0  0  0  0
   -0.3079    2.3256    1.5034 O   0  0  0  0  0  0  0  0  0  0  0  0
    0.1853    2.4953   -0.6674 N   0  0  0  0  0  0  0  0  0  0  0  0
    0.4806    1.9948   -1.5010 H   0  0  0  0  0  0  0  0  0  0  0  0
    0.1549    3.9505   -0.6889 C   0  0  0  0  0  0  0  0  0  0  0  0
    0.9384    4.3580   -0.0421 H   0  0  0  0  0  0  0  0  0  0  0  0
    0.3215    4.3141   -1.7070 H   0  0  0  0  0  0  0  0  0  0  0  0
   -0.8170    4.3190   -0.3452 H   0  0  0  0  0  0  0  0  0  0  0  0
  1  2  1  0  0  0  0
  2  3  1  0  0  0  0
  2  4  1  0  0  0  0
  2  5  1  0  0  0  0
  5  6  2  0  0  0  0
  5  7  1  0  0  0  0
  7  8  1  0  0  0  0
  7  9  1  0  0  0  0
  9 10  1  0  0  0  0
  9 11  1  0  0  0  0
  9 17  1  0  0  0  0
 11 12  1  0  0  0  0
 11 13  1  0  0  0  0
 11 14  1  0  0  0  0
 14 15  1  0  0  0  0
 14 16  2  0  0  0  0
 17 18  2  0  0  0  0
 17 19  1  0  0  0  0
 19 20  1  0  0  0  0
 19 21  1  0  0  0  0
 21 22  1  0  0  0  0
 21 23  1  0  0  0  0
 21 24  1  0  0  0  0
M  CHG  1  15  -1
M  END
$$$$

  -OEChem-01062216073D

 24 23  0     1  0  0  0  0  0999 V2000
   -2.3528   -3.6022    1.0827 H   0  0  0  0  0  0  0  0  0  0  0  0
   -2.3045   -2.7075    0.4561 C   0  0  0  0  0  0  0  0  0  0  0  0
   -3.3168   -2.3318    0.2927 H   0  0  0  0  0  0  0  0  0  0  0  0
   -1.8605   -2.9807   -0.5054 H   0  0  0  0  0  0  0  0  0  0  0  0
   -1.4512   -1.6467    1.1281 C   0  0  0  0  0  0  0  0  0  0  0  0
   -1.0805   -1.8040    2.2816 O   0  0  0  0  0  0  0  0  0  0  0  0
   -1.2885   -0.4160    0.5244 N   0  0  0  0  0  0  0  0  0  0  0  0
   -1.7983   -0.3599   -0.3483 H   0  0  0  0  0  0  0  0  0  0  0  0
    0.0558    0.1781    0.4529 C   0  0  1  0  0  0  0  0  0  0  0  0
    0.6937   -0.1600    1.2786 H   0  0  0  0  0  0  0  0  0  0  0  0
    0.6597   -0.2432   -0.9150 C   0  0  0  0  0  0  0  0  0  0  0  0
   -0.0304    0.0315   -1.7180 H   0  0  0  0  0  0  0  0  0  0  0  0
    1.5912    0.3092   -1.0657 H   0  0  0  0  0  0  0  0  0  0  0  0
    1.0069   -1.7162   -1.0890 C   0  0  0  0  0  0  0  0  0  0  0  0
    1.3306   -2.4025   -0.0960 O   0  5  0  0  0  0  0  0  0  0  0  0
    0.8553   -2.1660   -2.2506 O   0  0  0  0  0  0  0  0  0  0  0  0
   -0.0263    1.7277    0.4786 C   0  0  0  0  0  0  0  0  0  0  0  0
   -0.0459    2.3420    1.5388 O   0  0  0  0  0  0  0  0  0  0  0  0
   -0.1345    2.4629   -0.6927 N   0  0  0  0  0  0  0  0  0  0  0  0
   -0.0206    1.9466   -1.5601 H   0  0  0  0  0  0  0  0  0  0  0  0
   -0.1685    3.9176   -0.7366 C   0  0  0  0  0  0  0  0  0  0  0  0
    0.7606    4.3342   -0.3347 H   0  0  0  0  0  0  0  0  0  0  0  0
   -0.2843    4.2588   -1.7695 H   0  0  0  0  0  0  0  0  0  0  0  0
   -1.0113    4.2988   -0.1511 H   0  0  0  0  0  0  0  0  0  0  0  0
  1  2  1  0  0  0  0
  2  3  1  0  0  0  0
  2  4  1  0  0  0  0
  2  5  1  0  0  0  0
  5  6  2  0  0  0  0
  5  7  1  0  0  0  0
  7  8  1  0  0  0  0
  7  9  1  0  0  0  0
  9 10  1  0  0  0  0
  9 11  1  0  0  0  0
  9 17  1  0  0  0  0
 11 12  1  0  0  0  0
 11 13  1  0  0  0  0
 11 14  1  0  0  0  0
 14 15  1  0  0  0  0
 14 16  2  0  0  0  0
 17 18  2  0  0  0  0
 17 19  1  0  0  0  0
 19 20  1  0  0  0  0
 19 21  1  0  0  0  0
 21 22  1  0  0  0  0
 21 23  1  0  0  0  0
 21 24  1  0  0  0  0
M  CHG  1  15  -1
M  END
$$$$

  -OEChem-01062216073D

 24 23  0     1  0  0  0  0  0999 V2000
   -2.3136   -3.6375    1.0719 H   0  0  0  0  0  0  0  0  0  0  0  0
   -2.2885   -2.7350    0.4550 C   0  0  0  0  0  0  0  0  0  0  0  0
   -3.3097   -2.3792    0.3010 H   0  0  0  0  0  0  0  0  0  0  0  0
   -1.8443   -2.9881   -0.5119 H   0  0  0  0  0  0  0  0  0  0  0  0
   -1.4548   -1.6635    1.1345 C   0  0  0  0  0  0  0  0  0  0  0  0
   -1.1051   -1.8083    2.2961 O   0  0  0  0  0  0  0  0  0  0  0  0
   -1.3017   -0.4313    0.5317 N   0  0  0  0  0  0  0  0  0  0  0  0
   -1.8000   -0.3896   -0.3484 H   0  0  0  0  0  0  0  0  0  0  0  0
    0.0395    0.1711    0.4673 C   0  0  1  0  0  0  0  0  0  0  0  0
    0.6790   -0.1682    1.2914 H   0  0  0  0  0  0  0  0  0  0  0  0
    0.6480   -0.2268   -0.9037 C   0  0  0  0  0  0  0  0  0  0  0  0
   -0.0389    0.0539   -1.7069 H   0  0  0  0  0  0  0  0  0  0  0  0
    1.5753    0.3356   -1.0442 H   0  0  0  0  0  0  0  0  0  0  0  0
    1.0023   -1.6965   -1.0904 C   0  0  0  0  0  0  0  0  0  0  0  0
    1.3263   -2.3900   -0.1022 O   0  5  0  0  0  0  0  0  0  0  0  0
    0.8366   -2.1412   -2.2521 O   0  0  0  0  0  0  0  0  0  0  0  0
   -0.0523    1.7176    0.4943 C   0  0  0  0  0  0  0  0  0  0  0  0
    0.2186    2.3528    1.5066 O   0  0  0  0  0  0  0  0  0  0  0  0
   -0.4649    2.4233   -0.6262 N   0  0  0  0  0  0  0  0  0  0  0  0
   -0.5555    1.8887   -1.4843 H   0  0  0  0  0  0  0  0  0  0  0  0
   -0.4887    3.8770   -0.6985 C   0  0  0  0  0  0  0  0  0  0  0  0
    0.5212    4.2820   -0.5785 H   0  0  0  0  0  0  0  0  0  0  0  0
   -0.8792    4.1976   -1.6688 H   0  0  0  0  0  0  0  0  0  0  0  0
   -1.1323    4.2896    0.0851 H   0  0  0  0  0  0  0  0  0  0  0  0
  1  2  1  0  0  0  0
  2  3  1  0  0  0  0
  2  4  1  0  0  0  0
  2  5  1  0  0  0  0
  5  6  2  0  0  0  0
  5  7  1  0  0  0  0
  7  8  1  0  0  0  0
  7  9  1  0  0  0  0
  9 10  1  0  0  0  0
  9 11  1  0  0  0  0
  9 17  1  0  0  0  0
 11 12  1  0  0  0  0
 11 13  1  0  0  0  0
 11 14  1  0  0  0  0
 14 15  1  0  0  0  0
 14 16  2  0  0  0  0
 17 18  2  0  0  0  0
 17 19  1  0  0  0  0
 19 20  1  0  0  0  0
 19 21  1  0  0  0  0
 21 22  1  0  0  0  0
 21 23  1  0  0  0  0
 21 24  1  0  0  0  0
M  CHG  1  15  -1
M  END
$$$$

  -OEChem-01062216073D

 24 23  0     1  0  0  0  0  0999 V2000
   -2.2716   -3.6669    1.0652 H   0  0  0  0  0  0  0  0  0  0  0  0
   -2.2522   -2.7661    0.4459 C   0  0  0  0  0  0  0  0  0  0  0  0
   -3.2771   -2.4363    0.2629 H   0  0  0  0  0  0  0  0  0  0  0  0
   -1.7763   -3.0112   -0.5079 H   0  0  0  0  0  0  0  0  0  0  0  0
   -1.4639   -1.6724    1.1441 C   0  0  0  0  0  0  0  0  0  0  0  0
   -1.1567   -1.7958    2.3203 O   0  0  0  0  0  0  0  0  0  0  0  0
   -1.3172   -0.4396    0.5411 N   0  0  0  0  0  0  0  0  0  0  0  0
   -1.7907   -0.4224   -0.3532 H   0  0  0  0  0  0  0  0  0  0  0  0
    0.0264    0.1608    0.4877 C   0  0  1  0  0  0  0  0  0  0  0  0
    0.6658   -0.1878    1.3080 H   0  0  0  0  0  0  0  0  0  0  0  0
    0.6303   -0.2141   -0.8897 C   0  0  0  0  0  0  0  0  0  0  0  0
   -0.0514    0.0900   -1.6888 H   0  0  0  0  0  0  0  0  0  0  0  0
    1.5616    0.3443   -1.0188 H   0  0  0  0  0  0  0  0  0  0  0  0
    0.9758   -1.6834   -1.0961 C   0  0  0  0  0  0  0  0  0  0  0  0
    1.2963   -2.3909   -0.1162 O   0  5  0  0  0  0  0  0  0  0  0  0
    0.7829   -2.1182   -2.2573 O   0  0  0  0  0  0  0  0  0  0  0  0
   -0.0571    1.7058    0.5156 C   0  0  0  0  0  0  0  0  0  0  0  0
    0.4841    2.3576    1.4012 O   0  0  0  0  0  0  0  0  0  0  0  0
   -0.7406    2.3894   -0.4787 N   0  0  0  0  0  0  0  0  0  0  0  0
   -1.0627    1.8373   -1.2661 H   0  0  0  0  0  0  0  0  0  0  0  0
   -0.7865    3.8414   -0.5706 C   0  0  0  0  0  0  0  0  0  0  0  0
    0.2190    4.2468   -0.7225 H   0  0  0  0  0  0  0  0  0  0  0  0
   -1.4150    4.1444   -1.4131 H   0  0  0  0  0  0  0  0  0  0  0  0
   -1.2074    4.2698    0.3448 H   0  0  0  0  0  0  0  0  0  0  0  0
  1  2  1  0  0  0  0
  2  3  1  0  0  0  0
  2  4  1  0  0  0  0
  2  5  1  0  0  0  0
  5  6  2  0  0  0  0
  5  7  1  0  0  0  0
  7  8  1  0  0  0  0
  7  9  1  0  0  0  0
  9 10  1  0  0  0  0
  9 11  1  0  0  0  0
  9 17  1  0  0  0  0
 11 12  1  0  0  0  0
 11 13  1  0  0  0  0
 11 14  1  0  0  0  0
 14 15  1  0  0  0  0
 14 16  2  0  0  0  0
 17 18  2  0  0  0  0
 17 19  1  0  0  0  0
 19 20  1  0  0  0  0
 19 21  1  0  0  0  0
 21 22  1  0  0  0  0
 21 23  1  0  0  0  0
 21 24  1  0  0  0  0
M  CHG  1  15  -1
M  END
$$$$

  -OEChem-01062216073D

 24 23  0     1  0  0  0  0  0999 V2000
   -2.2439   -3.6905    1.0599 H   0  0  0  0  0  0  0  0  0  0  0  0
   -2.2208   -2.7945    0.4339 C   0  0  0  0  0  0  0  0  0  0  0  0
   -3.2450   -2.4849    0.2154 H   0  0  0  0  0  0  0  0  0  0  0  0
   -1.7106   -3.0392   -0.5022 H   0  0  0  0  0  0  0  0  0  0  0  0
   -1.4748   -1.6810    1.1470 C   0  0  0  0  0  0  0  0  0  0  0  0
   -1.2137   -1.7820    2.3366 O   0  0  0  0  0  0  0  0  0  0  0  0
   -1.3323   -0.4491    0.5412 N   0  0  0  0  0  0  0  0  0  0  0  0
   -1.7711   -0.4627   -0.3710 H   0  0  0  0  0  0  0  0  0  0  0  0
    0.0136    0.1493    0.5037 C   0  0  1  0  0  0  0  0  0  0  0  0
    0.6479   -0.2073    1.3246 H   0  0  0  0  0  0  0  0  0  0  0  0
    0.6173   -0.2142   -0.8749 C   0  0  0  0  0  0  0  0  0  0  0  0
   -0.0603    0.1078   -1.6708 H   0  0  0  0  0  0  0  0  0  0  0  0
    1.5535    0.3380   -0.9961 H   0  0  0  0  0  0  0  0  0  0  0  0
    0.9541   -1.6845   -1.0898 C   0  0  0  0  0  0  0  0  0  0  0  0
    1.2677   -2.3984   -0.1116 O   0  5  0  0  0  0  0  0  0  0  0  0
    0.7419   -2.1168   -2.2484 O   0  0  0  0  0  0  0  0  0  0  0  0
   -0.0534    1.6946    0.5289 C   0  0  0  0  0  0  0  0  0  0  0  0
    0.7200    2.3531    1.2148 O   0  0  0  0  0  0  0  0  0  0  0  0
   -0.9576    2.3712   -0.2751 N   0  0  0  0  0  0  0  0  0  0  0  0
   -1.5420    1.8075   -0.8812 H   0  0  0  0  0  0  0  0  0  0  0  0
   -1.0318    3.8221   -0.3664 C   0  0  0  0  0  0  0  0  0  0  0  0
   -0.0932    4.2291   -0.7562 H   0  0  0  0  0  0  0  0  0  0  0  0
   -1.8431    4.1144   -1.0394 H   0  0  0  0  0  0  0  0  0  0  0  0
   -1.2261    4.2584    0.6187 H   0  0  0  0  0  0  0  0  0  0  0  0
  1  2  1  0  0  0  0
  2  3  1  0  0  0  0
  2  4  1  0  0  0  0
  2  5  1  0  0  0  0
  5  6  2  0  0  0  0
  5  7  1  0  0  0  0
  7  8  1  0  0  0  0
  7  9  1  0  0  0  0
  9 10  1  0  0  0  0
  9 11  1  0  0  0  0
  9 17  1  0  0  0  0
 11 12  1  0  0  0  0
 11 13  1  0  0  0  0
 11 14  1  0  0  0  0
 14 15  1  0  0  0  0
 14 16  2  0  0  0  0
 17 18  2  0  0  0  0
 17 19  1  0  0  0  0
 19 20  1  0  0  0  0
 19 21  1  0  0  0  0
 21 22  1  0  0  0  0
 21 23  1  0  0  0  0
 21 24  1  0  0  0  0
M  CHG  1  15  -1
M  END
$$$$

  -OEChem-01062216073D

 24 23  0     1  0  0  0  0  0999 V2000
   -2.2178   -3.6996    1.0471 H   0  0  0  0  0  0  0  0  0  0  0  0
   -2.1980   -2.8077    0.4149 C   0  0  0  0  0  0  0  0  0  0  0  0
   -3.2230   -2.5167    0.1753 H   0  0  0  0  0  0  0  0  0  0  0  0
   -1.6675   -3.0519   -0.5100 H   0  0  0  0  0  0  0  0  0  0  0  0
   -1.4833   -1.6769    1.1336 C   0  0  0  0  0  0  0  0  0  0  0  0
   -1.2765   -1.7483    2.3361 O   0  0  0  0  0  0  0  0  0  0  0  0
   -1.3343   -0.4497    0.5201 N   0  0  0  0  0  0  0  0  0  0  0  0
   -1.7382   -0.4881   -0.4086 H   0  0  0  0  0  0  0  0  0  0  0  0
    0.0154    0.1432    0.4956 C   0  0  1  0  0  0  0  0  0  0  0  0
    0.6391   -0.2117    1.3252 H   0  0  0  0  0  0  0  0  0  0  0  0
    0.6286   -0.2312   -0.8749 C   0  0  0  0  0  0  0  0  0  0  0  0
   -0.0408    0.0935   -1.6769 H   0  0  0  0  0  0  0  0  0  0  0  0
    1.5696    0.3135   -0.9927 H   0  0  0  0  0  0  0  0  0  0  0  0
    0.9575   -1.7055   -1.0745 C   0  0  0  0  0  0  0  0  0  0  0  0
    1.2572   -2.4106   -0.0851 O   0  5  0  0  0  0  0  0  0  0  0  0
    0.7432   -2.1519   -2.2274 O   0  0  0  0  0  0  0  0  0  0  0  0
   -0.0396    1.6889    0.5107 C   0  0  0  0  0  0  0  0  0  0  0  0
    0.8941    2.3541    0.9449 O   0  0  0  0  0  0  0  0  0  0  0  0
   -1.1141    2.3547   -0.0564 N   0  0  0  0  0  0  0  0  0  0  0  0
   -1.9126    1.7836   -0.3082 H   0  0  0  0  0  0  0  0  0  0  0  0
   -1.2463    3.8039   -0.0719 C   0  0  0  0  0  0  0  0  0  0  0  0
   -0.4154    4.2569   -0.6223 H   0  0  0  0  0  0  0  0  0  0  0  0
   -2.1815    4.0906   -0.5614 H   0  0  0  0  0  0  0  0  0  0  0  0
   -1.2529    4.1981    0.9494 H   0  0  0  0  0  0  0  0  0  0  0  0
  1  2  1  0  0  0  0
  2  3  1  0  0  0  0
  2  4  1  0  0  0  0
  2  5  1  0  0  0  0
  5  6  2  0  0  0  0
  5  7  1  0  0  0  0
  7  8  1  0  0  0  0
  7  9  1  0  0  0  0
  9 10  1  0  0  0  0
  9 11  1  0  0  0  0
  9 17  1  0  0  0  0
 11 12  1  0  0  0  0
 11 13  1  0  0  0  0
 11 14  1  0  0  0  0
 14 15  1  0  0  0  0
 14 16  2  0  0  0  0
 17 18  2  0  0  0  0
 17 19  1  0  0  0  0
 19 20  1  0  0  0  0
 19 21  1  0  0  0  0
 21 22  1  0  0  0  0
 21 23  1  0  0  0  0
 21 24  1  0  0  0  0
M  CHG  1  15  -1
M  END
$$$$

  -OEChem-01062216073D

 24 23  0     1  0  0  0  0  0999 V2000
   -2.2145   -3.7024    1.0306 H   0  0  0  0  0  0  0  0  0  0  0  0
   -2.1913   -2.8117    0.3970 C   0  0  0  0  0  0  0  0  0  0  0  0
   -3.2149   -2.5193    0.1537 H   0  0  0  0  0  0  0  0  0  0  0  0
   -1.6579   -3.0577   -0.5257 H   0  0  0  0  0  0  0  0  0  0  0  0
   -1.4781   -1.6810    1.1169 C   0  0  0  0  0  0  0  0  0  0  0  0
   -1.2885   -1.7434    2.3228 O   0  0  0  0  0  0  0  0  0  0  0  0
   -1.3263   -0.4537    0.5053 N   0  0  0  0  0  0  0  0  0  0  0  0
   -1.7237   -0.4895   -0.4273 H   0  0  0  0  0  0  0  0  0  0  0  0
    0.0238    0.1399    0.4852 C   0  0  1  0  0  0  0  0  0  0  0  0
    0.6441   -0.2128    1.3182 H   0  0  0  0  0  0  0  0  0  0  0  0
    0.6402   -0.2426   -0.8820 C   0  0  0  0  0  0  0  0  0  0  0  0
   -0.0275    0.0791   -1.6867 H   0  0  0  0  0  0  0  0  0  0  0  0
    1.5823    0.2994   -1.0025 H   0  0  0  0  0  0  0  0  0  0  0  0
    0.9677   -1.7188   -1.0709 C   0  0  0  0  0  0  0  0  0  0  0  0
    1.2637   -2.4162   -0.0744 O   0  5  0  0  0  0  0  0  0  0  0  0
    0.7546   -2.1752   -2.2200 O   0  0  0  0  0  0  0  0  0  0  0  0
   -0.0377    1.6865    0.5019 C   0  0  0  0  0  0  0  0  0  0  0  0
    0.9639    2.3661    0.6978 O   0  0  0  0  0  0  0  0  0  0  0  0
   -1.2295    2.3341    0.2222 N   0  0  0  0  0  0  0  0  0  0  0  0
   -2.0562    1.7456    0.2318 H   0  0  0  0  0  0  0  0  0  0  0  0
   -1.3914    3.7793    0.2831 C   0  0  0  0  0  0  0  0  0  0  0  0
   -0.7090    4.2701   -0.4184 H   0  0  0  0  0  0  0  0  0  0  0  0
   -2.4160    4.0540    0.0160 H   0  0  0  0  0  0  0  0  0  0  0  0
   -1.1852    4.1450    1.2941 H   0  0  0  0  0  0  0  0  0  0  0  0
  1  2  1  0  0  0  0
  2  3  1  0  0  0  0
  2  4  1  0  0  0  0
  2  5  1  0  0  0  0
  5  6  2  0  0  0  0
  5  7  1  0  0  0  0
  7  8  1  0  0  0  0
  7  9  1  0  0  0  0
  9 10  1  0  0  0  0
  9 11  1  0  0  0  0
  9 17  1  0  0  0  0
 11 12  1  0  0  0  0
 11 13  1  0  0  0  0
 11 14  1  0  0  0  0
 14 15  1  0  0  0  0
 14 16  2  0  0  0  0
 17 18  2  0  0  0  0
 17 19  1  0  0  0  0
 19 20  1  0  0  0  0
 19 21  1  0  0  0  0
 21 22  1  0  0  0  0
 21 23  1  0  0  0  0
 21 24  1  0  0  0  0
M  CHG  1  15  -1
M  END
$$$$

  -OEChem-01062216073D

 24 23  0     1  0  0  0  0  0999 V2000
   -2.2614   -3.6860    1.0209 H   0  0  0  0  0  0  0  0  0  0  0  0
   -2.1884   -2.8092    0.3719 C   0  0  0  0  0  0  0  0  0  0  0  0
   -3.1930   -2.4957    0.0804 H   0  0  0  0  0  0  0  0  0  0  0  0
   -1.6249   -3.0874   -0.5232 H   0  0  0  0  0  0  0  0  0  0  0  0
   -1.4742   -1.6830    1.0979 C   0  0  0  0  0  0  0  0  0  0  0  0
   -1.2933   -1.7456    2.3053 O   0  0  0  0  0  0  0  0  0  0  0  0
   -1.3190   -0.4523    0.4947 N   0  0  0  0  0  0  0  0  0  0  0  0
   -1.7253   -0.4710   -0.4348 H   0  0  0  0  0  0  0  0  0  0  0  0
    0.0318    0.1412    0.4721 C   0  0  1  0  0  0  0  0  0  0  0  0
    0.6495   -0.2096    1.3075 H   0  0  0  0  0  0  0  0  0  0  0  0
    0.6497   -0.2536   -0.8925 C   0  0  0  0  0  0  0  0  0  0  0  0
   -0.0175    0.0617   -1.7002 H   0  0  0  0  0  0  0  0  0  0  0  0
    1.5935    0.2838   -1.0187 H   0  0  0  0  0  0  0  0  0  0  0  0
    0.9764   -1.7318   -1.0671 C   0  0  0  0  0  0  0  0  0  0  0  0
    1.2709   -2.4186   -0.0626 O   0  5  0  0  0  0  0  0  0  0  0  0
    0.7669   -2.2009   -2.2118 O   0  0  0  0  0  0  0  0  0  0  0  0
   -0.0391    1.6889    0.4988 C   0  0  0  0  0  0  0  0  0  0  0  0
    0.9679    2.3879    0.4565 O   0  0  0  0  0  0  0  0  0  0  0  0
   -1.2729    2.3162    0.5396 N   0  0  0  0  0  0  0  0  0  0  0  0
   -2.0591    1.7061    0.7447 H   0  0  0  0  0  0  0  0  0  0  0  0
   -1.4412    3.7557    0.6728 C   0  0  0  0  0  0  0  0  0  0  0  0
   -0.9708    4.2755   -0.1682 H   0  0  0  0  0  0  0  0  0  0  0  0
   -2.5053    4.0090    0.6825 H   0  0  0  0  0  0  0  0  0  0  0  0
   -0.9903    4.1090    1.6057 H   0  0  0  0  0  0  0  0  0  0  0  0
  1  2  1  0  0  0  0
  2  3  1  0  0  0  0
  2  4  1  0  0  0  0
  2  5  1  0  0  0  0
  5  6  2  0  0  0  0
  5  7  1  0  0  0  0
  7  8  1  0  0  0  0
  7  9  1  0  0  0  0
  9 10  1  0  0  0  0
  9 11  1  0  0  0  0
  9 17  1  0  0  0  0
 11 12  1  0  0  0  0
 11 13  1  0  0  0  0
 11 14  1  0  0  0  0
 14 15  1  0  0  0  0
 14 16  2  0  0  0  0
 17 18  2  0  0  0  0
 17 19  1  0  0  0  0
 19 20  1  0  0  0  0
 19 21  1  0  0  0  0
 21 22  1  0  0  0  0
 21 23  1  0  0  0  0
 21 24  1  0  0  0  0
M  CHG  1  15  -1
M  END
$$$$

  -OEChem-01062216073D

 24 23  0     1  0  0  0  0  0999 V2000
   -2.2348   -3.6891    0.9794 H   0  0  0  0  0  0  0  0  0  0  0  0
   -2.1859   -2.7981    0.3475 C   0  0  0  0  0  0  0  0  0  0  0  0
   -3.2000   -2.4905    0.0838 H   0  0  0  0  0  0  0  0  0  0  0  0
   -1.6386   -3.0514   -0.5650 H   0  0  0  0  0  0  0  0  0  0  0  0
   -1.4698   -1.6786    1.0818 C   0  0  0  0  0  0  0  0  0  0  0  0
   -1.2969   -1.7443    2.2905 O   0  0  0  0  0  0  0  0  0  0  0  0
   -1.3117   -0.4434    0.4896 N   0  0  0  0  0  0  0  0  0  0  0  0
   -1.7308   -0.4436   -0.4345 H   0  0  0  0  0  0  0  0  0  0  0  0
    0.0407    0.1454    0.4613 C   0  0  1  0  0  0  0  0  0  0  0  0
    0.6580   -0.2060    1.2966 H   0  0  0  0  0  0  0  0  0  0  0  0
    0.6570   -0.2616   -0.9018 C   0  0  0  0  0  0  0  0  0  0  0  0
   -0.0095    0.0509   -1.7111 H   0  0  0  0  0  0  0  0  0  0  0  0
    1.6035    0.2690   -1.0333 H   0  0  0  0  0  0  0  0  0  0  0  0
    0.9791   -1.7421   -1.0652 C   0  0  0  0  0  0  0  0  0  0  0  0
    1.2722   -2.4205   -0.0541 O   0  5  0  0  0  0  0  0  0  0  0  0
    0.7709   -2.2210   -2.2061 O   0  0  0  0  0  0  0  0  0  0  0  0
   -0.0408    1.6938    0.5032 C   0  0  0  0  0  0  0  0  0  0  0  0
    0.9095    2.4168    0.2216 O   0  0  0  0  0  0  0  0  0  0  0  0
   -1.2320    2.2957    0.8706 N   0  0  0  0  0  0  0  0  0  0  0  0
   -1.9421    1.6641    1.2329 H   0  0  0  0  0  0  0  0  0  0  0  0
   -1.3931    3.7302    1.0557 C   0  0  0  0  0  0  0  0  0  0  0  0
   -1.1407    4.2658    0.1348 H   0  0  0  0  0  0  0  0  0  0  0  0
   -2.4305    3.9608    1.3151 H   0  0  0  0  0  0  0  0  0  0  0  0
   -0.7446    4.0866    1.8624 H   0  0  0  0  0  0  0  0  0  0  0  0
  1  2  1  0  0  0  0
  2  3  1  0  0  0  0
  2  4  1  0  0  0  0
  2  5  1  0  0  0  0
  5  6  2  0  0  0  0
  5  7  1  0  0  0  0
  7  8  1  0  0  0  0
  7  9  1  0  0  0  0
  9 10  1  0  0  0  0
  9 11  1  0  0  0  0
  9 17  1  0  0  0  0
 11 12  1  0  0  0  0
 11 13  1  0  0  0  0
 11 14  1  0  0  0  0
 14 15  1  0  0  0  0
 14 16  2  0  0  0  0
 17 18  2  0  0  0  0
 17 19  1  0  0  0  0
 19 20  1  0  0  0  0
 19 21  1  0  0  0  0
 21 22  1  0  0  0  0
 21 23  1  0  0  0  0
 21 24  1  0  0  0  0
M  CHG  1  15  -1
M  END
$$$$

  -OEChem-01062216073D

 24 23  0     1  0  0  0  0  0999 V2000
   -2.2716   -3.6605    0.9570 H   0  0  0  0  0  0  0  0  0  0  0  0
   -2.2052   -2.7687    0.3281 C   0  0  0  0  0  0  0  0  0  0  0  0
   -3.2129   -2.4405    0.0649 H   0  0  0  0  0  0  0  0  0  0  0  0
   -1.6622   -3.0289   -0.5850 H   0  0  0  0  0  0  0  0  0  0  0  0
   -1.4676   -1.6661    1.0666 C   0  0  0  0  0  0  0  0  0  0  0  0
   -1.2883   -1.7423    2.2739 O   0  0  0  0  0  0  0  0  0  0  0  0
   -1.2993   -0.4266    0.4874 N   0  0  0  0  0  0  0  0  0  0  0  0
   -1.7324   -0.4037   -0.4299 H   0  0  0  0  0  0  0  0  0  0  0  0
    0.0575    0.1499    0.4543 C   0  0  1  0  0  0  0  0  0  0  0  0
    0.6722   -0.2059    1.2894 H   0  0  0  0  0  0  0  0  0  0  0  0
    0.6767   -0.2659   -0.9056 C   0  0  0  0  0  0  0  0  0  0  0  0
    0.0159    0.0488   -1.7187 H   0  0  0  0  0  0  0  0  0  0  0  0
    1.6281    0.2568   -1.0342 H   0  0  0  0  0  0  0  0  0  0  0  0
    0.9900   -1.7493   -1.0617 C   0  0  0  0  0  0  0  0  0  0  0  0
    1.2747   -2.4235   -0.0453 O   0  5  0  0  0  0  0  0  0  0  0  0
    0.7877   -2.2337   -2.2014 O   0  0  0  0  0  0  0  0  0  0  0  0
   -0.0315    1.6972    0.5145 C   0  0  0  0  0  0  0  0  0  0  0  0
    0.7958    2.4450    0.0026 O   0  0  0  0  0  0  0  0  0  0  0  0
   -1.0968    2.2682    1.1880 N   0  0  0  0  0  0  0  0  0  0  0  0
   -1.7076    1.6154    1.6742 H   0  0  0  0  0  0  0  0  0  0  0  0
   -1.2605    3.6986    1.3991 C   0  0  0  0  0  0  0  0  0  0  0  0
   -1.2815    4.2276    0.4407 H   0  0  0  0  0  0  0  0  0  0  0  0
   -2.2013    3.8949    1.9216 H   0  0  0  0  0  0  0  0  0  0  0  0
   -0.4372    4.0917    2.0042 H   0  0  0  0  0  0  0  0  0  0  0  0
  1  2  1  0  0  0  0
  2  3  1  0  0  0  0
  2  4  1  0  0  0  0
  2  5  1  0  0  0  0
  5  6  2  0  0  0  0
  5  7  1  0  0  0  0
  7  8  1  0  0  0  0
  7  9  1  0  0  0  0
  9 10  1  0  0  0  0
  9 11  1  0  0  0  0
  9 17  1  0  0  0  0
 11 12  1  0  0  0  0
 11 13  1  0  0  0  0
 11 14  1  0  0  0  0
 14 15  1  0  0  0  0
 14 16  2  0  0  0  0
 17 18  2  0  0  0  0
 17 19  1  0  0  0  0
 19 20  1  0  0  0  0
 19 21  1  0  0  0  0
 21 22  1  0  0  0  0
 21 23  1  0  0  0  0
 21 24  1  0  0  0  0
M  CHG  1  15  -1
M  END
$$$$

  -OEChem-01062216073D

 24 23  0     1  0  0  0  0  0999 V2000
   -2.3083   -3.6265    0.9334 H   0  0  0  0  0  0  0  0  0  0  0  0
   -2.2221   -2.7336    0.3086 C   0  0  0  0  0  0  0  0  0  0  0  0
   -3.2220   -2.3870    0.0389 H   0  0  0  0  0  0  0  0  0  0  0  0
   -1.6766   -2.9995   -0.6013 H   0  0  0  0  0  0  0  0  0  0  0  0
   -1.4718   -1.6461    1.0566 C   0  0  0  0  0  0  0  0  0  0  0  0
   -1.2910   -1.7340    2.2632 O   0  0  0  0  0  0  0  0  0  0  0  0
   -1.2898   -0.4028    0.4911 N   0  0  0  0  0  0  0  0  0  0  0  0
   -1.7334   -0.3575   -0.4202 H   0  0  0  0  0  0  0  0  0  0  0  0
    0.0734    0.1532    0.4514 C   0  0  1  0  0  0  0  0  0  0  0  0
    0.6848   -0.2128    1.2847 H   0  0  0  0  0  0  0  0  0  0  0  0
    0.6950   -0.2688   -0.9055 C   0  0  0  0  0  0  0  0  0  0  0  0
    0.0403    0.0508   -1.7214 H   0  0  0  0  0  0  0  0  0  0  0  0
    1.6508    0.2469   -1.0284 H   0  0  0  0  0  0  0  0  0  0  0  0
    0.9945   -1.7551   -1.0602 C   0  0  0  0  0  0  0  0  0  0  0  0
    1.2675   -2.4304   -0.0411 O   0  5  0  0  0  0  0  0  0  0  0  0
    0.8047   -2.2384   -2.2022 O   0  0  0  0  0  0  0  0  0  0  0  0
   -0.0120    1.6987    0.5322 C   0  0  0  0  0  0  0  0  0  0  0  0
    0.6207    2.4625   -0.1907 O   0  0  0  0  0  0  0  0  0  0  0  0
   -0.8684    2.2462    1.4701 N   0  0  0  0  0  0  0  0  0  0  0  0
   -1.3666    1.5810    2.0582 H   0  0  0  0  0  0  0  0  0  0  0  0
   -1.0473    3.6741    1.6851 C   0  0  0  0  0  0  0  0  0  0  0  0
   -1.4079    4.1566    0.7711 H   0  0  0  0  0  0  0  0  0  0  0  0
   -1.7802    3.8448    2.4790 H   0  0  0  0  0  0  0  0  0  0  0  0
   -0.1007    4.1372    1.9813 H   0  0  0  0  0  0  0  0  0  0  0  0
  1  2  1  0  0  0  0
  2  3  1  0  0  0  0
  2  4  1  0  0  0  0
  2  5  1  0  0  0  0
  5  6  2  0  0  0  0
  5  7  1  0  0  0  0
  7  8  1  0  0  0  0
  7  9  1  0  0  0  0
  9 10  1  0  0  0  0
  9 11  1  0  0  0  0
  9 17  1  0  0  0  0
 11 12  1  0  0  0  0
 11 13  1  0  0  0  0
 11 14  1  0  0  0  0
 14 15  1  0  0  0  0
 14 16  2  0  0  0  0
 17 18  2  0  0  0  0
 17 19  1  0  0  0  0
 19 20  1  0  0  0  0
 19 21  1  0  0  0  0
 21 22  1  0  0  0  0
 21 23  1  0  0  0  0
 21 24  1  0  0  0  0
M  CHG  1  15  -1
M  END
$$$$

  -OEChem-01062216073D

 24 23  0     1  0  0  0  0  0999 V2000
   -2.3313   -3.5947    0.9121 H   0  0  0  0  0  0  0  0  0  0  0  0
   -2.2628   -2.6859    0.3083 C   0  0  0  0  0  0  0  0  0  0  0  0
   -3.2699   -2.3232    0.0913 H   0  0  0  0  0  0  0  0  0  0  0  0
   -1.7584   -2.9312   -0.6308 H   0  0  0  0  0  0  0  0  0  0  0  0
   -1.4711   -1.6258    1.0525 C   0  0  0  0  0  0  0  0  0  0  0  0
   -1.2632   -1.7337    2.2534 O   0  0  0  0  0  0  0  0  0  0  0  0
   -1.2697   -0.3821    0.4951 N   0  0  0  0  0  0  0  0  0  0  0  0
   -1.7220   -0.3143   -0.4105 H   0  0  0  0  0  0  0  0  0  0  0  0
    0.0997    0.1528    0.4549 C   0  0  1  0  0  0  0  0  0  0  0  0
    0.7065   -0.2246    1.2864 H   0  0  0  0  0  0  0  0  0  0  0  0
    0.7237   -0.2720   -0.8996 C   0  0  0  0  0  0  0  0  0  0  0  0
    0.0743    0.0535   -1.7176 H   0  0  0  0  0  0  0  0  0  0  0  0
    1.6830    0.2392   -1.0169 H   0  0  0  0  0  0  0  0  0  0  0  0
    1.0073   -1.7612   -1.0569 C   0  0  0  0  0  0  0  0  0  0  0  0
    1.2670   -2.4408   -0.0371 O   0  5  0  0  0  0  0  0  0  0  0  0
    0.8301   -2.2397   -2.2030 O   0  0  0  0  0  0  0  0  0  0  0  0
    0.0288    1.6964    0.5464 C   0  0  0  0  0  0  0  0  0  0  0  0
    0.4170    2.4601   -0.3328 O   0  0  0  0  0  0  0  0  0  0  0  0
   -0.5587    2.2366    1.6754 N   0  0  0  0  0  0  0  0  0  0  0  0
   -0.9391    1.5671    2.3416 H   0  0  0  0  0  0  0  0  0  0  0  0
   -0.7843    3.6594    1.8792 C   0  0  0  0  0  0  0  0  0  0  0  0
   -1.4401    4.0581    1.0985 H   0  0  0  0  0  0  0  0  0  0  0  0
   -1.2582    3.8286    2.8507 H   0  0  0  0  0  0  0  0  0  0  0  0
    0.1654    4.2036    1.8579 H   0  0  0  0  0  0  0  0  0  0  0  0
  1  2  1  0  0  0  0
  2  3  1  0  0  0  0
  2  4  1  0  0  0  0
  2  5  1  0  0  0  0
  5  6  2  0  0  0  0
  5  7  1  0  0  0  0
  7  8  1  0  0  0  0
  7  9  1  0  0  0  0
  9 10  1  0  0  0  0
  9 11  1  0  0  0  0
  9 17  1  0  0  0  0
 11 12  1  0  0  0  0
 11 13  1  0  0  0  0
 11 14  1  0  0  0  0
 14 15  1  0  0  0  0
 14 16  2  0  0  0  0
 17 18  2  0  0  0  0
 17 19  1  0  0  0  0
 19 20  1  0  0  0  0
 19 21  1  0  0  0  0
 21 22  1  0  0  0  0
 21 23  1  0  0  0  0
 21 24  1  0  0  0  0
M  CHG  1  15  -1
M  END
$$$$

  -OEChem-01062216073D

 24 23  0     1  0  0  0  0  0999 V2000
   -2.3943   -3.5610    0.9323 H   0  0  0  0  0  0  0  0  0  0  0  0
   -2.2849   -2.6676    0.3117 C   0  0  0  0  0  0  0  0  0  0  0  0
   -3.2756   -2.2796    0.0654 H   0  0  0  0  0  0  0  0  0  0  0  0
   -1.7680   -2.9473   -0.6108 H   0  0  0  0  0  0  0  0  0  0  0  0
   -1.4773   -1.6159    1.0506 C   0  0  0  0  0  0  0  0  0  0  0  0
   -1.2437   -1.7376    2.2456 O   0  0  0  0  0  0  0  0  0  0  0  0
   -1.2698   -0.3730    0.4931 N   0  0  0  0  0  0  0  0  0  0  0  0
   -1.7297   -0.2927   -0.4077 H   0  0  0  0  0  0  0  0  0  0  0  0
    0.1000    0.1570    0.4512 C   0  0  1  0  0  0  0  0  0  0  0  0
    0.7061   -0.2239    1.2814 H   0  0  0  0  0  0  0  0  0  0  0  0
    0.7297   -0.2678   -0.9003 C   0  0  0  0  0  0  0  0  0  0  0  0
    0.0819    0.0540   -1.7212 H   0  0  0  0  0  0  0  0  0  0  0  0
    1.6872    0.2473   -1.0135 H   0  0  0  0  0  0  0  0  0  0  0  0
    1.0138   -1.7572   -1.0568 C   0  0  0  0  0  0  0  0  0  0  0  0
    1.2688   -2.4363   -0.0355 O   0  5  0  0  0  0  0  0  0  0  0  0
    0.8587   -2.2344   -2.2065 O   0  0  0  0  0  0  0  0  0  0  0  0
    0.0413    1.6996    0.5415 C   0  0  0  0  0  0  0  0  0  0  0  0
    0.1597    2.4478   -0.4248 O   0  0  0  0  0  0  0  0  0  0  0  0
   -0.2381    2.2530    1.7772 N   0  0  0  0  0  0  0  0  0  0  0  0
   -0.4576    1.5924    2.5196 H   0  0  0  0  0  0  0  0  0  0  0  0
   -0.4482    3.6747    2.0041 C   0  0  0  0  0  0  0  0  0  0  0  0
   -1.3204    4.0266    1.4441 H   0  0  0  0  0  0  0  0  0  0  0  0
   -0.6186    3.8625    3.0683 H   0  0  0  0  0  0  0  0  0  0  0  0
    0.4306    4.2465    1.6892 H   0  0  0  0  0  0  0  0  0  0  0  0
  1  2  1  0  0  0  0
  2  3  1  0  0  0  0
  2  4  1  0  0  0  0
  2  5  1  0  0  0  0
  5  6  2  0  0  0  0
  5  7  1  0  0  0  0
  7  8  1  0  0  0  0
  7  9  1  0  0  0  0
  9 10  1  0  0  0  0
  9 11  1  0  0  0  0
  9 17  1  0  0  0  0
 11 12  1  0  0  0  0
 11 13  1  0  0  0  0
 11 14  1  0  0  0  0
 14 15  1  0  0  0  0
 14 16  2  0  0  0  0
 17 18  2  0  0  0  0
 17 19  1  0  0  0  0
 19 20  1  0  0  0  0
 19 21  1  0  0  0  0
 21 22  1  0  0  0  0
 21 23  1  0  0  0  0
 21 24  1  0  0  0  0
M  CHG  1  15  -1
M  END
$$$$

  -OEChem-01062216073D

 24 23  0     1  0  0  0  0  0999 V2000
   -2.4263   -3.5510    0.9396 H   0  0  0  0  0  0  0  0  0  0  0  0
   -2.3071   -2.6607    0.3165 C   0  0  0  0  0  0  0  0  0  0  0  0
   -3.2936   -2.2626    0.0693 H   0  0  0  0  0  0  0  0  0  0  0  0
   -1.7937   -2.9478   -0.6057 H   0  0  0  0  0  0  0  0  0  0  0  0
   -1.4870   -1.6163    1.0517 C   0  0  0  0  0  0  0  0  0  0  0  0
   -1.2243   -1.7545    2.2389 O   0  0  0  0  0  0  0  0  0  0  0  0
   -1.2758   -0.3749    0.4922 N   0  0  0  0  0  0  0  0  0  0  0  0
   -1.7422   -0.2827   -0.4041 H   0  0  0  0  0  0  0  0  0  0  0  0
    0.0913    0.1589    0.4536 C   0  0  1  0  0  0  0  0  0  0  0  0
    0.6943   -0.2244    1.2848 H   0  0  0  0  0  0  0  0  0  0  0  0
    0.7315   -0.2593   -0.8946 C   0  0  0  0  0  0  0  0  0  0  0  0
    0.0850    0.0575   -1.7184 H   0  0  0  0  0  0  0  0  0  0  0  0
    1.6844    0.2650   -1.0035 H   0  0  0  0  0  0  0  0  0  0  0  0
    1.0252   -1.7466   -1.0533 C   0  0  0  0  0  0  0  0  0  0  0  0
    1.2781   -2.4270   -0.0323 O   0  5  0  0  0  0  0  0  0  0  0  0
    0.8945   -2.2194   -2.2078 O   0  0  0  0  0  0  0  0  0  0  0  0
    0.0436    1.7012    0.5372 C   0  0  0  0  0  0  0  0  0  0  0  0
   -0.1144    2.4220   -0.4446 O   0  0  0  0  0  0  0  0  0  0  0  0
    0.0836    2.2849    1.7899 N   0  0  0  0  0  0  0  0  0  0  0  0
    0.0642    1.6457    2.5809 H   0  0  0  0  0  0  0  0  0  0  0  0
   -0.0861    3.7108    2.0252 C   0  0  0  0  0  0  0  0  0  0  0  0
   -1.0843    4.0338    1.7130 H   0  0  0  0  0  0  0  0  0  0  0  0
    0.0346    3.9317    3.0898 H   0  0  0  0  0  0  0  0  0  0  0  0
    0.6631    4.2823    1.4678 H   0  0  0  0  0  0  0  0  0  0  0  0
  1  2  1  0  0  0  0
  2  3  1  0  0  0  0
  2  4  1  0  0  0  0
  2  5  1  0  0  0  0
  5  6  2  0  0  0  0
  5  7  1  0  0  0  0
  7  8  1  0  0  0  0
  7  9  1  0  0  0  0
  9 10  1  0  0  0  0
  9 11  1  0  0  0  0
  9 17  1  0  0  0  0
 11 12  1  0  0  0  0
 11 13  1  0  0  0  0
 11 14  1  0  0  0  0
 14 15  1  0  0  0  0
 14 16  2  0  0  0  0
 17 18  2  0  0  0  0
 17 19  1  0  0  0  0
 19 20  1  0  0  0  0
 19 21  1  0  0  0  0
 21 22  1  0  0  0  0
 21 23  1  0  0  0  0
 21 24  1  0  0  0  0
M  CHG  1  15  -1
M  END
$$$$

  -OEChem-01062216073D

 24 23  0     1  0  0  0  0  0999 V2000
   -2.4458   -3.5464    0.9544 H   0  0  0  0  0  0  0  0  0  0  0  0
   -2.3299   -2.6548    0.3323 C   0  0  0  0  0  0  0  0  0  0  0  0
   -3.3176   -2.2506    0.0998 H   0  0  0  0  0  0  0  0  0  0  0  0
   -1.8300   -2.9418   -0.5975 H   0  0  0  0  0  0  0  0  0  0  0  0
   -1.4944   -1.6166    1.0588 C   0  0  0  0  0  0  0  0  0  0  0  0
   -1.2047   -1.7673    2.2383 O   0  0  0  0  0  0  0  0  0  0  0  0
   -1.2796   -0.3785    0.4933 N   0  0  0  0  0  0  0  0  0  0  0  0
   -1.7546   -0.2757   -0.3973 H   0  0  0  0  0  0  0  0  0  0  0  0
    0.0852    0.1601    0.4563 C   0  0  1  0  0  0  0  0  0  0  0  0
    0.6863   -0.2231    1.2890 H   0  0  0  0  0  0  0  0  0  0  0  0
    0.7317   -0.2488   -0.8905 C   0  0  0  0  0  0  0  0  0  0  0  0
    0.0863    0.0683   -1.7152 H   0  0  0  0  0  0  0  0  0  0  0  0
    1.6827    0.2798   -0.9935 H   0  0  0  0  0  0  0  0  0  0  0  0
    1.0339   -1.7338   -1.0548 C   0  0  0  0  0  0  0  0  0  0  0  0
    1.2868   -2.4174   -0.0361 O   0  5  0  0  0  0  0  0  0  0  0  0
    0.9262   -2.1991   -2.2147 O   0  0  0  0  0  0  0  0  0  0  0  0
    0.0452    1.7021    0.5279 C   0  0  0  0  0  0  0  0  0  0  0  0
   -0.3730    2.3913   -0.3990 O   0  0  0  0  0  0  0  0  0  0  0  0
    0.3951    2.3212    1.7141 N   0  0  0  0  0  0  0  0  0  0  0  0
    0.6011    1.7079    2.4982 H   0  0  0  0  0  0  0  0  0  0  0  0
    0.2660    3.7517    1.9482 C   0  0  0  0  0  0  0  0  0  0  0  0
   -0.7836    4.0561    1.8843 H   0  0  0  0  0  0  0  0  0  0  0  0
    0.6417    4.0043    2.9442 H   0  0  0  0  0  0  0  0  0  0  0  0
    0.8447    4.3145    1.2086 H   0  0  0  0  0  0  0  0  0  0  0  0
  1  2  1  0  0  0  0
  2  3  1  0  0  0  0
  2  4  1  0  0  0  0
  2  5  1  0  0  0  0
  5  6  2  0  0  0  0
  5  7  1  0  0  0  0
  7  8  1  0  0  0  0
  7  9  1  0  0  0  0
  9 10  1  0  0  0  0
  9 11  1  0  0  0  0
  9 17  1  0  0  0  0
 11 12  1  0  0  0  0
 11 13  1  0  0  0  0
 11 14  1  0  0  0  0
 14 15  1  0  0  0  0
 14 16  2  0  0  0  0
 17 18  2  0  0  0  0
 17 19  1  0  0  0  0
 19 20  1  0  0  0  0
 19 21  1  0  0  0  0
 21 22  1  0  0  0  0
 21 23  1  0  0  0  0
 21 24  1  0  0  0  0
M  CHG  1  15  -1
M  END
$$$$

  -OEChem-01062216073D

 24 23  0     1  0  0  0  0  0999 V2000
   -2.4492   -3.5615    0.9642 H   0  0  0  0  0  0  0  0  0  0  0  0
   -2.3534   -2.6621    0.3501 C   0  0  0  0  0  0  0  0  0  0  0  0
   -3.3480   -2.2571    0.1510 H   0  0  0  0  0  0  0  0  0  0  0  0
   -1.8800   -2.9364   -0.5970 H   0  0  0  0  0  0  0  0  0  0  0  0
   -1.4992   -1.6309    1.0647 C   0  0  0  0  0  0  0  0  0  0  0  0
   -1.1805   -1.7947    2.2348 O   0  0  0  0  0  0  0  0  0  0  0  0
   -1.2879   -0.3934    0.4961 N   0  0  0  0  0  0  0  0  0  0  0  0
   -1.7751   -0.2783   -0.3864 H   0  0  0  0  0  0  0  0  0  0  0  0
    0.0695    0.1637    0.4640 C   0  0  1  0  0  0  0  0  0  0  0  0
    0.6700   -0.2143    1.2991 H   0  0  0  0  0  0  0  0  0  0  0  0
    0.7266   -0.2281   -0.8817 C   0  0  0  0  0  0  0  0  0  0  0  0
    0.0781    0.0846   -1.7057 H   0  0  0  0  0  0  0  0  0  0  0  0
    1.6699    0.3153   -0.9799 H   0  0  0  0  0  0  0  0  0  0  0  0
    1.0516   -1.7071   -1.0542 C   0  0  0  0  0  0  0  0  0  0  0  0
    1.3111   -2.3936   -0.0394 O   0  5  0  0  0  0  0  0  0  0  0  0
    0.9697   -2.1627   -2.2201 O   0  0  0  0  0  0  0  0  0  0  0  0
    0.0245    1.7051    0.5258 C   0  0  0  0  0  0  0  0  0  0  0  0
   -0.6022    2.3677   -0.2977 O   0  0  0  0  0  0  0  0  0  0  0  0
    0.6504    2.3563    1.5731 N   0  0  0  0  0  0  0  0  0  0  0  0
    1.0756    1.7689    2.2852 H   0  0  0  0  0  0  0  0  0  0  0  0
    0.6024    3.7965    1.7747 C   0  0  0  0  0  0  0  0  0  0  0  0
   -0.4276    4.1242    1.9476 H   0  0  0  0  0  0  0  0  0  0  0  0
    1.2064    4.0738    2.6437 H   0  0  0  0  0  0  0  0  0  0  0  0
    0.9989    4.3187    0.8980 H   0  0  0  0  0  0  0  0  0  0  0  0
  1  2  1  0  0  0  0
  2  3  1  0  0  0  0
  2  4  1  0  0  0  0
  2  5  1  0  0  0  0
  5  6  2  0  0  0  0
  5  7  1  0  0  0  0
  7  8  1  0  0  0  0
  7  9  1  0  0  0  0
  9 10  1  0  0  0  0
  9 11  1  0  0  0  0
  9 17  1  0  0  0  0
 11 12  1  0  0  0  0
 11 13  1  0  0  0  0
 11 14  1  0  0  0  0
 14 15  1  0  0  0  0
 14 16  2  0  0  0  0
 17 18  2  0  0  0  0
 17 19  1  0  0  0  0
 19 20  1  0  0  0  0
 19 21  1  0  0  0  0
 21 22  1  0  0  0  0
 21 23  1  0  0  0  0
 21 24  1  0  0  0  0
M  CHG  1  15  -1
M  END
$$$$

  -OEChem-01062216073D

 24 23  0     1  0  0  0  0  0999 V2000
   -2.4672   -3.5656    0.9881 H   0  0  0  0  0  0  0  0  0  0  0  0
   -2.3732   -2.6667    0.3727 C   0  0  0  0  0  0  0  0  0  0  0  0
   -3.3671   -2.2512    0.1924 H   0  0  0  0  0  0  0  0  0  0  0  0
   -1.9196   -2.9446   -0.5829 H   0  0  0  0  0  0  0  0  0  0  0  0
   -1.4965   -1.6446    1.0727 C   0  0  0  0  0  0  0  0  0  0  0  0
   -1.1477   -1.8220    2.2320 O   0  0  0  0  0  0  0  0  0  0  0  0
   -1.2902   -0.4073    0.5018 N   0  0  0  0  0  0  0  0  0  0  0  0
   -1.7911   -0.2808   -0.3711 H   0  0  0  0  0  0  0  0  0  0  0  0
    0.0597    0.1687    0.4726 C   0  0  1  0  0  0  0  0  0  0  0  0
    0.6625   -0.2036    1.3087 H   0  0  0  0  0  0  0  0  0  0  0  0
    0.7198   -0.2061   -0.8757 C   0  0  0  0  0  0  0  0  0  0  0  0
    0.0657    0.1049   -1.6960 H   0  0  0  0  0  0  0  0  0  0  0  0
    1.6566    0.3493   -0.9720 H   0  0  0  0  0  0  0  0  0  0  0  0
    1.0649   -1.6790   -1.0598 C   0  0  0  0  0  0  0  0  0  0  0  0
    1.3357   -2.3703   -0.0514 O   0  5  0  0  0  0  0  0  0  0  0  0
    0.9994   -2.1229   -2.2312 O   0  0  0  0  0  0  0  0  0  0  0  0
    0.0083    1.7101    0.5264 C   0  0  0  0  0  0  0  0  0  0  0  0
   -0.7916    2.3523   -0.1505 O   0  0  0  0  0  0  0  0  0  0  0  0
    0.8688    2.3874    1.3713 N   0  0  0  0  0  0  0  0  0  0  0  0
    1.4920    1.8210    1.9399 H   0  0  0  0  0  0  0  0  0  0  0  0
    0.8790    3.8340    1.5273 C   0  0  0  0  0  0  0  0  0  0  0  0
   -0.0918    4.1860    1.8908 H   0  0  0  0  0  0  0  0  0  0  0  0
    1.6467    4.1278    2.2491 H   0  0  0  0  0  0  0  0  0  0  0  0
    1.0981    4.3199    0.5711 H   0  0  0  0  0  0  0  0  0  0  0  0
  1  2  1  0  0  0  0
  2  3  1  0  0  0  0
  2  4  1  0  0  0  0
  2  5  1  0  0  0  0
  5  6  2  0  0  0  0
  5  7  1  0  0  0  0
  7  8  1  0  0  0  0
  7  9  1  0  0  0  0
  9 10  1  0  0  0  0
  9 11  1  0  0  0  0
  9 17  1  0  0  0  0
 11 12  1  0  0  0  0
 11 13  1  0  0  0  0
 11 14  1  0  0  0  0
 14 15  1  0  0  0  0
 14 16  2  0  0  0  0
 17 18  2  0  0  0  0
 17 19  1  0  0  0  0
 19 20  1  0  0  0  0
 19 21  1  0  0  0  0
 21 22  1  0  0  0  0
 21 23  1  0  0  0  0
 21 24  1  0  0  0  0
M  CHG  1  15  -1
M  END
$$$$

  -OEChem-01062216073D

 24 23  0     1  0  0  0  0  0999 V2000
   -2.4562   -3.5874    0.9917 H   0  0  0  0  0  0  0  0  0  0  0  0
   -2.3780   -2.6809    0.3857 C   0  0  0  0  0  0  0  0  0  0  0  0
   -3.3772   -2.2692    0.2281 H   0  0  0  0  0  0  0  0  0  0  0  0
   -1.9402   -2.9452   -0.5810 H   0  0  0  0  0  0  0  0  0  0  0  0
   -1.4941   -1.6622    1.0819 C   0  0  0  0  0  0  0  0  0  0  0  0
   -1.1182   -1.8561    2.2298 O   0  0  0  0  0  0  0  0  0  0  0  0
   -1.2985   -0.4208    0.5159 N   0  0  0  0  0  0  0  0  0  0  0  0
   -1.8132   -0.2832   -0.3467 H   0  0  0  0  0  0  0  0  0  0  0  0
    0.0430    0.1768    0.4917 C   0  0  1  0  0  0  0  0  0  0  0  0
    0.6512   -0.1929    1.3251 H   0  0  0  0  0  0  0  0  0  0  0  0
    0.7025   -0.1758   -0.8629 C   0  0  0  0  0  0  0  0  0  0  0  0
    0.0403    0.1352   -1.6765 H   0  0  0  0  0  0  0  0  0  0  0  0
    1.6315    0.3920   -0.9584 H   0  0  0  0  0  0  0  0  0  0  0  0
    1.0692   -1.6404   -1.0670 C   0  0  0  0  0  0  0  0  0  0  0  0
    1.3556   -2.3405   -0.0695 O   0  5  0  0  0  0  0  0  0  0  0  0
    1.0130   -2.0670   -2.2454 O   0  0  0  0  0  0  0  0  0  0  0  0
   -0.0139    1.7187    0.5477 C   0  0  0  0  0  0  0  0  0  0  0  0
   -0.9439    2.3505    0.0515 O   0  0  0  0  0  0  0  0  0  0  0  0
    1.0263    2.4111    1.1410 N   0  0  0  0  0  0  0  0  0  0  0  0
    1.7901    1.8563    1.5170 H   0  0  0  0  0  0  0  0  0  0  0  0
    1.0997    3.8627    1.2072 C   0  0  0  0  0  0  0  0  0  0  0  0
    0.2394    4.2645    1.7521 H   0  0  0  0  0  0  0  0  0  0  0  0
    2.0124    4.1690    1.7268 H   0  0  0  0  0  0  0  0  0  0  0  0
    1.1138    4.2911    0.1998 H   0  0  0  0  0  0  0  0  0  0  0  0
  1  2  1  0  0  0  0
  2  3  1  0  0  0  0
  2  4  1  0  0  0  0
  2  5  1  0  0  0  0
  5  6  2  0  0  0  0
  5  7  1  0  0  0  0
  7  8  1  0  0  0  0
  7  9  1  0  0  0  0
  9 10  1  0  0  0  0
  9 11  1  0  0  0  0
  9 17  1  0  0  0  0
 11 12  1  0  0  0  0
 11 13  1  0  0  0  0
 11 14  1  0  0  0  0
 14 15  1  0  0  0  0
 14 16  2  0  0  0  0
 17 18  2  0  0  0  0
 17 19  1  0  0  0  0
 19 20  1  0  0  0  0
 19 21  1  0  0  0  0
 21 22  1  0  0  0  0
 21 23  1  0  0  0  0
 21 24  1  0  0  0  0
M  CHG  1  15  -1
M  END
$$$$

  -OEChem-01062216073D

 24 23  0     1  0  0  0  0  0999 V2000
   -2.4758   -3.5838    1.0154 H   0  0  0  0  0  0  0  0  0  0  0  0
   -2.3918   -2.6788    0.4076 C   0  0  0  0  0  0  0  0  0  0  0  0
   -3.3859   -2.2475    0.2699 H   0  0  0  0  0  0  0  0  0  0  0  0
   -1.9782   -2.9508   -0.5674 H   0  0  0  0  0  0  0  0  0  0  0  0
   -1.4752   -1.6773    1.0864 C   0  0  0  0  0  0  0  0  0  0  0  0
   -1.0670   -1.8905    2.2196 O   0  0  0  0  0  0  0  0  0  0  0  0
   -1.2846   -0.4323    0.5258 N   0  0  0  0  0  0  0  0  0  0  0  0
   -1.8156   -0.2820   -0.3243 H   0  0  0  0  0  0  0  0  0  0  0  0
    0.0506    0.1811    0.5024 C   0  0  1  0  0  0  0  0  0  0  0  0
    0.6691   -0.1876    1.3285 H   0  0  0  0  0  0  0  0  0  0  0  0
    0.6944   -0.1602   -0.8647 C   0  0  0  0  0  0  0  0  0  0  0  0
    0.0186    0.1521   -1.6667 H   0  0  0  0  0  0  0  0  0  0  0  0
    1.6195    0.4114   -0.9732 H   0  0  0  0  0  0  0  0  0  0  0  0
    1.0691   -1.6201   -1.0855 C   0  0  0  0  0  0  0  0  0  0  0  0
    1.3753   -2.3271   -0.0993 O   0  5  0  0  0  0  0  0  0  0  0  0
    1.0046   -2.0339   -2.2679 O   0  0  0  0  0  0  0  0  0  0  0  0
   -0.0119    1.7245    0.5626 C   0  0  0  0  0  0  0  0  0  0  0  0
   -1.0352    2.3456    0.2844 O   0  0  0  0  0  0  0  0  0  0  0  0
    1.1367    2.4354    0.8633 N   0  0  0  0  0  0  0  0  0  0  0  0
    1.9797    1.8927    1.0284 H   0  0  0  0  0  0  0  0  0  0  0  0
    1.2144    3.8885    0.8627 C   0  0  0  0  0  0  0  0  0  0  0  0
    0.4938    4.3103    1.5708 H   0  0  0  0  0  0  0  0  0  0  0  0
    2.2176    4.2107    1.1572 H   0  0  0  0  0  0  0  0  0  0  0  0
    1.0024    4.2819   -0.1367 H   0  0  0  0  0  0  0  0  0  0  0  0
  1  2  1  0  0  0  0
  2  3  1  0  0  0  0
  2  4  1  0  0  0  0
  2  5  1  0  0  0  0
  5  6  2  0  0  0  0
  5  7  1  0  0  0  0
  7  8  1  0  0  0  0
  7  9  1  0  0  0  0
  9 10  1  0  0  0  0
  9 11  1  0  0  0  0
  9 17  1  0  0  0  0
 11 12  1  0  0  0  0
 11 13  1  0  0  0  0
 11 14  1  0  0  0  0
 14 15  1  0  0  0  0
 14 16  2  0  0  0  0
 17 18  2  0  0  0  0
 17 19  1  0  0  0  0
 19 20  1  0  0  0  0
 19 21  1  0  0  0  0
 21 22  1  0  0  0  0
 21 23  1  0  0  0  0
 21 24  1  0  0  0  0
M  CHG  1  15  -1
M  END
$$$$

  -OEChem-01062216073D

 24 23  0     1  0  0  0  0  0999 V2000
   -2.5382   -3.5689    0.9561 H   0  0  0  0  0  0  0  0  0  0  0  0
   -2.4752   -2.6396    0.3834 C   0  0  0  0  0  0  0  0  0  0  0  0
   -3.4598   -2.1671    0.3621 H   0  0  0  0  0  0  0  0  0  0  0  0
   -2.1681   -2.8783   -0.6386 H   0  0  0  0  0  0  0  0  0  0  0  0
   -1.4595   -1.7046    1.0142 C   0  0  0  0  0  0  0  0  0  0  0  0
   -0.9307   -2.0072    2.0751 O   0  0  0  0  0  0  0  0  0  0  0  0
   -1.2582   -0.4553    0.4662 N   0  0  0  0  0  0  0  0  0  0  0  0
   -1.7987   -0.2791   -0.3723 H   0  0  0  0  0  0  0  0  0  0  0  0
    0.0707    0.1711    0.4848 C   0  0  1  0  0  0  0  0  0  0  0  0
    0.7612   -0.3671    1.1440 H   0  0  0  0  0  0  0  0  0  0  0  0
    0.5711    0.1278   -0.9797 C   0  0  0  0  0  0  0  0  0  0  0  0
   -0.1750    0.5925   -1.6314 H   0  0  0  0  0  0  0  0  0  0  0  0
    1.4911    0.7104   -1.0656 H   0  0  0  0  0  0  0  0  0  0  0  0
    0.8989   -1.2614   -1.5138 C   0  0  0  0  0  0  0  0  0  0  0  0
    1.2874   -2.1475   -0.7189 O   0  5  0  0  0  0  0  0  0  0  0  0
    0.7133   -1.4355   -2.7419 O   0  0  0  0  0  0  0  0  0  0  0  0
    0.0353    1.6588    0.9139 C   0  0  0  0  0  0  0  0  0  0  0  0
   -1.0172    2.2597    1.1149 O   0  0  0  0  0  0  0  0  0  0  0  0
    1.2191    2.3742    0.9778 N   0  0  0  0  0  0  0  0  0  0  0  0
    2.0700    1.8678    0.7500 H   0  0  0  0  0  0  0  0  0  0  0  0
    1.2951    3.7976    1.2705 C   0  0  0  0  0  0  0  0  0  0  0  0
    0.8619    4.0098    2.2532 H   0  0  0  0  0  0  0  0  0  0  0  0
    2.3392    4.1242    1.2750 H   0  0  0  0  0  0  0  0  0  0  0  0
    0.7548    4.3731    0.5120 H   0  0  0  0  0  0  0  0  0  0  0  0
  1  2  1  0  0  0  0
  2  3  1  0  0  0  0
  2  4  1  0  0  0  0
  2  5  1  0  0  0  0
  5  6  2  0  0  0  0
  5  7  1  0  0  0  0
  7  8  1  0  0  0  0
  7  9  1  0  0  0  0
  9 10  1  0  0  0  0
  9 11  1  0  0  0  0
  9 17  1  0  0  0  0
 11 12  1  0  0  0  0
 11 13  1  0  0  0  0
 11 14  1  0  0  0  0
 14 15  1  0  0  0  0
 14 16  2  0  0  0  0
 17 18  2  0  0  0  0
 17 19  1  0  0  0  0
 19 20  1  0  0  0  0
 19 21  1  0  0  0  0
 21 22  1  0  0  0  0
 21 23  1  0  0  0  0
 21 24  1  0  0  0  0
M  CHG  1  15  -1
M  END
$$$$

  -OEChem-01062216073D

 24 23  0     1  0  0  0  0  0999 V2000
   -2.5373   -3.5560    0.9762 H   0  0  0  0  0  0  0  0  0  0  0  0
   -2.4707   -2.6303    0.3984 C   0  0  0  0  0  0  0  0  0  0  0  0
   -3.4510   -2.1488    0.3837 H   0  0  0  0  0  0  0  0  0  0  0  0
   -2.1747   -2.8769   -0.6250 H   0  0  0  0  0  0  0  0  0  0  0  0
   -1.4410   -1.7014    1.0153 C   0  0  0  0  0  0  0  0  0  0  0  0
   -0.8992   -2.0089    2.0681 O   0  0  0  0  0  0  0  0  0  0  0  0
   -1.2422   -0.4530    0.4635 N   0  0  0  0  0  0  0  0  0  0  0  0
   -1.7869   -0.2837   -0.3733 H   0  0  0  0  0  0  0  0  0  0  0  0
    0.0884    0.1715    0.4721 C   0  0  1  0  0  0  0  0  0  0  0  0
    0.7859   -0.3631    1.1272 H   0  0  0  0  0  0  0  0  0  0  0  0
    0.5667    0.1078   -1.0022 C   0  0  0  0  0  0  0  0  0  0  0  0
   -0.1857    0.5708   -1.6479 H   0  0  0  0  0  0  0  0  0  0  0  0
    1.4913    0.6772   -1.1129 H   0  0  0  0  0  0  0  0  0  0  0  0
    0.8817   -1.2870   -1.5292 C   0  0  0  0  0  0  0  0  0  0  0  0
    1.2801   -2.1688   -0.7353 O   0  5  0  0  0  0  0  0  0  0  0  0
    0.6744   -1.4684   -2.7528 O   0  0  0  0  0  0  0  0  0  0  0  0
    0.0484    1.6632    0.9015 C   0  0  0  0  0  0  0  0  0  0  0  0
   -0.9634    2.1827    1.3650 O   0  0  0  0  0  0  0  0  0  0  0  0
    1.1421    2.4824    0.6741 N   0  0  0  0  0  0  0  0  0  0  0  0
    1.9553    2.0474    0.2479 H   0  0  0  0  0  0  0  0  0  0  0  0
    1.1726    3.9063    0.9740 C   0  0  0  0  0  0  0  0  0  0  0  0
    0.9842    4.0772    2.0389 H   0  0  0  0  0  0  0  0  0  0  0  0
    2.1540    4.3207    0.7255 H   0  0  0  0  0  0  0  0  0  0  0  0
    0.4140    4.4362    0.3893 H   0  0  0  0  0  0  0  0  0  0  0  0
  1  2  1  0  0  0  0
  2  3  1  0  0  0  0
  2  4  1  0  0  0  0
  2  5  1  0  0  0  0
  5  6  2  0  0  0  0
  5  7  1  0  0  0  0
  7  8  1  0  0  0  0
  7  9  1  0  0  0  0
  9 10  1  0  0  0  0
  9 11  1  0  0  0  0
  9 17  1  0  0  0  0
 11 12  1  0  0  0  0
 11 13  1  0  0  0  0
 11 14  1  0  0  0  0
 14 15  1  0  0  0  0
 14 16  2  0  0  0  0
 17 18  2  0  0  0  0
 17 19  1  0  0  0  0
 19 20  1  0  0  0  0
 19 21  1  0  0  0  0
 21 22  1  0  0  0  0
 21 23  1  0  0  0  0
 21 24  1  0  0  0  0
M  CHG  1  15  -1
M  END
$$$$

  -OEChem-01062216073D

 24 23  0     1  0  0  0  0  0999 V2000
   -2.5051   -3.5591    0.9664 H   0  0  0  0  0  0  0  0  0  0  0  0
   -2.4598   -2.6233    0.4027 C   0  0  0  0  0  0  0  0  0  0  0  0
   -3.4469   -2.1556    0.4090 H   0  0  0  0  0  0  0  0  0  0  0  0
   -2.1743   -2.8500   -0.6283 H   0  0  0  0  0  0  0  0  0  0  0  0
   -1.4347   -1.6895    1.0205 C   0  0  0  0  0  0  0  0  0  0  0  0
   -0.8917   -1.9965    2.0726 O   0  0  0  0  0  0  0  0  0  0  0  0
   -1.2363   -0.4429    0.4634 N   0  0  0  0  0  0  0  0  0  0  0  0
   -1.7812   -0.2833   -0.3751 H   0  0  0  0  0  0  0  0  0  0  0  0
    0.0999    0.1708    0.4583 C   0  0  1  0  0  0  0  0  0  0  0  0
    0.7992   -0.3616    1.1132 H   0  0  0  0  0  0  0  0  0  0  0  0
    0.5674    0.0822   -1.0195 C   0  0  0  0  0  0  0  0  0  0  0  0
   -0.1805    0.5488   -1.6676 H   0  0  0  0  0  0  0  0  0  0  0  0
    1.5028    0.6313   -1.1414 H   0  0  0  0  0  0  0  0  0  0  0  0
    0.8657   -1.3222   -1.5310 C   0  0  0  0  0  0  0  0  0  0  0  0
    1.2615   -2.1997   -0.7317 O   0  5  0  0  0  0  0  0  0  0  0  0
    0.6429   -1.5140   -2.7503 O   0  0  0  0  0  0  0  0  0  0  0  0
    0.0587    1.6652    0.8886 C   0  0  0  0  0  0  0  0  0  0  0  0
   -0.8375    2.1084    1.6009 O   0  0  0  0  0  0  0  0  0  0  0  0
    0.9850    2.5752    0.4031 N   0  0  0  0  0  0  0  0  0  0  0  0
    1.7007    2.2087   -0.2174 H   0  0  0  0  0  0  0  0  0  0  0  0
    0.9696    3.9994    0.7044 C   0  0  0  0  0  0  0  0  0  0  0  0
    1.0512    4.1635    1.7837 H   0  0  0  0  0  0  0  0  0  0  0  0
    1.8131    4.4950    0.2148 H   0  0  0  0  0  0  0  0  0  0  0  0
    0.0423    4.4562    0.3445 H   0  0  0  0  0  0  0  0  0  0  0  0
  1  2  1  0  0  0  0
  2  3  1  0  0  0  0
  2  4  1  0  0  0  0
  2  5  1  0  0  0  0
  5  6  2  0  0  0  0
  5  7  1  0  0  0  0
  7  8  1  0  0  0  0
  7  9  1  0  0  0  0
  9 10  1  0  0  0  0
  9 11  1  0  0  0  0
  9 17  1  0  0  0  0
 11 12  1  0  0  0  0
 11 13  1  0  0  0  0
 11 14  1  0  0  0  0
 14 15  1  0  0  0  0
 14 16  2  0  0  0  0
 17 18  2  0  0  0  0
 17 19  1  0  0  0  0
 19 20  1  0  0  0  0
 19 21  1  0  0  0  0
 21 22  1  0  0  0  0
 21 23  1  0  0  0  0
 21 24  1  0  0  0  0
M  CHG  1  15  -1
M  END
$$$$

  -OEChem-01062216073D

 24 23  0     1  0  0  0  0  0999 V2000
   -2.4837   -3.5581    0.9796 H   0  0  0  0  0  0  0  0  0  0  0  0
   -2.4435   -2.6262    0.4091 C   0  0  0  0  0  0  0  0  0  0  0  0
   -3.4357   -2.1700    0.4019 H   0  0  0  0  0  0  0  0  0  0  0  0
   -2.1451   -2.8577   -0.6171 H   0  0  0  0  0  0  0  0  0  0  0  0
   -1.4357   -1.6762    1.0303 C   0  0  0  0  0  0  0  0  0  0  0  0
   -0.9016   -1.9690    2.0906 O   0  0  0  0  0  0  0  0  0  0  0  0
   -1.2425   -0.4332    0.4622 N   0  0  0  0  0  0  0  0  0  0  0  0
   -1.7790   -0.2969   -0.3856 H   0  0  0  0  0  0  0  0  0  0  0  0
    0.0979    0.1709    0.4430 C   0  0  1  0  0  0  0  0  0  0  0  0
    0.7969   -0.3565    1.1027 H   0  0  0  0  0  0  0  0  0  0  0  0
    0.5662    0.0635   -1.0329 C   0  0  0  0  0  0  0  0  0  0  0  0
   -0.1751    0.5309   -1.6881 H   0  0  0  0  0  0  0  0  0  0  0  0
    1.5090    0.6014   -1.1508 H   0  0  0  0  0  0  0  0  0  0  0  0
    0.8567   -1.3466   -1.5318 C   0  0  0  0  0  0  0  0  0  0  0  0
    1.2466   -2.2213   -0.7272 O   0  5  0  0  0  0  0  0  0  0  0  0
    0.6279   -1.5455   -2.7489 O   0  0  0  0  0  0  0  0  0  0  0  0
    0.0536    1.6675    0.8676 C   0  0  0  0  0  0  0  0  0  0  0  0
   -0.6533    2.0490    1.7949 O   0  0  0  0  0  0  0  0  0  0  0  0
    0.7497    2.6419    0.1684 N   0  0  0  0  0  0  0  0  0  0  0  0
    1.3028    2.3263   -0.6229 H   0  0  0  0  0  0  0  0  0  0  0  0
    0.7118    4.0622    0.4858 C   0  0  0  0  0  0  0  0  0  0  0  0
    1.0604    4.2350    1.5091 H   0  0  0  0  0  0  0  0  0  0  0  0
    1.3605    4.6169   -0.1984 H   0  0  0  0  0  0  0  0  0  0  0  0
   -0.3076    4.4488    0.3873 H   0  0  0  0  0  0  0  0  0  0  0  0
  1  2  1  0  0  0  0
  2  3  1  0  0  0  0
  2  4  1  0  0  0  0
  2  5  1  0  0  0  0
  5  6  2  0  0  0  0
  5  7  1  0  0  0  0
  7  8  1  0  0  0  0
  7  9  1  0  0  0  0
  9 10  1  0  0  0  0
  9 11  1  0  0  0  0
  9 17  1  0  0  0  0
 11 12  1  0  0  0  0
 11 13  1  0  0  0  0
 11 14  1  0  0  0  0
 14 15  1  0  0  0  0
 14 16  2  0  0  0  0
 17 18  2  0  0  0  0
 17 19  1  0  0  0  0
 19 20  1  0  0  0  0
 19 21  1  0  0  0  0
 21 22  1  0  0  0  0
 21 23  1  0  0  0  0
 21 24  1  0  0  0  0
M  CHG  1  15  -1
M  END
$$$$

  -OEChem-01062216073D

 24 23  0     1  0  0  0  0  0999 V2000
   -2.5129   -3.5436    1.0203 H   0  0  0  0  0  0  0  0  0  0  0  0
   -2.4403   -2.6330    0.4195 C   0  0  0  0  0  0  0  0  0  0  0  0
   -3.4239   -2.1605    0.3706 H   0  0  0  0  0  0  0  0  0  0  0  0
   -2.1195   -2.9044   -0.5902 H   0  0  0  0  0  0  0  0  0  0  0  0
   -1.4317   -1.6798    1.0345 C   0  0  0  0  0  0  0  0  0  0  0  0
   -0.8971   -1.9677    2.0953 O   0  0  0  0  0  0  0  0  0  0  0  0
   -1.2430   -0.4385    0.4607 N   0  0  0  0  0  0  0  0  0  0  0  0
   -1.7771   -0.3159   -0.3908 H   0  0  0  0  0  0  0  0  0  0  0  0
    0.0961    0.1678    0.4326 C   0  0  1  0  0  0  0  0  0  0  0  0
    0.7979   -0.3526    1.0951 H   0  0  0  0  0  0  0  0  0  0  0  0
    0.5686    0.0573   -1.0409 C   0  0  0  0  0  0  0  0  0  0  0  0
   -0.1743    0.5151   -1.7009 H   0  0  0  0  0  0  0  0  0  0  0  0
    1.5070    0.6057   -1.1535 H   0  0  0  0  0  0  0  0  0  0  0  0
    0.8654   -1.3530   -1.5358 C   0  0  0  0  0  0  0  0  0  0  0  0
    1.2562   -2.2260   -0.7299 O   0  5  0  0  0  0  0  0  0  0  0  0
    0.6315   -1.5552   -2.7515 O   0  0  0  0  0  0  0  0  0  0  0  0
    0.0402    1.6638    0.8529 C   0  0  0  0  0  0  0  0  0  0  0  0
   -0.4318    2.0039    1.9322 O   0  0  0  0  0  0  0  0  0  0  0  0
    0.4567    2.6752    0.0002 N   0  0  0  0  0  0  0  0  0  0  0  0
    0.8289    2.3867   -0.9000 H   0  0  0  0  0  0  0  0  0  0  0  0
    0.4013    4.0931    0.3258 C   0  0  0  0  0  0  0  0  0  0  0  0
    1.0114    4.3062    1.2095 H   0  0  0  0  0  0  0  0  0  0  0  0
    0.7841    4.6854   -0.5105 H   0  0  0  0  0  0  0  0  0  0  0  0
   -0.6307    4.4001    0.5241 H   0  0  0  0  0  0  0  0  0  0  0  0
  1  2  1  0  0  0  0
  2  3  1  0  0  0  0
  2  4  1  0  0  0  0
  2  5  1  0  0  0  0
  5  6  2  0  0  0  0
  5  7  1  0  0  0  0
  7  8  1  0  0  0  0
  7  9  1  0  0  0  0
  9 10  1  0  0  0  0
  9 11  1  0  0  0  0
  9 17  1  0  0  0  0
 11 12  1  0  0  0  0
 11 13  1  0  0  0  0
 11 14  1  0  0  0  0
 14 15  1  0  0  0  0
 14 16  2  0  0  0  0
 17 18  2  0  0  0  0
 17 19  1  0  0  0  0
 19 20  1  0  0  0  0
 19 21  1  0  0  0  0
 21 22  1  0  0  0  0
 21 23  1  0  0  0  0
 21 24  1  0  0  0  0
M  CHG  1  15  -1
M  END
$$$$

  -OEChem-01062216073D

 24 23  0     1  0  0  0  0  0999 V2000
   -2.4604   -3.5809    1.0092 H   0  0  0  0  0  0  0  0  0  0  0  0
   -2.4078   -2.6670    0.4112 C   0  0  0  0  0  0  0  0  0  0  0  0
   -3.4060   -2.2287    0.3440 H   0  0  0  0  0  0  0  0  0  0  0  0
   -2.0586   -2.9259   -0.5924 H   0  0  0  0  0  0  0  0  0  0  0  0
   -1.4433   -1.6814    1.0459 C   0  0  0  0  0  0  0  0  0  0  0  0
   -0.9379   -1.9419    2.1277 O   0  0  0  0  0  0  0  0  0  0  0  0
   -1.2664   -0.4420    0.4638 N   0  0  0  0  0  0  0  0  0  0  0  0
   -1.7820   -0.3474   -0.4029 H   0  0  0  0  0  0  0  0  0  0  0  0
    0.0702    0.1697    0.4384 C   0  0  1  0  0  0  0  0  0  0  0  0
    0.7727   -0.3459    1.1040 H   0  0  0  0  0  0  0  0  0  0  0  0
    0.5463    0.0611   -1.0332 C   0  0  0  0  0  0  0  0  0  0  0  0
   -0.2010    0.5072   -1.6963 H   0  0  0  0  0  0  0  0  0  0  0  0
    1.4767    0.6243   -1.1427 H   0  0  0  0  0  0  0  0  0  0  0  0
    0.8500   -1.3482   -1.5264 C   0  0  0  0  0  0  0  0  0  0  0  0
    1.2425   -2.2202   -0.7204 O   0  5  0  0  0  0  0  0  0  0  0  0
    0.6021   -1.5547   -2.7387 O   0  0  0  0  0  0  0  0  0  0  0  0
    0.0086    1.6664    0.8493 C   0  0  0  0  0  0  0  0  0  0  0  0
   -0.2004    1.9991    2.0102 O   0  0  0  0  0  0  0  0  0  0  0  0
    0.1284    2.6788   -0.0913 N   0  0  0  0  0  0  0  0  0  0  0  0
    0.3353    2.3904   -1.0432 H   0  0  0  0  0  0  0  0  0  0  0  0
    0.0921    4.0984    0.2288 C   0  0  0  0  0  0  0  0  0  0  0  0
    0.9058    4.3570    0.9139 H   0  0  0  0  0  0  0  0  0  0  0  0
    0.2055    4.6915   -0.6834 H   0  0  0  0  0  0  0  0  0  0  0  0
   -0.8624    4.3614    0.6961 H   0  0  0  0  0  0  0  0  0  0  0  0
  1  2  1  0  0  0  0
  2  3  1  0  0  0  0
  2  4  1  0  0  0  0
  2  5  1  0  0  0  0
  5  6  2  0  0  0  0
  5  7  1  0  0  0  0
  7  8  1  0  0  0  0
  7  9  1  0  0  0  0
  9 10  1  0  0  0  0
  9 11  1  0  0  0  0
  9 17  1  0  0  0  0
 11 12  1  0  0  0  0
 11 13  1  0  0  0  0
 11 14  1  0  0  0  0
 14 15  1  0  0  0  0
 14 16  2  0  0  0  0
 17 18  2  0  0  0  0
 17 19  1  0  0  0  0
 19 20  1  0  0  0  0
 19 21  1  0  0  0  0
 21 22  1  0  0  0  0
 21 23  1  0  0  0  0
 21 24  1  0  0  0  0
M  CHG  1  15  -1
M  END
$$$$

  -OEChem-01062216073D

 24 23  0     1  0  0  0  0  0999 V2000
   -2.4356   -3.6089    1.0085 H   0  0  0  0  0  0  0  0  0  0  0  0
   -2.3718   -2.7053    0.3961 C   0  0  0  0  0  0  0  0  0  0  0  0
   -3.3732   -2.2867    0.2744 H   0  0  0  0  0  0  0  0  0  0  0  0
   -1.9720   -2.9761   -0.5852 H   0  0  0  0  0  0  0  0  0  0  0  0
   -1.4549   -1.6907    1.0550 C   0  0  0  0  0  0  0  0  0  0  0  0
   -0.9840   -1.9258    2.1578 O   0  0  0  0  0  0  0  0  0  0  0  0
   -1.2905   -0.4506    0.4712 N   0  0  0  0  0  0  0  0  0  0  0  0
   -1.7875   -0.3796   -0.4086 H   0  0  0  0  0  0  0  0  0  0  0  0
    0.0434    0.1672    0.4503 C   0  0  1  0  0  0  0  0  0  0  0  0
    0.7472   -0.3474    1.1160 H   0  0  0  0  0  0  0  0  0  0  0  0
    0.5229    0.0707   -1.0200 C   0  0  0  0  0  0  0  0  0  0  0  0
   -0.2271    0.5096   -1.6843 H   0  0  0  0  0  0  0  0  0  0  0  0
    1.4457    0.6479   -1.1241 H   0  0  0  0  0  0  0  0  0  0  0  0
    0.8334   -1.3360   -1.5169 C   0  0  0  0  0  0  0  0  0  0  0  0
    1.2272   -2.2089   -0.7123 O   0  5  0  0  0  0  0  0  0  0  0  0
    0.5717   -1.5444   -2.7260 O   0  0  0  0  0  0  0  0  0  0  0  0
   -0.0238    1.6617    0.8596 C   0  0  0  0  0  0  0  0  0  0  0  0
    0.0685    2.0065    2.0319 O   0  0  0  0  0  0  0  0  0  0  0  0
   -0.2139    2.6536   -0.0908 N   0  0  0  0  0  0  0  0  0  0  0  0
   -0.2069    2.3553   -1.0615 H   0  0  0  0  0  0  0  0  0  0  0  0
   -0.2240    4.0772    0.2125 C   0  0  0  0  0  0  0  0  0  0  0  0
    0.7441    4.3880    0.6182 H   0  0  0  0  0  0  0  0  0  0  0  0
   -0.4212    4.6526   -0.6967 H   0  0  0  0  0  0  0  0  0  0  0  0
   -1.0061    4.3078    0.9431 H   0  0  0  0  0  0  0  0  0  0  0  0
  1  2  1  0  0  0  0
  2  3  1  0  0  0  0
  2  4  1  0  0  0  0
  2  5  1  0  0  0  0
  5  6  2  0  0  0  0
  5  7  1  0  0  0  0
  7  8  1  0  0  0  0
  7  9  1  0  0  0  0
  9 10  1  0  0  0  0
  9 11  1  0  0  0  0
  9 17  1  0  0  0  0
 11 12  1  0  0  0  0
 11 13  1  0  0  0  0
 11 14  1  0  0  0  0
 14 15  1  0  0  0  0
 14 16  2  0  0  0  0
 17 18  2  0  0  0  0
 17 19  1  0  0  0  0
 19 20  1  0  0  0  0
 19 21  1  0  0  0  0
 21 22  1  0  0  0  0
 21 23  1  0  0  0  0
 21 24  1  0  0  0  0
M  CHG  1  15  -1
M  END
$$$$

  -OEChem-01062216073D

 24 23  0     1  0  0  0  0  0999 V2000
   -2.3773   -3.6533    0.9829 H   0  0  0  0  0  0  0  0  0  0  0  0
   -2.3369   -2.7420    0.3801 C   0  0  0  0  0  0  0  0  0  0  0  0
   -3.3504   -2.3572    0.2479 H   0  0  0  0  0  0  0  0  0  0  0  0
   -1.9147   -2.9892   -0.5983 H   0  0  0  0  0  0  0  0  0  0  0  0
   -1.4652   -1.7034    1.0623 C   0  0  0  0  0  0  0  0  0  0  0  0
   -1.0325   -1.9157    2.1852 O   0  0  0  0  0  0  0  0  0  0  0  0
   -1.3101   -0.4612    0.4809 N   0  0  0  0  0  0  0  0  0  0  0  0
   -1.7860   -0.4100   -0.4121 H   0  0  0  0  0  0  0  0  0  0  0  0
    0.0243    0.1567    0.4694 C   0  0  1  0  0  0  0  0  0  0  0  0
    0.7278   -0.3640    1.1307 H   0  0  0  0  0  0  0  0  0  0  0  0
    0.5055    0.0840   -1.0002 C   0  0  0  0  0  0  0  0  0  0  0  0
   -0.2399    0.5342   -1.6616 H   0  0  0  0  0  0  0  0  0  0  0  0
    1.4276    0.6642   -1.0920 H   0  0  0  0  0  0  0  0  0  0  0  0
    0.8147   -1.3173   -1.5134 C   0  0  0  0  0  0  0  0  0  0  0  0
    1.2055   -2.2000   -0.7177 O   0  5  0  0  0  0  0  0  0  0  0  0
    0.5328   -1.5175   -2.7194 O   0  0  0  0  0  0  0  0  0  0  0  0
   -0.0442    1.6475    0.8835 C   0  0  0  0  0  0  0  0  0  0  0  0
    0.3436    2.0254    1.9829 O   0  0  0  0  0  0  0  0  0  0  0  0
   -0.5310    2.6001    0.0015 N   0  0  0  0  0  0  0  0  0  0  0  0
   -0.7441    2.2776   -0.9369 H   0  0  0  0  0  0  0  0  0  0  0  0
   -0.5344    4.0296    0.2751 C   0  0  0  0  0  0  0  0  0  0  0  0
    0.4881    4.3928    0.4202 H   0  0  0  0  0  0  0  0  0  0  0  0
   -0.9793    4.5708   -0.5651 H   0  0  0  0  0  0  0  0  0  0  0  0
   -1.1197    4.2467    1.1745 H   0  0  0  0  0  0  0  0  0  0  0  0
  1  2  1  0  0  0  0
  2  3  1  0  0  0  0
  2  4  1  0  0  0  0
  2  5  1  0  0  0  0
  5  6  2  0  0  0  0
  5  7  1  0  0  0  0
  7  8  1  0  0  0  0
  7  9  1  0  0  0  0
  9 10  1  0  0  0  0
  9 11  1  0  0  0  0
  9 17  1  0  0  0  0
 11 12  1  0  0  0  0
 11 13  1  0  0  0  0
 11 14  1  0  0  0  0
 14 15  1  0  0  0  0
 14 16  2  0  0  0  0
 17 18  2  0  0  0  0
 17 19  1  0  0  0  0
 19 20  1  0  0  0  0
 19 21  1  0  0  0  0
 21 22  1  0  0  0  0
 21 23  1  0  0  0  0
 21 24  1  0  0  0  0
M  CHG  1  15  -1
M  END
$$$$

  -OEChem-01062216073D

 24 23  0     1  0  0  0  0  0999 V2000
   -2.3545   -3.6762    0.9677 H   0  0  0  0  0  0  0  0  0  0  0  0
   -2.2949   -2.7728    0.3548 C   0  0  0  0  0  0  0  0  0  0  0  0
   -3.3053   -2.4073    0.1591 H   0  0  0  0  0  0  0  0  0  0  0  0
   -1.8132   -3.0263   -0.5940 H   0  0  0  0  0  0  0  0  0  0  0  0
   -1.4808   -1.7094    1.0691 C   0  0  0  0  0  0  0  0  0  0  0  0
   -1.1007   -1.8976    2.2152 O   0  0  0  0  0  0  0  0  0  0  0  0
   -1.3275   -0.4665    0.4893 N   0  0  0  0  0  0  0  0  0  0  0  0
   -1.7718   -0.4389   -0.4212 H   0  0  0  0  0  0  0  0  0  0  0  0
    0.0119    0.1413    0.4913 C   0  0  1  0  0  0  0  0  0  0  0  0
    0.7112   -0.3917    1.1475 H   0  0  0  0  0  0  0  0  0  0  0  0
    0.4892    0.0907   -0.9783 C   0  0  0  0  0  0  0  0  0  0  0  0
   -0.2503    0.5643   -1.6302 H   0  0  0  0  0  0  0  0  0  0  0  0
    1.4181    0.6615   -1.0607 H   0  0  0  0  0  0  0  0  0  0  0  0
    0.7828   -1.3073   -1.5094 C   0  0  0  0  0  0  0  0  0  0  0  0
    1.1652   -2.2032   -0.7240 O   0  5  0  0  0  0  0  0  0  0  0  0
    0.4721   -1.4968   -2.7099 O   0  0  0  0  0  0  0  0  0  0  0  0
   -0.0440    1.6294    0.9090 C   0  0  0  0  0  0  0  0  0  0  0  0
    0.6044    2.0531    1.8589 O   0  0  0  0  0  0  0  0  0  0  0  0
   -0.7881    2.5328    0.1664 N   0  0  0  0  0  0  0  0  0  0  0  0
   -1.2342    2.1723   -0.6701 H   0  0  0  0  0  0  0  0  0  0  0  0
   -0.8116    3.9651    0.4226 C   0  0  0  0  0  0  0  0  0  0  0  0
    0.1889    4.3918    0.2978 H   0  0  0  0  0  0  0  0  0  0  0  0
   -1.4905    4.4605   -0.2777 H   0  0  0  0  0  0  0  0  0  0  0  0
   -1.1588    4.1661    1.4412 H   0  0  0  0  0  0  0  0  0  0  0  0
  1  2  1  0  0  0  0
  2  3  1  0  0  0  0
  2  4  1  0  0  0  0
  2  5  1  0  0  0  0
  5  6  2  0  0  0  0
  5  7  1  0  0  0  0
  7  8  1  0  0  0  0
  7  9  1  0  0  0  0
  9 10  1  0  0  0  0
  9 11  1  0  0  0  0
  9 17  1  0  0  0  0
 11 12  1  0  0  0  0
 11 13  1  0  0  0  0
 11 14  1  0  0  0  0
 14 15  1  0  0  0  0
 14 16  2  0  0  0  0
 17 18  2  0  0  0  0
 17 19  1  0  0  0  0
 19 20  1  0  0  0  0
 19 21  1  0  0  0  0
 21 22  1  0  0  0  0
 21 23  1  0  0  0  0
 21 24  1  0  0  0  0
M  CHG  1  15  -1
M  END
$$$$

  -OEChem-01062216073D

 24 23  0     1  0  0  0  0  0999 V2000
   -2.3211   -3.6912    0.9497 H   0  0  0  0  0  0  0  0  0  0  0  0
   -2.2683   -2.7874    0.3367 C   0  0  0  0  0  0  0  0  0  0  0  0
   -3.2819   -2.4412    0.1237 H   0  0  0  0  0  0  0  0  0  0  0  0
   -1.7668   -3.0335   -0.6040 H   0  0  0  0  0  0  0  0  0  0  0  0
   -1.4861   -1.7086    1.0635 C   0  0  0  0  0  0  0  0  0  0  0  0
   -1.1497   -1.8733    2.2270 O   0  0  0  0  0  0  0  0  0  0  0  0
   -1.3296   -0.4674    0.4816 N   0  0  0  0  0  0  0  0  0  0  0  0
   -1.7444   -0.4617   -0.4438 H   0  0  0  0  0  0  0  0  0  0  0  0
    0.0159    0.1288    0.4935 C   0  0  1  0  0  0  0  0  0  0  0  0
    0.7084   -0.4128    1.1500 H   0  0  0  0  0  0  0  0  0  0  0  0
    0.4938    0.0836   -0.9744 C   0  0  0  0  0  0  0  0  0  0  0  0
   -0.2393    0.5732   -1.6223 H   0  0  0  0  0  0  0  0  0  0  0  0
    1.4294    0.6441   -1.0523 H   0  0  0  0  0  0  0  0  0  0  0  0
    0.7728   -1.3167   -1.5087 C   0  0  0  0  0  0  0  0  0  0  0  0
    1.1441   -2.2170   -0.7221 O   0  5  0  0  0  0  0  0  0  0  0  0
    0.4452   -1.5072   -2.7045 O   0  0  0  0  0  0  0  0  0  0  0  0
   -0.0224    1.6168    0.9101 C   0  0  0  0  0  0  0  0  0  0  0  0
    0.8314    2.0967    1.6474 O   0  0  0  0  0  0  0  0  0  0  0  0
   -0.9765    2.4632    0.3690 N   0  0  0  0  0  0  0  0  0  0  0  0
   -1.6698    2.0382   -0.2361 H   0  0  0  0  0  0  0  0  0  0  0  0
   -1.0612    3.8856    0.6642 C   0  0  0  0  0  0  0  0  0  0  0  0
   -0.1418    4.3946    0.3575 H   0  0  0  0  0  0  0  0  0  0  0  0
   -1.9006    4.3315    0.1229 H   0  0  0  0  0  0  0  0  0  0  0  0
   -1.2153    4.0455    1.7362 H   0  0  0  0  0  0  0  0  0  0  0  0
  1  2  1  0  0  0  0
  2  3  1  0  0  0  0
  2  4  1  0  0  0  0
  2  5  1  0  0  0  0
  5  6  2  0  0  0  0
  5  7  1  0  0  0  0
  7  8  1  0  0  0  0
  7  9  1  0  0  0  0
  9 10  1  0  0  0  0
  9 11  1  0  0  0  0
  9 17  1  0  0  0  0
 11 12  1  0  0  0  0
 11 13  1  0  0  0  0
 11 14  1  0  0  0  0
 14 15  1  0  0  0  0
 14 16  2  0  0  0  0
 17 18  2  0  0  0  0
 17 19  1  0  0  0  0
 19 20  1  0  0  0  0
 19 21  1  0  0  0  0
 21 22  1  0  0  0  0
 21 23  1  0  0  0  0
 21 24  1  0  0  0  0
M  CHG  1  15  -1
M  END
$$$$

  -OEChem-01062216073D

 24 23  0     1  0  0  0  0  0999 V2000
   -2.3305   -3.6900    0.9404 H   0  0  0  0  0  0  0  0  0  0  0  0
   -2.2531   -2.7963    0.3153 C   0  0  0  0  0  0  0  0  0  0  0  0
   -3.2576   -2.4510    0.0614 H   0  0  0  0  0  0  0  0  0  0  0  0
   -1.7207   -3.0590   -0.6035 H   0  0  0  0  0  0  0  0  0  0  0  0
   -1.4919   -1.7081    1.0508 C   0  0  0  0  0  0  0  0  0  0  0  0
   -1.1880   -1.8559    2.2256 O   0  0  0  0  0  0  0  0  0  0  0  0
   -1.3298   -0.4685    0.4678 N   0  0  0  0  0  0  0  0  0  0  0  0
   -1.7240   -0.4719   -0.4675 H   0  0  0  0  0  0  0  0  0  0  0  0
    0.0193    0.1219    0.4904 C   0  0  1  0  0  0  0  0  0  0  0  0
    0.7052   -0.4232    1.1509 H   0  0  0  0  0  0  0  0  0  0  0  0
    0.5021    0.0739   -0.9749 C   0  0  0  0  0  0  0  0  0  0  0  0
   -0.2253    0.5703   -1.6241 H   0  0  0  0  0  0  0  0  0  0  0  0
    1.4418    0.6281   -1.0501 H   0  0  0  0  0  0  0  0  0  0  0  0
    0.7747   -1.3293   -1.5046 C   0  0  0  0  0  0  0  0  0  0  0  0
    1.1375   -2.2287   -0.7124 O   0  5  0  0  0  0  0  0  0  0  0  0
    0.4430   -1.5254   -2.6983 O   0  0  0  0  0  0  0  0  0  0  0  0
   -0.0104    1.6106    0.9048 C   0  0  0  0  0  0  0  0  0  0  0  0
    0.9699    2.1551    1.4008 O   0  0  0  0  0  0  0  0  0  0  0  0
   -1.1191    2.3862    0.6105 N   0  0  0  0  0  0  0  0  0  0  0  0
   -1.9406    1.8830    0.2934 H   0  0  0  0  0  0  0  0  0  0  0  0
   -1.2393    3.7917    0.9675 C   0  0  0  0  0  0  0  0  0  0  0  0
   -0.4457    4.3761    0.4911 H   0  0  0  0  0  0  0  0  0  0  0  0
   -2.2043    4.1828    0.6323 H   0  0  0  0  0  0  0  0  0  0  0  0
   -1.1706    3.9181    2.0528 H   0  0  0  0  0  0  0  0  0  0  0  0
  1  2  1  0  0  0  0
  2  3  1  0  0  0  0
  2  4  1  0  0  0  0
  2  5  1  0  0  0  0
  5  6  2  0  0  0  0
  5  7  1  0  0  0  0
  7  8  1  0  0  0  0
  7  9  1  0  0  0  0
  9 10  1  0  0  0  0
  9 11  1  0  0  0  0
  9 17  1  0  0  0  0
 11 12  1  0  0  0  0
 11 13  1  0  0  0  0
 11 14  1  0  0  0  0
 14 15  1  0  0  0  0
 14 16  2  0  0  0  0
 17 18  2  0  0  0  0
 17 19  1  0  0  0  0
 19 20  1  0  0  0  0
 19 21  1  0  0  0  0
 21 22  1  0  0  0  0
 21 23  1  0  0  0  0
 21 24  1  0  0  0  0
M  CHG  1  15  -1
M  END
$$$$

  -OEChem-01062216073D

 24 23  0     1  0  0  0  0  0999 V2000
   -2.3165   -3.6929    0.9083 H   0  0  0  0  0  0  0  0  0  0  0  0
   -2.2450   -2.7952    0.2885 C   0  0  0  0  0  0  0  0  0  0  0  0
   -3.2513   -2.4556    0.0343 H   0  0  0  0  0  0  0  0  0  0  0  0
   -1.7087   -3.0489   -0.6308 H   0  0  0  0  0  0  0  0  0  0  0  0
   -1.4941   -1.7053    1.0318 C   0  0  0  0  0  0  0  0  0  0  0  0
   -1.2145   -1.8433    2.2140 O   0  0  0  0  0  0  0  0  0  0  0  0
   -1.3272   -0.4653    0.4520 N   0  0  0  0  0  0  0  0  0  0  0  0
   -1.7156   -0.4630   -0.4864 H   0  0  0  0  0  0  0  0  0  0  0  0
    0.0239    0.1218    0.4810 C   0  0  1  0  0  0  0  0  0  0  0  0
    0.7035   -0.4237    1.1474 H   0  0  0  0  0  0  0  0  0  0  0  0
    0.5108    0.0595   -0.9826 C   0  0  0  0  0  0  0  0  0  0  0  0
   -0.2140    0.5528   -1.6372 H   0  0  0  0  0  0  0  0  0  0  0  0
    1.4530    0.6087   -1.0621 H   0  0  0  0  0  0  0  0  0  0  0  0
    0.7793   -1.3509   -1.4964 C   0  0  0  0  0  0  0  0  0  0  0  0
    1.1362   -2.2419   -0.6915 O   0  5  0  0  0  0  0  0  0  0  0  0
    0.4425   -1.5626   -2.6861 O   0  0  0  0  0  0  0  0  0  0  0  0
   -0.0030    1.6106    0.8987 C   0  0  0  0  0  0  0  0  0  0  0  0
    1.0266    2.2208    1.1665 O   0  0  0  0  0  0  0  0  0  0  0  0
   -1.2001    2.3058    0.8891 N   0  0  0  0  0  0  0  0  0  0  0  0
   -2.0333    1.7321    0.8024 H   0  0  0  0  0  0  0  0  0  0  0  0
   -1.3323    3.6886    1.3229 C   0  0  0  0  0  0  0  0  0  0  0  0
   -0.6997    4.3425    0.7140 H   0  0  0  0  0  0  0  0  0  0  0  0
   -2.3702    4.0172    1.2166 H   0  0  0  0  0  0  0  0  0  0  0  0
   -1.0403    3.7900    2.3731 H   0  0  0  0  0  0  0  0  0  0  0  0
  1  2  1  0  0  0  0
  2  3  1  0  0  0  0
  2  4  1  0  0  0  0
  2  5  1  0  0  0  0
  5  6  2  0  0  0  0
  5  7  1  0  0  0  0
  7  8  1  0  0  0  0
  7  9  1  0  0  0  0
  9 10  1  0  0  0  0
  9 11  1  0  0  0  0
  9 17  1  0  0  0  0
 11 12  1  0  0  0  0
 11 13  1  0  0  0  0
 11 14  1  0  0  0  0
 14 15  1  0  0  0  0
 14 16  2  0  0  0  0
 17 18  2  0  0  0  0
 17 19  1  0  0  0  0
 19 20  1  0  0  0  0
 19 21  1  0  0  0  0
 21 22  1  0  0  0  0
 21 23  1  0  0  0  0
 21 24  1  0  0  0  0
M  CHG  1  15  -1
M  END
$$$$

  -OEChem-01062216073D

 24 23  0     1  0  0  0  0  0999 V2000
   -2.3159   -3.6861    0.8854 H   0  0  0  0  0  0  0  0  0  0  0  0
   -2.2435   -2.7875    0.2670 C   0  0  0  0  0  0  0  0  0  0  0  0
   -3.2495   -2.4480    0.0111 H   0  0  0  0  0  0  0  0  0  0  0  0
   -1.7053   -3.0399   -0.6514 H   0  0  0  0  0  0  0  0  0  0  0  0
   -1.4944   -1.6986    1.0137 C   0  0  0  0  0  0  0  0  0  0  0  0
   -1.2303   -1.8306    2.2003 O   0  0  0  0  0  0  0  0  0  0  0  0
   -1.3229   -0.4568    0.4397 N   0  0  0  0  0  0  0  0  0  0  0  0
   -1.7155   -0.4422   -0.4969 H   0  0  0  0  0  0  0  0  0  0  0  0
    0.0307    0.1253    0.4699 C   0  0  1  0  0  0  0  0  0  0  0  0
    0.7058   -0.4214    1.1395 H   0  0  0  0  0  0  0  0  0  0  0  0
    0.5208    0.0508   -0.9932 C   0  0  0  0  0  0  0  0  0  0  0  0
   -0.1998    0.5437   -1.6525 H   0  0  0  0  0  0  0  0  0  0  0  0
    1.4663    0.5932   -1.0764 H   0  0  0  0  0  0  0  0  0  0  0  0
    0.7839   -1.3649   -1.4953 C   0  0  0  0  0  0  0  0  0  0  0  0
    1.1351   -2.2508   -0.6818 O   0  5  0  0  0  0  0  0  0  0  0  0
    0.4515   -1.5856   -2.6846 O   0  0  0  0  0  0  0  0  0  0  0  0
    0.0021    1.6133    0.8957 C   0  0  0  0  0  0  0  0  0  0  0  0
    1.0215    2.2939    0.9436 O   0  0  0  0  0  0  0  0  0  0  0  0
   -1.2087    2.2162    1.1891 N   0  0  0  0  0  0  0  0  0  0  0  0
   -1.9952    1.5788    1.2791 H   0  0  0  0  0  0  0  0  0  0  0  0
   -1.3329    3.5746    1.6959 C   0  0  0  0  0  0  0  0  0  0  0  0
   -0.8973    4.2880    0.9890 H   0  0  0  0  0  0  0  0  0  0  0  0
   -2.3879    3.8278    1.8349 H   0  0  0  0  0  0  0  0  0  0  0  0
   -0.8212    3.6713    2.6588 H   0  0  0  0  0  0  0  0  0  0  0  0
  1  2  1  0  0  0  0
  2  3  1  0  0  0  0
  2  4  1  0  0  0  0
  2  5  1  0  0  0  0
  5  6  2  0  0  0  0
  5  7  1  0  0  0  0
  7  8  1  0  0  0  0
  7  9  1  0  0  0  0
  9 10  1  0  0  0  0
  9 11  1  0  0  0  0
  9 17  1  0  0  0  0
 11 12  1  0  0  0  0
 11 13  1  0  0  0  0
 11 14  1  0  0  0  0
 14 15  1  0  0  0  0
 14 16  2  0  0  0  0
 17 18  2  0  0  0  0
 17 19  1  0  0  0  0
 19 20  1  0  0  0  0
 19 21  1  0  0  0  0
 21 22  1  0  0  0  0
 21 23  1  0  0  0  0
 21 24  1  0  0  0  0
M  CHG  1  15  -1
M  END
$$$$

  -OEChem-01062216073D

 24 23  0     1  0  0  0  0  0999 V2000
   -2.3402   -3.6592    0.8716 H   0  0  0  0  0  0  0  0  0  0  0  0
   -2.2537   -2.7628    0.2518 C   0  0  0  0  0  0  0  0  0  0  0  0
   -3.2540   -2.4085   -0.0064 H   0  0  0  0  0  0  0  0  0  0  0  0
   -1.7179   -3.0246   -0.6653 H   0  0  0  0  0  0  0  0  0  0  0  0
   -1.4894   -1.6842    0.9974 C   0  0  0  0  0  0  0  0  0  0  0  0
   -1.2294   -1.8160    2.1852 O   0  0  0  0  0  0  0  0  0  0  0  0
   -1.3126   -0.4401    0.4314 N   0  0  0  0  0  0  0  0  0  0  0  0
   -1.7176   -0.4088   -0.4994 H   0  0  0  0  0  0  0  0  0  0  0  0
    0.0439    0.1348    0.4544 C   0  0  1  0  0  0  0  0  0  0  0  0
    0.7162   -0.4125    1.1261 H   0  0  0  0  0  0  0  0  0  0  0  0
    0.5345    0.0444   -1.0089 C   0  0  0  0  0  0  0  0  0  0  0  0
   -0.1834    0.5351   -1.6728 H   0  0  0  0  0  0  0  0  0  0  0  0
    1.4838    0.5791   -1.0986 H   0  0  0  0  0  0  0  0  0  0  0  0
    0.7906   -1.3777   -1.4970 C   0  0  0  0  0  0  0  0  0  0  0  0
    1.1371   -2.2560   -0.6729 O   0  5  0  0  0  0  0  0  0  0  0  0
    0.4626   -1.6101   -2.6852 O   0  0  0  0  0  0  0  0  0  0  0  0
    0.0085    1.6204    0.8925 C   0  0  0  0  0  0  0  0  0  0  0  0
    0.9565    2.3813    0.7254 O   0  0  0  0  0  0  0  0  0  0  0  0
   -1.1369    2.1175    1.4892 N   0  0  0  0  0  0  0  0  0  0  0  0
   -1.8334    1.4165    1.7306 H   0  0  0  0  0  0  0  0  0  0  0  0
   -1.2429    3.4525    2.0582 C   0  0  0  0  0  0  0  0  0  0  0  0
   -1.0413    4.2118    1.2958 H   0  0  0  0  0  0  0  0  0  0  0  0
   -2.2525    3.6143    2.4472 H   0  0  0  0  0  0  0  0  0  0  0  0
   -0.5293    3.5754    2.8791 H   0  0  0  0  0  0  0  0  0  0  0  0
  1  2  1  0  0  0  0
  2  3  1  0  0  0  0
  2  4  1  0  0  0  0
  2  5  1  0  0  0  0
  5  6  2  0  0  0  0
  5  7  1  0  0  0  0
  7  8  1  0  0  0  0
  7  9  1  0  0  0  0
  9 10  1  0  0  0  0
  9 11  1  0  0  0  0
  9 17  1  0  0  0  0
 11 12  1  0  0  0  0
 11 13  1  0  0  0  0
 11 14  1  0  0  0  0
 14 15  1  0  0  0  0
 14 16  2  0  0  0  0
 17 18  2  0  0  0  0
 17 19  1  0  0  0  0
 19 20  1  0  0  0  0
 19 21  1  0  0  0  0
 21 22  1  0  0  0  0
 21 23  1  0  0  0  0
 21 24  1  0  0  0  0
M  CHG  1  15  -1
M  END
$$$$

  -OEChem-01062216073D

 24 23  0     1  0  0  0  0  0999 V2000
   -2.3570   -3.6316    0.8532 H   0  0  0  0  0  0  0  0  0  0  0  0
   -2.2709   -2.7296    0.2416 C   0  0  0  0  0  0  0  0  0  0  0  0
   -3.2715   -2.3627    0.0031 H   0  0  0  0  0  0  0  0  0  0  0  0
   -1.7521   -2.9867   -0.6865 H   0  0  0  0  0  0  0  0  0  0  0  0
   -1.4849   -1.6664    0.9873 C   0  0  0  0  0  0  0  0  0  0  0  0
   -1.2215   -1.8041    2.1741 O   0  0  0  0  0  0  0  0  0  0  0  0
   -1.2997   -0.4188    0.4332 N   0  0  0  0  0  0  0  0  0  0  0  0
   -1.7194   -0.3662   -0.4898 H   0  0  0  0  0  0  0  0  0  0  0  0
    0.0617    0.1423    0.4468 C   0  0  1  0  0  0  0  0  0  0  0  0
    0.7310   -0.4110    1.1163 H   0  0  0  0  0  0  0  0  0  0  0  0
    0.5525    0.0427   -1.0166 C   0  0  0  0  0  0  0  0  0  0  0  0
   -0.1607    0.5373   -1.6826 H   0  0  0  0  0  0  0  0  0  0  0  0
    1.5070    0.5676   -1.1075 H   0  0  0  0  0  0  0  0  0  0  0  0
    0.7963   -1.3833   -1.4993 C   0  0  0  0  0  0  0  0  0  0  0  0
    1.1346   -2.2603   -0.6701 O   0  5  0  0  0  0  0  0  0  0  0  0
    0.4751   -1.6185   -2.6888 O   0  0  0  0  0  0  0  0  0  0  0  0
    0.0245    1.6223    0.9035 C   0  0  0  0  0  0  0  0  0  0  0  0
    0.8326    2.4651    0.5255 O   0  0  0  0  0  0  0  0  0  0  0  0
   -0.9719    2.0132    1.7799 N   0  0  0  0  0  0  0  0  0  0  0  0
   -1.5531    1.2593    2.1411 H   0  0  0  0  0  0  0  0  0  0  0  0
   -1.0725    3.3412    2.3653 C   0  0  0  0  0  0  0  0  0  0  0  0
   -1.1403    4.1018    1.5808 H   0  0  0  0  0  0  0  0  0  0  0  0
   -1.9686    3.4084    2.9890 H   0  0  0  0  0  0  0  0  0  0  0  0
   -0.1973    3.5508    2.9883 H   0  0  0  0  0  0  0  0  0  0  0  0
  1  2  1  0  0  0  0
  2  3  1  0  0  0  0
  2  4  1  0  0  0  0
  2  5  1  0  0  0  0
  5  6  2  0  0  0  0
  5  7  1  0  0  0  0
  7  8  1  0  0  0  0
  7  9  1  0  0  0  0
  9 10  1  0  0  0  0
  9 11  1  0  0  0  0
  9 17  1  0  0  0  0
 11 12  1  0  0  0  0
 11 13  1  0  0  0  0
 11 14  1  0  0  0  0
 14 15  1  0  0  0  0
 14 16  2  0  0  0  0
 17 18  2  0  0  0  0
 17 19  1  0  0  0  0
 19 20  1  0  0  0  0
 19 21  1  0  0  0  0
 21 22  1  0  0  0  0
 21 23  1  0  0  0  0
 21 24  1  0  0  0  0
M  CHG  1  15  -1
M  END
$$$$

  -OEChem-01062216073D

 24 23  0     1  0  0  0  0  0999 V2000
   -2.3833   -3.5941    0.8507 H   0  0  0  0  0  0  0  0  0  0  0  0
   -2.2884   -2.6930    0.2392 C   0  0  0  0  0  0  0  0  0  0  0  0
   -3.2854   -2.3148    0.0028 H   0  0  0  0  0  0  0  0  0  0  0  0
   -1.7745   -2.9554   -0.6902 H   0  0  0  0  0  0  0  0  0  0  0  0
   -1.4883   -1.6395    0.9833 C   0  0  0  0  0  0  0  0  0  0  0  0
   -1.2183   -1.7813    2.1687 O   0  0  0  0  0  0  0  0  0  0  0  0
   -1.2930   -0.3913    0.4351 N   0  0  0  0  0  0  0  0  0  0  0  0
   -1.7244   -0.3224   -0.4813 H   0  0  0  0  0  0  0  0  0  0  0  0
    0.0749    0.1502    0.4395 C   0  0  1  0  0  0  0  0  0  0  0  0
    0.7390   -0.4104    1.1081 H   0  0  0  0  0  0  0  0  0  0  0  0
    0.5709    0.0412   -1.0216 C   0  0  0  0  0  0  0  0  0  0  0  0
   -0.1352    0.5407   -1.6916 H   0  0  0  0  0  0  0  0  0  0  0  0
    1.5306    0.5572   -1.1091 H   0  0  0  0  0  0  0  0  0  0  0  0
    0.7998   -1.3890   -1.4991 C   0  0  0  0  0  0  0  0  0  0  0  0
    1.1240   -2.2663   -0.6642 O   0  5  0  0  0  0  0  0  0  0  0  0
    0.4912   -1.6248   -2.6917 O   0  0  0  0  0  0  0  0  0  0  0  0
    0.0440    1.6250    0.9081 C   0  0  0  0  0  0  0  0  0  0  0  0
    0.6595    2.5326    0.3565 O   0  0  0  0  0  0  0  0  0  0  0  0
   -0.7295    1.9284    2.0133 N   0  0  0  0  0  0  0  0  0  0  0  0
   -1.1908    1.1368    2.4594 H   0  0  0  0  0  0  0  0  0  0  0  0
   -0.8235    3.2504    2.6125 C   0  0  0  0  0  0  0  0  0  0  0  0
   -1.2193    3.9707    1.8897 H   0  0  0  0  0  0  0  0  0  0  0  0
   -1.4935    3.2231    3.4768 H   0  0  0  0  0  0  0  0  0  0  0  0
    0.1622    3.5885    2.9474 H   0  0  0  0  0  0  0  0  0  0  0  0
  1  2  1  0  0  0  0
  2  3  1  0  0  0  0
  2  4  1  0  0  0  0
  2  5  1  0  0  0  0
  5  6  2  0  0  0  0
  5  7  1  0  0  0  0
  7  8  1  0  0  0  0
  7  9  1  0  0  0  0
  9 10  1  0  0  0  0
  9 11  1  0  0  0  0
  9 17  1  0  0  0  0
 11 12  1  0  0  0  0
 11 13  1  0  0  0  0
 11 14  1  0  0  0  0
 14 15  1  0  0  0  0
 14 16  2  0  0  0  0
 17 18  2  0  0  0  0
 17 19  1  0  0  0  0
 19 20  1  0  0  0  0
 19 21  1  0  0  0  0
 21 22  1  0  0  0  0
 21 23  1  0  0  0  0
 21 24  1  0  0  0  0
M  CHG  1  15  -1
M  END
$$$$

  -OEChem-01062216073D

 24 23  0     1  0  0  0  0  0999 V2000
   -2.4251   -3.5510    0.8545 H   0  0  0  0  0  0  0  0  0  0  0  0
   -2.3128   -2.6516    0.2432 C   0  0  0  0  0  0  0  0  0  0  0  0
   -3.3023   -2.2534    0.0080 H   0  0  0  0  0  0  0  0  0  0  0  0
   -1.8051   -2.9238   -0.6869 H   0  0  0  0  0  0  0  0  0  0  0  0
   -1.4909   -1.6141    0.9862 C   0  0  0  0  0  0  0  0  0  0  0  0
   -1.1977   -1.7735    2.1643 O   0  0  0  0  0  0  0  0  0  0  0  0
   -1.2798   -0.3665    0.4421 N   0  0  0  0  0  0  0  0  0  0  0  0
   -1.7194   -0.2808   -0.4690 H   0  0  0  0  0  0  0  0  0  0  0  0
    0.0948    0.1524    0.4413 C   0  0  1  0  0  0  0  0  0  0  0  0
    0.7534   -0.4194    1.1060 H   0  0  0  0  0  0  0  0  0  0  0  0
    0.5902    0.0360   -1.0190 C   0  0  0  0  0  0  0  0  0  0  0  0
   -0.1093    0.5443   -1.6892 H   0  0  0  0  0  0  0  0  0  0  0  0
    1.5559    0.5411   -1.1047 H   0  0  0  0  0  0  0  0  0  0  0  0
    0.7987   -1.3974   -1.4968 C   0  0  0  0  0  0  0  0  0  0  0  0
    1.1095   -2.2789   -0.6611 O   0  5  0  0  0  0  0  0  0  0  0  0
    0.4992   -1.6281   -2.6927 O   0  0  0  0  0  0  0  0  0  0  0  0
    0.0842    1.6235    0.9165 C   0  0  0  0  0  0  0  0  0  0  0  0
    0.4655    2.5704    0.2342 O   0  0  0  0  0  0  0  0  0  0  0  0
   -0.4081    1.8727    2.1839 N   0  0  0  0  0  0  0  0  0  0  0  0
   -0.7702    1.0630    2.6857 H   0  0  0  0  0  0  0  0  0  0  0  0
   -0.5279    3.1979    2.7714 C   0  0  0  0  0  0  0  0  0  0  0  0
   -1.2237    3.8115    2.1907 H   0  0  0  0  0  0  0  0  0  0  0  0
   -0.9038    3.1209    3.7958 H   0  0  0  0  0  0  0  0  0  0  0  0
    0.4474    3.6945    2.7974 H   0  0  0  0  0  0  0  0  0  0  0  0
  1  2  1  0  0  0  0
  2  3  1  0  0  0  0
  2  4  1  0  0  0  0
  2  5  1  0  0  0  0
  5  6  2  0  0  0  0
  5  7  1  0  0  0  0
  7  8  1  0  0  0  0
  7  9  1  0  0  0  0
  9 10  1  0  0  0  0
  9 11  1  0  0  0  0
  9 17  1  0  0  0  0
 11 12  1  0  0  0  0
 11 13  1  0  0  0  0
 11 14  1  0  0  0  0
 14 15  1  0  0  0  0
 14 16  2  0  0  0  0
 17 18  2  0  0  0  0
 17 19  1  0  0  0  0
 19 20  1  0  0  0  0
 19 21  1  0  0  0  0
 21 22  1  0  0  0  0
 21 23  1  0  0  0  0
 21 24  1  0  0  0  0
M  CHG  1  15  -1
M  END
$$$$

  -OEChem-01062216073D

 24 23  0     1  0  0  0  0  0999 V2000
   -2.4765   -3.5121    0.8844 H   0  0  0  0  0  0  0  0  0  0  0  0
   -2.3572   -2.6145    0.2720 C   0  0  0  0  0  0  0  0  0  0  0  0
   -3.3414   -2.1851    0.0723 H   0  0  0  0  0  0  0  0  0  0  0  0
   -1.8899   -2.8980   -0.6756 H   0  0  0  0  0  0  0  0  0  0  0  0
   -1.4797   -1.6051    0.9892 C   0  0  0  0  0  0  0  0  0  0  0  0
   -1.1375   -1.7889    2.1507 O   0  0  0  0  0  0  0  0  0  0  0  0
   -1.2602   -0.3597    0.4431 N   0  0  0  0  0  0  0  0  0  0  0  0
   -1.7148   -0.2579   -0.4588 H   0  0  0  0  0  0  0  0  0  0  0  0
    0.1147    0.1541    0.4362 C   0  0  1  0  0  0  0  0  0  0  0  0
    0.7745   -0.4202    1.0971 H   0  0  0  0  0  0  0  0  0  0  0  0
    0.6116    0.0392   -1.0237 C   0  0  0  0  0  0  0  0  0  0  0  0
   -0.0880    0.5465   -1.6947 H   0  0  0  0  0  0  0  0  0  0  0  0
    1.5760    0.5471   -1.1064 H   0  0  0  0  0  0  0  0  0  0  0  0
    0.8187   -1.3932   -1.5054 C   0  0  0  0  0  0  0  0  0  0  0  0
    1.1271   -2.2766   -0.6710 O   0  5  0  0  0  0  0  0  0  0  0  0
    0.5378   -1.6191   -2.7067 O   0  0  0  0  0  0  0  0  0  0  0  0
    0.1121    1.6250    0.9076 C   0  0  0  0  0  0  0  0  0  0  0  0
    0.2219    2.5866    0.1516 O   0  0  0  0  0  0  0  0  0  0  0  0
   -0.0656    1.8546    2.2590 N   0  0  0  0  0  0  0  0  0  0  0  0
   -0.2811    1.0328    2.8212 H   0  0  0  0  0  0  0  0  0  0  0  0
   -0.2047    3.1778    2.8469 C   0  0  0  0  0  0  0  0  0  0  0  0
   -1.0909    3.6818    2.4482 H   0  0  0  0  0  0  0  0  0  0  0  0
   -0.3094    3.0961    3.9328 H   0  0  0  0  0  0  0  0  0  0  0  0
    0.6783    3.7875    2.6299 H   0  0  0  0  0  0  0  0  0  0  0  0
  1  2  1  0  0  0  0
  2  3  1  0  0  0  0
  2  4  1  0  0  0  0
  2  5  1  0  0  0  0
  5  6  2  0  0  0  0
  5  7  1  0  0  0  0
  7  8  1  0  0  0  0
  7  9  1  0  0  0  0
  9 10  1  0  0  0  0
  9 11  1  0  0  0  0
  9 17  1  0  0  0  0
 11 12  1  0  0  0  0
 11 13  1  0  0  0  0
 11 14  1  0  0  0  0
 14 15  1  0  0  0  0
 14 16  2  0  0  0  0
 17 18  2  0  0  0  0
 17 19  1  0  0  0  0
 19 20  1  0  0  0  0
 19 21  1  0  0  0  0
 21 22  1  0  0  0  0
 21 23  1  0  0  0  0
 21 24  1  0  0  0  0
M  CHG  1  15  -1
M  END
$$$$

  -OEChem-01062216073D

 24 23  0     1  0  0  0  0  0999 V2000
   -2.4919   -3.4989    0.8943 H   0  0  0  0  0  0  0  0  0  0  0  0
   -2.3825   -2.5958    0.2883 C   0  0  0  0  0  0  0  0  0  0  0  0
   -3.3691   -2.1603    0.1154 H   0  0  0  0  0  0  0  0  0  0  0  0
   -1.9376   -2.8717   -0.6722 H   0  0  0  0  0  0  0  0  0  0  0  0
   -1.4840   -1.5978    0.9951 C   0  0  0  0  0  0  0  0  0  0  0  0
   -1.1089   -1.8010    2.1432 O   0  0  0  0  0  0  0  0  0  0  0  0
   -1.2567   -0.3563    0.4425 N   0  0  0  0  0  0  0  0  0  0  0  0
   -1.7227   -0.2411   -0.4516 H   0  0  0  0  0  0  0  0  0  0  0  0
    0.1173    0.1573    0.4334 C   0  0  1  0  0  0  0  0  0  0  0  0
    0.7766   -0.4177    1.0942 H   0  0  0  0  0  0  0  0  0  0  0  0
    0.6185    0.0399   -1.0245 C   0  0  0  0  0  0  0  0  0  0  0  0
   -0.0812    0.5428   -1.6988 H   0  0  0  0  0  0  0  0  0  0  0  0
    1.5812    0.5508   -1.1061 H   0  0  0  0  0  0  0  0  0  0  0  0
    0.8287   -1.3932   -1.5036 C   0  0  0  0  0  0  0  0  0  0  0  0
    1.1358   -2.2751   -0.6670 O   0  5  0  0  0  0  0  0  0  0  0  0
    0.5664   -1.6192   -2.7091 O   0  0  0  0  0  0  0  0  0  0  0  0
    0.1269    1.6314    0.8926 C   0  0  0  0  0  0  0  0  0  0  0  0
   -0.0421    2.5760    0.1258 O   0  0  0  0  0  0  0  0  0  0  0  0
    0.2735    1.8843    2.2440 N   0  0  0  0  0  0  0  0  0  0  0  0
    0.2476    1.0671    2.8502 H   0  0  0  0  0  0  0  0  0  0  0  0
    0.1440    3.2071    2.8358 C   0  0  0  0  0  0  0  0  0  0  0  0
   -0.8583    3.6096    2.6579 H   0  0  0  0  0  0  0  0  0  0  0  0
    0.3097    3.1520    3.9157 H   0  0  0  0  0  0  0  0  0  0  0  0
    0.8828    3.8919    2.4074 H   0  0  0  0  0  0  0  0  0  0  0  0
  1  2  1  0  0  0  0
  2  3  1  0  0  0  0
  2  4  1  0  0  0  0
  2  5  1  0  0  0  0
  5  6  2  0  0  0  0
  5  7  1  0  0  0  0
  7  8  1  0  0  0  0
  7  9  1  0  0  0  0
  9 10  1  0  0  0  0
  9 11  1  0  0  0  0
  9 17  1  0  0  0  0
 11 12  1  0  0  0  0
 11 13  1  0  0  0  0
 11 14  1  0  0  0  0
 14 15  1  0  0  0  0
 14 16  2  0  0  0  0
 17 18  2  0  0  0  0
 17 19  1  0  0  0  0
 19 20  1  0  0  0  0
 19 21  1  0  0  0  0
 21 22  1  0  0  0  0
 21 23  1  0  0  0  0
 21 24  1  0  0  0  0
M  CHG  1  15  -1
M  END
$$$$

  -OEChem-01062216073D

 24 23  0     1  0  0  0  0  0999 V2000
   -2.5158   -3.5065    0.9079 H   0  0  0  0  0  0  0  0  0  0  0  0
   -2.4160   -2.5978    0.3084 C   0  0  0  0  0  0  0  0  0  0  0  0
   -3.4028   -2.1498    0.1723 H   0  0  0  0  0  0  0  0  0  0  0  0
   -2.0053   -2.8676   -0.6688 H   0  0  0  0  0  0  0  0  0  0  0  0
   -1.4850   -1.6164    0.9962 C   0  0  0  0  0  0  0  0  0  0  0  0
   -1.0724   -1.8413    2.1270 O   0  0  0  0  0  0  0  0  0  0  0  0
   -1.2593   -0.3761    0.4393 N   0  0  0  0  0  0  0  0  0  0  0  0
   -1.7389   -0.2486   -0.4458 H   0  0  0  0  0  0  0  0  0  0  0  0
    0.1059    0.1596    0.4337 C   0  0  1  0  0  0  0  0  0  0  0  0
    0.7687   -0.4081    1.0973 H   0  0  0  0  0  0  0  0  0  0  0  0
    0.6194    0.0539   -1.0199 C   0  0  0  0  0  0  0  0  0  0  0  0
   -0.0859    0.5449   -1.6973 H   0  0  0  0  0  0  0  0  0  0  0  0
    1.5725    0.5835   -1.0943 H   0  0  0  0  0  0  0  0  0  0  0  0
    0.8590   -1.3732   -1.5019 C   0  0  0  0  0  0  0  0  0  0  0  0
    1.1761   -2.2521   -0.6661 O   0  5  0  0  0  0  0  0  0  0  0  0
    0.6290   -1.5960   -2.7145 O   0  0  0  0  0  0  0  0  0  0  0  0
    0.1089    1.6375    0.8790 C   0  0  0  0  0  0  0  0  0  0  0  0
   -0.3149    2.5429    0.1648 O   0  0  0  0  0  0  0  0  0  0  0  0
    0.5594    1.9426    2.1501 N   0  0  0  0  0  0  0  0  0  0  0  0
    0.7551    1.1491    2.7553 H   0  0  0  0  0  0  0  0  0  0  0  0
    0.4924    3.2749    2.7311 C   0  0  0  0  0  0  0  0  0  0  0  0
   -0.5482    3.6054    2.8113 H   0  0  0  0  0  0  0  0  0  0  0  0
    0.9341    3.2697    3.7319 H   0  0  0  0  0  0  0  0  0  0  0  0
    1.0453    3.9903    2.1137 H   0  0  0  0  0  0  0  0  0  0  0  0
  1  2  1  0  0  0  0
  2  3  1  0  0  0  0
  2  4  1  0  0  0  0
  2  5  1  0  0  0  0
  5  6  2  0  0  0  0
  5  7  1  0  0  0  0
  7  8  1  0  0  0  0
  7  9  1  0  0  0  0
  9 10  1  0  0  0  0
  9 11  1  0  0  0  0
  9 17  1  0  0  0  0
 11 12  1  0  0  0  0
 11 13  1  0  0  0  0
 11 14  1  0  0  0  0
 14 15  1  0  0  0  0
 14 16  2  0  0  0  0
 17 18  2  0  0  0  0
 17 19  1  0  0  0  0
 19 20  1  0  0  0  0
 19 21  1  0  0  0  0
 21 22  1  0  0  0  0
 21 23  1  0  0  0  0
 21 24  1  0  0  0  0
M  CHG  1  15  -1
M  END
$$$$

  -OEChem-01062216073D

 24 23  0     1  0  0  0  0  0999 V2000
   -2.5519   -3.5075    0.9413 H   0  0  0  0  0  0  0  0  0  0  0  0
   -2.4341   -2.6106    0.3275 C   0  0  0  0  0  0  0  0  0  0  0  0
   -3.4128   -2.1487    0.1793 H   0  0  0  0  0  0  0  0  0  0  0  0
   -2.0232   -2.9023   -0.6433 H   0  0  0  0  0  0  0  0  0  0  0  0
   -1.4900   -1.6335    1.0035 C   0  0  0  0  0  0  0  0  0  0  0  0
   -1.0507   -1.8724    2.1210 O   0  0  0  0  0  0  0  0  0  0  0  0
   -1.2695   -0.3938    0.4427 N   0  0  0  0  0  0  0  0  0  0  0  0
   -1.7642   -0.2560   -0.4322 H   0  0  0  0  0  0  0  0  0  0  0  0
    0.0873    0.1637    0.4379 C   0  0  1  0  0  0  0  0  0  0  0  0
    0.7530   -0.3966    1.1044 H   0  0  0  0  0  0  0  0  0  0  0  0
    0.6097    0.0731   -1.0127 C   0  0  0  0  0  0  0  0  0  0  0  0
   -0.1005    0.5557   -1.6907 H   0  0  0  0  0  0  0  0  0  0  0  0
    1.5543    0.6186   -1.0807 H   0  0  0  0  0  0  0  0  0  0  0  0
    0.8770   -1.3464   -1.5016 C   0  0  0  0  0  0  0  0  0  0  0  0
    1.2053   -2.2242   -0.6691 O   0  5  0  0  0  0  0  0  0  0  0  0
    0.6744   -1.5624   -2.7205 O   0  0  0  0  0  0  0  0  0  0  0  0
    0.0852    1.6449    0.8709 C   0  0  0  0  0  0  0  0  0  0  0  0
   -0.5606    2.4985    0.2675 O   0  0  0  0  0  0  0  0  0  0  0  0
    0.8090    2.0172    1.9890 N   0  0  0  0  0  0  0  0  0  0  0  0
    1.2374    1.2641    2.5204 H   0  0  0  0  0  0  0  0  0  0  0  0
    0.8067    3.3632    2.5409 C   0  0  0  0  0  0  0  0  0  0  0  0
   -0.2014    3.6415    2.8642 H   0  0  0  0  0  0  0  0  0  0  0  0
    1.4762    3.4149    3.4046 H   0  0  0  0  0  0  0  0  0  0  0  0
    1.1520    4.0840    1.7927 H   0  0  0  0  0  0  0  0  0  0  0  0
  1  2  1  0  0  0  0
  2  3  1  0  0  0  0
  2  4  1  0  0  0  0
  2  5  1  0  0  0  0
  5  6  2  0  0  0  0
  5  7  1  0  0  0  0
  7  8  1  0  0  0  0
  7  9  1  0  0  0  0
  9 10  1  0  0  0  0
  9 11  1  0  0  0  0
  9 17  1  0  0  0  0
 11 12  1  0  0  0  0
 11 13  1  0  0  0  0
 11 14  1  0  0  0  0
 14 15  1  0  0  0  0
 14 16  2  0  0  0  0
 17 18  2  0  0  0  0
 17 19  1  0  0  0  0
 19 20  1  0  0  0  0
 19 21  1  0  0  0  0
 21 22  1  0  0  0  0
 21 23  1  0  0  0  0
 21 24  1  0  0  0  0
M  CHG  1  15  -1
M  END
$$$$

  -OEChem-01062216073D

 24 23  0     1  0  0  0  0  0999 V2000
   -2.5490   -3.5312    0.9423 H   0  0  0  0  0  0  0  0  0  0  0  0
   -2.4614   -2.6186    0.3468 C   0  0  0  0  0  0  0  0  0  0  0  0
   -3.4467   -2.1556    0.2567 H   0  0  0  0  0  0  0  0  0  0  0  0
   -2.0959   -2.8846   -0.6491 H   0  0  0  0  0  0  0  0  0  0  0  0
   -1.4889   -1.6567    1.0040 C   0  0  0  0  0  0  0  0  0  0  0  0
   -1.0228   -1.9126    2.1066 O   0  0  0  0  0  0  0  0  0  0  0  0
   -1.2707   -0.4168    0.4427 N   0  0  0  0  0  0  0  0  0  0  0  0
   -1.7779   -0.2662   -0.4226 H   0  0  0  0  0  0  0  0  0  0  0  0
    0.0763    0.1650    0.4476 C   0  0  1  0  0  0  0  0  0  0  0  0
    0.7448   -0.3861    1.1186 H   0  0  0  0  0  0  0  0  0  0  0  0
    0.6070    0.0905   -1.0003 C   0  0  0  0  0  0  0  0  0  0  0  0
   -0.1100    0.5638   -1.6779 H   0  0  0  0  0  0  0  0  0  0  0  0
    1.5420    0.6533   -1.0622 H   0  0  0  0  0  0  0  0  0  0  0  0
    0.9032   -1.3201   -1.4975 C   0  0  0  0  0  0  0  0  0  0  0  0
    1.2442   -2.1977   -0.6705 O   0  5  0  0  0  0  0  0  0  0  0  0
    0.7215   -1.5273   -2.7210 O   0  0  0  0  0  0  0  0  0  0  0  0
    0.0613    1.6491    0.8709 C   0  0  0  0  0  0  0  0  0  0  0  0
   -0.7564    2.4448    0.4146 O   0  0  0  0  0  0  0  0  0  0  0  0
    1.0007    2.1009    1.7804 N   0  0  0  0  0  0  0  0  0  0  0  0
    1.6234    1.4026    2.1771 H   0  0  0  0  0  0  0  0  0  0  0  0
    1.0556    3.4678    2.2763 C   0  0  0  0  0  0  0  0  0  0  0  0
    0.1300    3.7206    2.8030 H   0  0  0  0  0  0  0  0  0  0  0  0
    1.8928    3.5808    2.9713 H   0  0  0  0  0  0  0  0  0  0  0  0
    1.1965    4.1700    1.4485 H   0  0  0  0  0  0  0  0  0  0  0  0
  1  2  1  0  0  0  0
  2  3  1  0  0  0  0
  2  4  1  0  0  0  0
  2  5  1  0  0  0  0
  5  6  2  0  0  0  0
  5  7  1  0  0  0  0
  7  8  1  0  0  0  0
  7  9  1  0  0  0  0
  9 10  1  0  0  0  0
  9 11  1  0  0  0  0
  9 17  1  0  0  0  0
 11 12  1  0  0  0  0
 11 13  1  0  0  0  0
 11 14  1  0  0  0  0
 14 15  1  0  0  0  0
 14 16  2  0  0  0  0
 17 18  2  0  0  0  0
 17 19  1  0  0  0  0
 19 20  1  0  0  0  0
 19 21  1  0  0  0  0
 21 22  1  0  0  0  0
 21 23  1  0  0  0  0
 21 24  1  0  0  0  0
M  CHG  1  15  -1
M  END
$$$$

  -OEChem-01062216073D

 24 23  0     1  0  0  0  0  0999 V2000
   -2.5635   -3.5493    0.9526 H   0  0  0  0  0  0  0  0  0  0  0  0
   -2.4790   -2.6325    0.3631 C   0  0  0  0  0  0  0  0  0  0  0  0
   -3.4614   -2.1596    0.2975 H   0  0  0  0  0  0  0  0  0  0  0  0
   -2.1373   -2.8933   -0.6424 H   0  0  0  0  0  0  0  0  0  0  0  0
   -1.4837   -1.6850    1.0078 C   0  0  0  0  0  0  0  0  0  0  0  0
   -0.9900   -1.9623    2.0927 O   0  0  0  0  0  0  0  0  0  0  0  0
   -1.2718   -0.4412    0.4525 N   0  0  0  0  0  0  0  0  0  0  0  0
   -1.7946   -0.2753   -0.4001 H   0  0  0  0  0  0  0  0  0  0  0  0
    0.0649    0.1650    0.4660 C   0  0  1  0  0  0  0  0  0  0  0  0
    0.7399   -0.3789    1.1367 H   0  0  0  0  0  0  0  0  0  0  0  0
    0.5974    0.1153   -0.9825 C   0  0  0  0  0  0  0  0  0  0  0  0
   -0.1277    0.5847   -1.6542 H   0  0  0  0  0  0  0  0  0  0  0  0
    1.5228    0.6942   -1.0386 H   0  0  0  0  0  0  0  0  0  0  0  0
    0.9204   -1.2819   -1.4990 C   0  0  0  0  0  0  0  0  0  0  0  0
    1.2781   -2.1644   -0.6848 O   0  5  0  0  0  0  0  0  0  0  0  0
    0.7543   -1.4706   -2.7278 O   0  0  0  0  0  0  0  0  0  0  0  0
    0.0357    1.6492    0.8893 C   0  0  0  0  0  0  0  0  0  0  0  0
   -0.9130    2.3833    0.6225 O   0  0  0  0  0  0  0  0  0  0  0  0
    1.1316    2.1837    1.5429 N   0  0  0  0  0  0  0  0  0  0  0  0
    1.9030    1.5512    1.7358 H   0  0  0  0  0  0  0  0  0  0  0  0
    1.2322    3.5769    1.9498 C   0  0  0  0  0  0  0  0  0  0  0  0
    0.4295    3.8297    2.6499 H   0  0  0  0  0  0  0  0  0  0  0  0
    2.1918    3.7551    2.4439 H   0  0  0  0  0  0  0  0  0  0  0  0
    1.1637    4.2353    1.0778 H   0  0  0  0  0  0  0  0  0  0  0  0
  1  2  1  0  0  0  0
  2  3  1  0  0  0  0
  2  4  1  0  0  0  0
  2  5  1  0  0  0  0
  5  6  2  0  0  0  0
  5  7  1  0  0  0  0
  7  8  1  0  0  0  0
  7  9  1  0  0  0  0
  9 10  1  0  0  0  0
  9 11  1  0  0  0  0
  9 17  1  0  0  0  0
 11 12  1  0  0  0  0
 11 13  1  0  0  0  0
 11 14  1  0  0  0  0
 14 15  1  0  0  0  0
 14 16  2  0  0  0  0
 17 18  2  0  0  0  0
 17 19  1  0  0  0  0
 19 20  1  0  0  0  0
 19 21  1  0  0  0  0
 21 22  1  0  0  0  0
 21 23  1  0  0  0  0
 21 24  1  0  0  0  0
M  CHG  1  15  -1
M  END
$$$$

  -OEChem-01062216073D

 24 23  0     1  0  0  0  0  0999 V2000
   -2.5466   -3.5648    0.9581 H   0  0  0  0  0  0  0  0  0  0  0  0
   -2.4802   -2.6397    0.3791 C   0  0  0  0  0  0  0  0  0  0  0  0
   -3.4657   -2.1695    0.3441 H   0  0  0  0  0  0  0  0  0  0  0  0
   -2.1625   -2.8858   -0.6378 H   0  0  0  0  0  0  0  0  0  0  0  0
   -1.4727   -1.6973    1.0120 C   0  0  0  0  0  0  0  0  0  0  0  0
   -0.9584   -1.9858    2.0842 O   0  0  0  0  0  0  0  0  0  0  0  0
   -1.2687   -0.4510    0.4588 N   0  0  0  0  0  0  0  0  0  0  0  0
   -1.8040   -0.2780   -0.3841 H   0  0  0  0  0  0  0  0  0  0  0  0
    0.0618    0.1706    0.4753 C   0  0  1  0  0  0  0  0  0  0  0  0
    0.7451   -0.3681    1.1417 H   0  0  0  0  0  0  0  0  0  0  0  0
    0.5825    0.1276   -0.9794 C   0  0  0  0  0  0  0  0  0  0  0  0
   -0.1533    0.5914   -1.6432 H   0  0  0  0  0  0  0  0  0  0  0  0
    1.5022    0.7140   -1.0466 H   0  0  0  0  0  0  0  0  0  0  0  0
    0.9160   -1.2635   -1.5051 C   0  0  0  0  0  0  0  0  0  0  0  0
    1.2909   -2.1466   -0.6999 O   0  5  0  0  0  0  0  0  0  0  0  0
    0.7479   -1.4443   -2.7348 O   0  0  0  0  0  0  0  0  0  0  0  0
    0.0283    1.6567    0.8980 C   0  0  0  0  0  0  0  0  0  0  0  0
   -0.9993    2.3286    0.8501 O   0  0  0  0  0  0  0  0  0  0  0  0
    1.2108    2.2771    1.2606 N   0  0  0  0  0  0  0  0  0  0  0  0
    2.0489    1.7028    1.2518 H   0  0  0  0  0  0  0  0  0  0  0  0
    1.3151    3.6855    1.6111 C   0  0  0  0  0  0  0  0  0  0  0  0
    0.6693    3.9161    2.4643 H   0  0  0  0  0  0  0  0  0  0  0  0
    2.3466    3.9288    1.8823 H   0  0  0  0  0  0  0  0  0  0  0  0
    1.0216    4.3131    0.7636 H   0  0  0  0  0  0  0  0  0  0  0  0
  1  2  1  0  0  0  0
  2  3  1  0  0  0  0
  2  4  1  0  0  0  0
  2  5  1  0  0  0  0
  5  6  2  0  0  0  0
  5  7  1  0  0  0  0
  7  8  1  0  0  0  0
  7  9  1  0  0  0  0
  9 10  1  0  0  0  0
  9 11  1  0  0  0  0
  9 17  1  0  0  0  0
 11 12  1  0  0  0  0
 11 13  1  0  0  0  0
 11 14  1  0  0  0  0
 14 15  1  0  0  0  0
 14 16  2  0  0  0  0
 17 18  2  0  0  0  0
 17 19  1  0  0  0  0
 19 20  1  0  0  0  0
 19 21  1  0  0  0  0
 21 22  1  0  0  0  0
 21 23  1  0  0  0  0
 21 24  1  0  0  0  0
M  CHG  1  15  -1
M  END
$$$$

  -OEChem-01062216073D

 24 23  0     1  0  0  0  0  0999 V2000
   -2.6320   -3.5284    0.9374 H   0  0  0  0  0  0  0  0  0  0  0  0
   -2.5723   -2.5849    0.3881 C   0  0  0  0  0  0  0  0  0  0  0  0
   -3.5296   -2.0653    0.4697 H   0  0  0  0  0  0  0  0  0  0  0  0
   -2.3705   -2.8035   -0.6639 H   0  0  0  0  0  0  0  0  0  0  0  0
   -1.4591   -1.7201    0.9515 C   0  0  0  0  0  0  0  0  0  0  0  0
   -0.8348   -2.1011    1.9324 O   0  0  0  0  0  0  0  0  0  0  0  0
   -1.2397   -0.4702    0.4127 N   0  0  0  0  0  0  0  0  0  0  0  0
   -1.7959   -0.2611   -0.4081 H   0  0  0  0  0  0  0  0  0  0  0  0
    0.0868    0.1587    0.4549 C   0  0  1  0  0  0  0  0  0  0  0  0
    0.8307   -0.5065    0.9081 H   0  0  0  0  0  0  0  0  0  0  0  0
    0.4540    0.4387   -1.0207 C   0  0  0  0  0  0  0  0  0  0  0  0
   -0.3445    1.0190   -1.4926 H   0  0  0  0  0  0  0  0  0  0  0  0
    1.3655    1.0393   -1.0609 H   0  0  0  0  0  0  0  0  0  0  0  0
    0.7254   -0.8093   -1.8534 C   0  0  0  0  0  0  0  0  0  0  0  0
    1.1770   -1.8340   -1.2916 O   0  5  0  0  0  0  0  0  0  0  0  0
    0.4265   -0.7348   -3.0691 O   0  0  0  0  0  0  0  0  0  0  0  0
    0.1075    1.5043    1.2214 C   0  0  0  0  0  0  0  0  0  0  0  0
   -0.9123    2.0296    1.6609 O   0  0  0  0  0  0  0  0  0  0  0  0
    1.3006    2.1977    1.3354 N   0  0  0  0  0  0  0  0  0  0  0  0
    2.1233    1.7587    0.9320 H   0  0  0  0  0  0  0  0  0  0  0  0
    1.4288    3.4969    1.9781 C   0  0  0  0  0  0  0  0  0  0  0  0
    1.0919    3.4436    3.0184 H   0  0  0  0  0  0  0  0  0  0  0  0
    2.4744    3.8181    1.9695 H   0  0  0  0  0  0  0  0  0  0  0  0
    0.8311    4.2457    1.4484 H   0  0  0  0  0  0  0  0  0  0  0  0
  1  2  1  0  0  0  0
  2  3  1  0  0  0  0
  2  4  1  0  0  0  0
  2  5  1  0  0  0  0
  5  6  2  0  0  0  0
  5  7  1  0  0  0  0
  7  8  1  0  0  0  0
  7  9  1  0  0  0  0
  9 10  1  0  0  0  0
  9 11  1  0  0  0  0
  9 17  1  0  0  0  0
 11 12  1  0  0  0  0
 11 13  1  0  0  0  0
 11 14  1  0  0  0  0
 14 15  1  0  0  0  0
 14 16  2  0  0  0  0
 17 18  2  0  0  0  0
 17 19  1  0  0  0  0
 19 20  1  0  0  0  0
 19 21  1  0  0  0  0
 21 22  1  0  0  0  0
 21 23  1  0  0  0  0
 21 24  1  0  0  0  0
M  CHG  1  15  -1
M  END
$$$$

  -OEChem-01062216073D

 24 23  0     1  0  0  0  0  0999 V2000
   -2.6336   -3.5217    0.9404 H   0  0  0  0  0  0  0  0  0  0  0  0
   -2.5724   -2.5751    0.3968 C   0  0  0  0  0  0  0  0  0  0  0  0
   -3.5232   -2.0464    0.4966 H   0  0  0  0  0  0  0  0  0  0  0  0
   -2.3885   -2.7882   -0.6597 H   0  0  0  0  0  0  0  0  0  0  0  0
   -1.4430   -1.7246    0.9494 C   0  0  0  0  0  0  0  0  0  0  0  0
   -0.8036   -2.1227    1.9133 O   0  0  0  0  0  0  0  0  0  0  0  0
   -1.2237   -0.4734    0.4127 N   0  0  0  0  0  0  0  0  0  0  0  0
   -1.7865   -0.2632   -0.4030 H   0  0  0  0  0  0  0  0  0  0  0  0
    0.1037    0.1553    0.4485 C   0  0  1  0  0  0  0  0  0  0  0  0
    0.8535   -0.5066    0.8968 H   0  0  0  0  0  0  0  0  0  0  0  0
    0.4516    0.4239   -1.0365 C   0  0  0  0  0  0  0  0  0  0  0  0
   -0.3509    1.0042   -1.5018 H   0  0  0  0  0  0  0  0  0  0  0  0
    1.3664    1.0162   -1.0988 H   0  0  0  0  0  0  0  0  0  0  0  0
    0.7116   -0.8292   -1.8650 C   0  0  0  0  0  0  0  0  0  0  0  0
    1.1707   -1.8515   -1.3058 O   0  5  0  0  0  0  0  0  0  0  0  0
    0.3975   -0.7581   -3.0771 O   0  0  0  0  0  0  0  0  0  0  0  0
    0.1177    1.5013    1.2218 C   0  0  0  0  0  0  0  0  0  0  0  0
   -0.8386    1.8844    1.8905 O   0  0  0  0  0  0  0  0  0  0  0  0
    1.1940    2.3637    1.0911 N   0  0  0  0  0  0  0  0  0  0  0  0
    1.9589    2.0508    0.5006 H   0  0  0  0  0  0  0  0  0  0  0  0
    1.2700    3.6750    1.7180 C   0  0  0  0  0  0  0  0  0  0  0  0
    1.1855    3.5843    2.8058 H   0  0  0  0  0  0  0  0  0  0  0  0
    2.2285    4.1478    1.4842 H   0  0  0  0  0  0  0  0  0  0  0  0
    0.4659    4.3213    1.3516 H   0  0  0  0  0  0  0  0  0  0  0  0
  1  2  1  0  0  0  0
  2  3  1  0  0  0  0
  2  4  1  0  0  0  0
  2  5  1  0  0  0  0
  5  6  2  0  0  0  0
  5  7  1  0  0  0  0
  7  8  1  0  0  0  0
  7  9  1  0  0  0  0
  9 10  1  0  0  0  0
  9 11  1  0  0  0  0
  9 17  1  0  0  0  0
 11 12  1  0  0  0  0
 11 13  1  0  0  0  0
 11 14  1  0  0  0  0
 14 15  1  0  0  0  0
 14 16  2  0  0  0  0
 17 18  2  0  0  0  0
 17 19  1  0  0  0  0
 19 20  1  0  0  0  0
 19 21  1  0  0  0  0
 21 22  1  0  0  0  0
 21 23  1  0  0  0  0
 21 24  1  0  0  0  0
M  CHG  1  15  -1
M  END
$$$$

  -OEChem-01062216073D

 24 23  0     1  0  0  0  0  0999 V2000
   -2.6019   -3.5276    0.9251 H   0  0  0  0  0  0  0  0  0  0  0  0
   -2.5618   -2.5698    0.3995 C   0  0  0  0  0  0  0  0  0  0  0  0
   -3.5189   -2.0574    0.5206 H   0  0  0  0  0  0  0  0  0  0  0  0
   -2.3871   -2.7600   -0.6629 H   0  0  0  0  0  0  0  0  0  0  0  0
   -1.4385   -1.7137    0.9558 C   0  0  0  0  0  0  0  0  0  0  0  0
   -0.7992   -2.1107    1.9198 O   0  0  0  0  0  0  0  0  0  0  0  0
   -1.2207   -0.4640    0.4142 N   0  0  0  0  0  0  0  0  0  0  0  0
   -1.7785   -0.2670   -0.4082 H   0  0  0  0  0  0  0  0  0  0  0  0
    0.1116    0.1552    0.4392 C   0  0  1  0  0  0  0  0  0  0  0  0
    0.8612   -0.5064    0.8881 H   0  0  0  0  0  0  0  0  0  0  0  0
    0.4504    0.4035   -1.0528 C   0  0  0  0  0  0  0  0  0  0  0  0
   -0.3485    0.9884   -1.5186 H   0  0  0  0  0  0  0  0  0  0  0  0
    1.3741    0.9796   -1.1291 H   0  0  0  0  0  0  0  0  0  0  0  0
    0.6950   -0.8590   -1.8716 C   0  0  0  0  0  0  0  0  0  0  0  0
    1.1507   -1.8812   -1.3103 O   0  5  0  0  0  0  0  0  0  0  0  0
    0.3685   -0.7933   -3.0807 O   0  0  0  0  0  0  0  0  0  0  0  0
    0.1242    1.5026    1.2156 C   0  0  0  0  0  0  0  0  0  0  0  0
   -0.7006    1.7587    2.0881 O   0  0  0  0  0  0  0  0  0  0  0  0
    1.0140    2.5091    0.8743 N   0  0  0  0  0  0  0  0  0  0  0  0
    1.6657    2.3040    0.1230 H   0  0  0  0  0  0  0  0  0  0  0  0
    1.0389    3.8250    1.4963 C   0  0  0  0  0  0  0  0  0  0  0  0
    1.2158    3.7362    2.5730 H   0  0  0  0  0  0  0  0  0  0  0  0
    1.8408    4.4294    1.0626 H   0  0  0  0  0  0  0  0  0  0  0  0
    0.0880    4.3423    1.3339 H   0  0  0  0  0  0  0  0  0  0  0  0
  1  2  1  0  0  0  0
  2  3  1  0  0  0  0
  2  4  1  0  0  0  0
  2  5  1  0  0  0  0
  5  6  2  0  0  0  0
  5  7  1  0  0  0  0
  7  8  1  0  0  0  0
  7  9  1  0  0  0  0
  9 10  1  0  0  0  0
  9 11  1  0  0  0  0
  9 17  1  0  0  0  0
 11 12  1  0  0  0  0
 11 13  1  0  0  0  0
 11 14  1  0  0  0  0
 14 15  1  0  0  0  0
 14 16  2  0  0  0  0
 17 18  2  0  0  0  0
 17 19  1  0  0  0  0
 19 20  1  0  0  0  0
 19 21  1  0  0  0  0
 21 22  1  0  0  0  0
 21 23  1  0  0  0  0
 21 24  1  0  0  0  0
M  CHG  1  15  -1
M  END
$$$$

  -OEChem-01062216073D

 24 23  0     1  0  0  0  0  0999 V2000
   -2.6031   -3.5206    0.9464 H   0  0  0  0  0  0  0  0  0  0  0  0
   -2.5553   -2.5701    0.4080 C   0  0  0  0  0  0  0  0  0  0  0  0
   -3.5124   -2.0541    0.5130 H   0  0  0  0  0  0  0  0  0  0  0  0
   -2.3716   -2.7757   -0.6502 H   0  0  0  0  0  0  0  0  0  0  0  0
   -1.4345   -1.7091    0.9627 C   0  0  0  0  0  0  0  0  0  0  0  0
   -0.7942   -2.1046    1.9263 O   0  0  0  0  0  0  0  0  0  0  0  0
   -1.2191   -0.4612    0.4142 N   0  0  0  0  0  0  0  0  0  0  0  0
   -1.7720   -0.2806   -0.4153 H   0  0  0  0  0  0  0  0  0  0  0  0
    0.1153    0.1542    0.4270 C   0  0  1  0  0  0  0  0  0  0  0  0
    0.8660   -0.5041    0.8794 H   0  0  0  0  0  0  0  0  0  0  0  0
    0.4531    0.3902   -1.0671 C   0  0  0  0  0  0  0  0  0  0  0  0
   -0.3409    0.9781   -1.5375 H   0  0  0  0  0  0  0  0  0  0  0  0
    1.3833    0.9567   -1.1431 H   0  0  0  0  0  0  0  0  0  0  0  0
    0.6921   -0.8775   -1.8790 C   0  0  0  0  0  0  0  0  0  0  0  0
    1.1446   -1.8992   -1.3151 O   0  5  0  0  0  0  0  0  0  0  0  0
    0.3555   -0.8166   -3.0856 O   0  0  0  0  0  0  0  0  0  0  0  0
    0.1207    1.5033    1.2019 C   0  0  0  0  0  0  0  0  0  0  0  0
   -0.5049    1.6493    2.2471 O   0  0  0  0  0  0  0  0  0  0  0  0
    0.7617    2.6224    0.6928 N   0  0  0  0  0  0  0  0  0  0  0  0
    1.2353    2.5084   -0.1982 H   0  0  0  0  0  0  0  0  0  0  0  0
    0.7493    3.9325    1.3273 C   0  0  0  0  0  0  0  0  0  0  0  0
    1.1830    3.8758    2.3308 H   0  0  0  0  0  0  0  0  0  0  0  0
    1.3371    4.6407    0.7360 H   0  0  0  0  0  0  0  0  0  0  0  0
   -0.2751    4.3107    1.4038 H   0  0  0  0  0  0  0  0  0  0  0  0
  1  2  1  0  0  0  0
  2  3  1  0  0  0  0
  2  4  1  0  0  0  0
  2  5  1  0  0  0  0
  5  6  2  0  0  0  0
  5  7  1  0  0  0  0
  7  8  1  0  0  0  0
  7  9  1  0  0  0  0
  9 10  1  0  0  0  0
  9 11  1  0  0  0  0
  9 17  1  0  0  0  0
 11 12  1  0  0  0  0
 11 13  1  0  0  0  0
 11 14  1  0  0  0  0
 14 15  1  0  0  0  0
 14 16  2  0  0  0  0
 17 18  2  0  0  0  0
 17 19  1  0  0  0  0
 19 20  1  0  0  0  0
 19 21  1  0  0  0  0
 21 22  1  0  0  0  0
 21 23  1  0  0  0  0
 21 24  1  0  0  0  0
M  CHG  1  15  -1
M  END
$$$$

  -OEChem-01062216073D

 24 23  0     1  0  0  0  0  0999 V2000
   -2.6016   -3.5230    0.9681 H   0  0  0  0  0  0  0  0  0  0  0  0
   -2.5423   -2.5861    0.4078 C   0  0  0  0  0  0  0  0  0  0  0  0
   -3.5027   -2.0701    0.4768 H   0  0  0  0  0  0  0  0  0  0  0  0
   -2.3319   -2.8168   -0.6402 H   0  0  0  0  0  0  0  0  0  0  0  0
   -1.4374   -1.7092    0.9689 C   0  0  0  0  0  0  0  0  0  0  0  0
   -0.8079   -2.0892    1.9450 O   0  0  0  0  0  0  0  0  0  0  0  0
   -1.2295   -0.4634    0.4125 N   0  0  0  0  0  0  0  0  0  0  0  0
   -1.7714   -0.3058   -0.4291 H   0  0  0  0  0  0  0  0  0  0  0  0
    0.1031    0.1554    0.4210 C   0  0  1  0  0  0  0  0  0  0  0  0
    0.8556   -0.4968    0.8798 H   0  0  0  0  0  0  0  0  0  0  0  0
    0.4478    0.3862   -1.0716 C   0  0  0  0  0  0  0  0  0  0  0  0
   -0.3470    0.9665   -1.5502 H   0  0  0  0  0  0  0  0  0  0  0  0
    1.3751    0.9599   -1.1384 H   0  0  0  0  0  0  0  0  0  0  0  0
    0.6939   -0.8836   -1.8778 C   0  0  0  0  0  0  0  0  0  0  0  0
    1.1459   -1.9032   -1.3100 O   0  5  0  0  0  0  0  0  0  0  0  0
    0.3528   -0.8284   -3.0835 O   0  0  0  0  0  0  0  0  0  0  0  0
    0.0969    1.5066    1.1899 C   0  0  0  0  0  0  0  0  0  0  0  0
   -0.2780    1.5807    2.3549 O   0  0  0  0  0  0  0  0  0  0  0  0
    0.4489    2.6931    0.5643 N   0  0  0  0  0  0  0  0  0  0  0  0
    0.7336    2.6264   -0.4085 H   0  0  0  0  0  0  0  0  0  0  0  0
    0.4345    3.9957    1.2141 C   0  0  0  0  0  0  0  0  0  0  0  0
    1.1113    4.0011    2.0746 H   0  0  0  0  0  0  0  0  0  0  0  0
    0.7609    4.7683    0.5119 H   0  0  0  0  0  0  0  0  0  0  0  0
   -0.5760    4.2419    1.5557 H   0  0  0  0  0  0  0  0  0  0  0  0
  1  2  1  0  0  0  0
  2  3  1  0  0  0  0
  2  4  1  0  0  0  0
  2  5  1  0  0  0  0
  5  6  2  0  0  0  0
  5  7  1  0  0  0  0
  7  8  1  0  0  0  0
  7  9  1  0  0  0  0
  9 10  1  0  0  0  0
  9 11  1  0  0  0  0
  9 17  1  0  0  0  0
 11 12  1  0  0  0  0
 11 13  1  0  0  0  0
 11 14  1  0  0  0  0
 14 15  1  0  0  0  0
 14 16  2  0  0  0  0
 17 18  2  0  0  0  0
 17 19  1  0  0  0  0
 19 20  1  0  0  0  0
 19 21  1  0  0  0  0
 21 22  1  0  0  0  0
 21 23  1  0  0  0  0
 21 24  1  0  0  0  0
M  CHG  1  15  -1
M  END
$$$$

  -OEChem-01062216073D

 24 23  0     1  0  0  0  0  0999 V2000
   -2.5788   -3.5525    0.9603 H   0  0  0  0  0  0  0  0  0  0  0  0
   -2.5202   -2.6205    0.3915 C   0  0  0  0  0  0  0  0  0  0  0  0
   -3.4919   -2.1226    0.4259 H   0  0  0  0  0  0  0  0  0  0  0  0
   -2.2743   -2.8586   -0.6470 H   0  0  0  0  0  0  0  0  0  0  0  0
   -1.4487   -1.7168    0.9748 C   0  0  0  0  0  0  0  0  0  0  0  0
   -0.8425   -2.0737    1.9738 O   0  0  0  0  0  0  0  0  0  0  0  0
   -1.2504   -0.4708    0.4147 N   0  0  0  0  0  0  0  0  0  0  0  0
   -1.7730   -0.3376   -0.4435 H   0  0  0  0  0  0  0  0  0  0  0  0
    0.0786    0.1560    0.4293 C   0  0  1  0  0  0  0  0  0  0  0  0
    0.8323   -0.4918    0.8928 H   0  0  0  0  0  0  0  0  0  0  0  0
    0.4303    0.3908   -1.0603 C   0  0  0  0  0  0  0  0  0  0  0  0
   -0.3681    0.9599   -1.5461 H   0  0  0  0  0  0  0  0  0  0  0  0
    1.3496    0.9795   -1.1164 H   0  0  0  0  0  0  0  0  0  0  0  0
    0.6888   -0.8773   -1.8656 C   0  0  0  0  0  0  0  0  0  0  0  0
    1.1435   -1.8948   -1.2962 O   0  5  0  0  0  0  0  0  0  0  0  0
    0.3394   -0.8276   -3.0693 O   0  0  0  0  0  0  0  0  0  0  0  0
    0.0632    1.5080    1.1930 C   0  0  0  0  0  0  0  0  0  0  0  0
   -0.0285    1.5545    2.4142 O   0  0  0  0  0  0  0  0  0  0  0  0
    0.1085    2.7148    0.5112 N   0  0  0  0  0  0  0  0  0  0  0  0
    0.2134    2.6609   -0.4977 H   0  0  0  0  0  0  0  0  0  0  0  0
    0.1144    4.0184    1.1587 C   0  0  0  0  0  0  0  0  0  0  0  0
    0.9869    4.1166    1.8125 H   0  0  0  0  0  0  0  0  0  0  0  0
    0.1547    4.8107    0.4057 H   0  0  0  0  0  0  0  0  0  0  0  0
   -0.7934    4.1536    1.7554 H   0  0  0  0  0  0  0  0  0  0  0  0
  1  2  1  0  0  0  0
  2  3  1  0  0  0  0
  2  4  1  0  0  0  0
  2  5  1  0  0  0  0
  5  6  2  0  0  0  0
  5  7  1  0  0  0  0
  7  8  1  0  0  0  0
  7  9  1  0  0  0  0
  9 10  1  0  0  0  0
  9 11  1  0  0  0  0
  9 17  1  0  0  0  0
 11 12  1  0  0  0  0
 11 13  1  0  0  0  0
 11 14  1  0  0  0  0
 14 15  1  0  0  0  0
 14 16  2  0  0  0  0
 17 18  2  0  0  0  0
 17 19  1  0  0  0  0
 19 20  1  0  0  0  0
 19 21  1  0  0  0  0
 21 22  1  0  0  0  0
 21 23  1  0  0  0  0
 21 24  1  0  0  0  0
M  CHG  1  15  -1
M  END
$$$$

  -OEChem-01062216073D

 24 23  0     1  0  0  0  0  0999 V2000
   -2.5258   -3.5975    0.9273 H   0  0  0  0  0  0  0  0  0  0  0  0
   -2.4729   -2.6679    0.3538 C   0  0  0  0  0  0  0  0  0  0  0  0
   -3.4638   -2.2087    0.3301 H   0  0  0  0  0  0  0  0  0  0  0  0
   -2.1608   -2.9042   -0.6674 H   0  0  0  0  0  0  0  0  0  0  0  0
   -1.4708   -1.7189    0.9862 C   0  0  0  0  0  0  0  0  0  0  0  0
   -0.9170   -2.0360    2.0278 O   0  0  0  0  0  0  0  0  0  0  0  0
   -1.2819   -0.4727    0.4240 N   0  0  0  0  0  0  0  0  0  0  0  0
   -1.7724   -0.3717   -0.4576 H   0  0  0  0  0  0  0  0  0  0  0  0
    0.0480    0.1520    0.4479 C   0  0  1  0  0  0  0  0  0  0  0  0
    0.7998   -0.4994    0.9105 H   0  0  0  0  0  0  0  0  0  0  0  0
    0.4020    0.3982   -1.0379 C   0  0  0  0  0  0  0  0  0  0  0  0
   -0.3961    0.9667   -1.5244 H   0  0  0  0  0  0  0  0  0  0  0  0
    1.3180    0.9930   -1.0863 H   0  0  0  0  0  0  0  0  0  0  0  0
    0.6583   -0.8681   -1.8469 C   0  0  0  0  0  0  0  0  0  0  0  0
    1.1091   -1.8889   -1.2801 O   0  5  0  0  0  0  0  0  0  0  0  0
    0.2854   -0.8214   -3.0436 O   0  0  0  0  0  0  0  0  0  0  0  0
    0.0335    1.5021    1.2105 C   0  0  0  0  0  0  0  0  0  0  0  0
    0.2485    1.5621    2.4153 O   0  0  0  0  0  0  0  0  0  0  0  0
   -0.2237    2.6898    0.5427 N   0  0  0  0  0  0  0  0  0  0  0  0
   -0.3256    2.6281   -0.4656 H   0  0  0  0  0  0  0  0  0  0  0  0
   -0.1914    4.0004    1.1749 C   0  0  0  0  0  0  0  0  0  0  0  0
    0.8072    4.2084    1.5723 H   0  0  0  0  0  0  0  0  0  0  0  0
   -0.4434    4.7752    0.4450 H   0  0  0  0  0  0  0  0  0  0  0  0
   -0.9164    4.0481    1.9938 H   0  0  0  0  0  0  0  0  0  0  0  0
  1  2  1  0  0  0  0
  2  3  1  0  0  0  0
  2  4  1  0  0  0  0
  2  5  1  0  0  0  0
  5  6  2  0  0  0  0
  5  7  1  0  0  0  0
  7  8  1  0  0  0  0
  7  9  1  0  0  0  0
  9 10  1  0  0  0  0
  9 11  1  0  0  0  0
  9 17  1  0  0  0  0
 11 12  1  0  0  0  0
 11 13  1  0  0  0  0
 11 14  1  0  0  0  0
 14 15  1  0  0  0  0
 14 16  2  0  0  0  0
 17 18  2  0  0  0  0
 17 19  1  0  0  0  0
 19 20  1  0  0  0  0
 19 21  1  0  0  0  0
 21 22  1  0  0  0  0
 21 23  1  0  0  0  0
 21 24  1  0  0  0  0
M  CHG  1  15  -1
M  END
$$$$

  -OEChem-01062216073D

 24 23  0     1  0  0  0  0  0999 V2000
   -2.5011   -3.6304    0.9029 H   0  0  0  0  0  0  0  0  0  0  0  0
   -2.4384   -2.7054    0.3232 C   0  0  0  0  0  0  0  0  0  0  0  0
   -3.4354   -2.2657    0.2473 H   0  0  0  0  0  0  0  0  0  0  0  0
   -2.0732   -2.9446   -0.6797 H   0  0  0  0  0  0  0  0  0  0  0  0
   -1.4858   -1.7311    0.9925 C   0  0  0  0  0  0  0  0  0  0  0  0
   -0.9752   -2.0234    2.0630 O   0  0  0  0  0  0  0  0  0  0  0  0
   -1.3009   -0.4826    0.4353 N   0  0  0  0  0  0  0  0  0  0  0  0
   -1.7668   -0.3998   -0.4617 H   0  0  0  0  0  0  0  0  0  0  0  0
    0.0315    0.1368    0.4691 C   0  0  1  0  0  0  0  0  0  0  0  0
    0.7813   -0.5219    0.9249 H   0  0  0  0  0  0  0  0  0  0  0  0
    0.3863    0.4078   -1.0106 C   0  0  0  0  0  0  0  0  0  0  0  0
   -0.4077    0.9883   -1.4889 H   0  0  0  0  0  0  0  0  0  0  0  0
    1.3034    1.0019   -1.0469 H   0  0  0  0  0  0  0  0  0  0  0  0
    0.6368   -0.8478   -1.8379 C   0  0  0  0  0  0  0  0  0  0  0  0
    1.0825   -1.8788   -1.2854 O   0  5  0  0  0  0  0  0  0  0  0  0
    0.2458   -0.7884   -3.0283 O   0  0  0  0  0  0  0  0  0  0  0  0
    0.0175    1.4802    1.2387 C   0  0  0  0  0  0  0  0  0  0  0  0
    0.5273    1.5930    2.3474 O   0  0  0  0  0  0  0  0  0  0  0  0
   -0.5294    2.6123    0.6552 N   0  0  0  0  0  0  0  0  0  0  0  0
   -0.8584    2.5136   -0.2998 H   0  0  0  0  0  0  0  0  0  0  0  0
   -0.4886    3.9355    1.2595 C   0  0  0  0  0  0  0  0  0  0  0  0
    0.5475    4.2626    1.3937 H   0  0  0  0  0  0  0  0  0  0  0  0
   -1.0007    4.6575    0.6166 H   0  0  0  0  0  0  0  0  0  0  0  0
   -0.9868    3.9263    2.2341 H   0  0  0  0  0  0  0  0  0  0  0  0
  1  2  1  0  0  0  0
  2  3  1  0  0  0  0
  2  4  1  0  0  0  0
  2  5  1  0  0  0  0
  5  6  2  0  0  0  0
  5  7  1  0  0  0  0
  7  8  1  0  0  0  0
  7  9  1  0  0  0  0
  9 10  1  0  0  0  0
  9 11  1  0  0  0  0
  9 17  1  0  0  0  0
 11 12  1  0  0  0  0
 11 13  1  0  0  0  0
 11 14  1  0  0  0  0
 14 15  1  0  0  0  0
 14 16  2  0  0  0  0
 17 18  2  0  0  0  0
 17 19  1  0  0  0  0
 19 20  1  0  0  0  0
 19 21  1  0  0  0  0
 21 22  1  0  0  0  0
 21 23  1  0  0  0  0
 21 24  1  0  0  0  0
M  CHG  1  15  -1
M  END
$$$$

  -OEChem-01062216073D

 24 23  0     1  0  0  0  0  0999 V2000
   -2.4534   -3.6560    0.8617 H   0  0  0  0  0  0  0  0  0  0  0  0
   -2.4100   -2.7216    0.2955 C   0  0  0  0  0  0  0  0  0  0  0  0
   -3.4186   -2.3117    0.2070 H   0  0  0  0  0  0  0  0  0  0  0  0
   -2.0199   -2.9363   -0.7037 H   0  0  0  0  0  0  0  0  0  0  0  0
   -1.5000   -1.7279    0.9943 C   0  0  0  0  0  0  0  0  0  0  0  0
   -1.0357   -1.9958    2.0921 O   0  0  0  0  0  0  0  0  0  0  0  0
   -1.3105   -0.4802    0.4385 N   0  0  0  0  0  0  0  0  0  0  0  0
   -1.7474   -0.4168   -0.4752 H   0  0  0  0  0  0  0  0  0  0  0  0
    0.0312    0.1192    0.4809 C   0  0  1  0  0  0  0  0  0  0  0  0
    0.7723   -0.5531    0.9313 H   0  0  0  0  0  0  0  0  0  0  0  0
    0.3857    0.4047   -0.9937 C   0  0  0  0  0  0  0  0  0  0  0  0
   -0.3975    1.0080   -1.4617 H   0  0  0  0  0  0  0  0  0  0  0  0
    1.3132    0.9828   -1.0240 H   0  0  0  0  0  0  0  0  0  0  0  0
    0.6134   -0.8491   -1.8310 C   0  0  0  0  0  0  0  0  0  0  0  0
    1.0434   -1.8908   -1.2852 O   0  5  0  0  0  0  0  0  0  0  0  0
    0.1952   -0.7845   -3.0118 O   0  0  0  0  0  0  0  0  0  0  0  0
    0.0344    1.4578    1.2546 C   0  0  0  0  0  0  0  0  0  0  0  0
    0.7880    1.6525    2.2016 O   0  0  0  0  0  0  0  0  0  0  0  0
   -0.7560    2.5085    0.8176 N   0  0  0  0  0  0  0  0  0  0  0  0
   -1.3253    2.3369   -0.0042 H   0  0  0  0  0  0  0  0  0  0  0  0
   -0.7603    3.8293    1.4277 C   0  0  0  0  0  0  0  0  0  0  0  0
    0.2354    4.2803    1.3693 H   0  0  0  0  0  0  0  0  0  0  0  0
   -1.4671    4.4815    0.9067 H   0  0  0  0  0  0  0  0  0  0  0  0
   -1.0597    3.7634    2.4786 H   0  0  0  0  0  0  0  0  0  0  0  0
  1  2  1  0  0  0  0
  2  3  1  0  0  0  0
  2  4  1  0  0  0  0
  2  5  1  0  0  0  0
  5  6  2  0  0  0  0
  5  7  1  0  0  0  0
  7  8  1  0  0  0  0
  7  9  1  0  0  0  0
  9 10  1  0  0  0  0
  9 11  1  0  0  0  0
  9 17  1  0  0  0  0
 11 12  1  0  0  0  0
 11 13  1  0  0  0  0
 11 14  1  0  0  0  0
 14 15  1  0  0  0  0
 14 16  2  0  0  0  0
 17 18  2  0  0  0  0
 17 19  1  0  0  0  0
 19 20  1  0  0  0  0
 19 21  1  0  0  0  0
 21 22  1  0  0  0  0
 21 23  1  0  0  0  0
 21 24  1  0  0  0  0
M  CHG  1  15  -1
M  END
$$$$

  -OEChem-01062216073D

 24 23  0     1  0  0  0  0  0999 V2000
   -2.4313   -3.6612    0.8432 H   0  0  0  0  0  0  0  0  0  0  0  0
   -2.3827   -2.7310    0.2706 C   0  0  0  0  0  0  0  0  0  0  0  0
   -3.3937   -2.3378    0.1433 H   0  0  0  0  0  0  0  0  0  0  0  0
   -1.9544   -2.9479   -0.7124 H   0  0  0  0  0  0  0  0  0  0  0  0
   -1.5136   -1.7168    0.9914 C   0  0  0  0  0  0  0  0  0  0  0  0
   -1.0960   -1.9567    2.1145 O   0  0  0  0  0  0  0  0  0  0  0  0
   -1.3169   -0.4723    0.4316 N   0  0  0  0  0  0  0  0  0  0  0  0
   -1.7275   -0.4267   -0.4960 H   0  0  0  0  0  0  0  0  0  0  0  0
    0.0339    0.1076    0.4808 C   0  0  1  0  0  0  0  0  0  0  0  0
    0.7644   -0.5759    0.9314 H   0  0  0  0  0  0  0  0  0  0  0  0
    0.3929    0.3948   -0.9907 C   0  0  0  0  0  0  0  0  0  0  0  0
   -0.3807    1.0149   -1.4532 H   0  0  0  0  0  0  0  0  0  0  0  0
    1.3297    0.9581   -1.0187 H   0  0  0  0  0  0  0  0  0  0  0  0
    0.6015   -0.8615   -1.8298 C   0  0  0  0  0  0  0  0  0  0  0  0
    1.0151   -1.9098   -1.2827 O   0  5  0  0  0  0  0  0  0  0  0  0
    0.1719   -0.7955   -3.0063 O   0  0  0  0  0  0  0  0  0  0  0  0
    0.0577    1.4460    1.2522 C   0  0  0  0  0  0  0  0  0  0  0  0
    0.9890    1.7440    1.9921 O   0  0  0  0  0  0  0  0  0  0  0  0
   -0.9239    2.3929    1.0119 N   0  0  0  0  0  0  0  0  0  0  0  0
   -1.6941    2.1010    0.4202 H   0  0  0  0  0  0  0  0  0  0  0  0
   -0.9795    3.6885    1.6716 C   0  0  0  0  0  0  0  0  0  0  0  0
   -0.0762    4.2675    1.4545 H   0  0  0  0  0  0  0  0  0  0  0  0
   -1.8460    4.2539    1.3162 H   0  0  0  0  0  0  0  0  0  0  0  0
   -1.0685    3.5612    2.7552 H   0  0  0  0  0  0  0  0  0  0  0  0
  1  2  1  0  0  0  0
  2  3  1  0  0  0  0
  2  4  1  0  0  0  0
  2  5  1  0  0  0  0
  5  6  2  0  0  0  0
  5  7  1  0  0  0  0
  7  8  1  0  0  0  0
  7  9  1  0  0  0  0
  9 10  1  0  0  0  0
  9 11  1  0  0  0  0
  9 17  1  0  0  0  0
 11 12  1  0  0  0  0
 11 13  1  0  0  0  0
 11 14  1  0  0  0  0
 14 15  1  0  0  0  0
 14 16  2  0  0  0  0
 17 18  2  0  0  0  0
 17 19  1  0  0  0  0
 19 20  1  0  0  0  0
 19 21  1  0  0  0  0
 21 22  1  0  0  0  0
 21 23  1  0  0  0  0
 21 24  1  0  0  0  0
M  CHG  1  15  -1
M  END
$$$$

  -OEChem-01062216073D

 24 23  0     1  0  0  0  0  0999 V2000
   -2.4508   -3.6506    0.8354 H   0  0  0  0  0  0  0  0  0  0  0  0
   -2.3705   -2.7332    0.2462 C   0  0  0  0  0  0  0  0  0  0  0  0
   -3.3717   -2.3330    0.0720 H   0  0  0  0  0  0  0  0  0  0  0  0
   -1.9081   -2.9746   -0.7156 H   0  0  0  0  0  0  0  0  0  0  0  0
   -1.5178   -1.7131    0.9779 C   0  0  0  0  0  0  0  0  0  0  0  0
   -1.1262   -1.9392    2.1133 O   0  0  0  0  0  0  0  0  0  0  0  0
   -1.3162   -0.4690    0.4203 N   0  0  0  0  0  0  0  0  0  0  0  0
   -1.7134   -0.4261   -0.5141 H   0  0  0  0  0  0  0  0  0  0  0  0
    0.0389    0.1024    0.4759 C   0  0  1  0  0  0  0  0  0  0  0  0
    0.7636   -0.5867    0.9272 H   0  0  0  0  0  0  0  0  0  0  0  0
    0.3999    0.3878   -0.9946 C   0  0  0  0  0  0  0  0  0  0  0  0
   -0.3691    1.0149   -1.4557 H   0  0  0  0  0  0  0  0  0  0  0  0
    1.3410    0.9437   -1.0235 H   0  0  0  0  0  0  0  0  0  0  0  0
    0.5993   -0.8735   -1.8289 C   0  0  0  0  0  0  0  0  0  0  0  0
    1.0054   -1.9221   -1.2757 O   0  5  0  0  0  0  0  0  0  0  0  0
    0.1615   -0.8141   -3.0027 O   0  0  0  0  0  0  0  0  0  0  0  0
    0.0727    1.4390    1.2498 C   0  0  0  0  0  0  0  0  0  0  0  0
    1.1046    1.8541    1.7665 O   0  0  0  0  0  0  0  0  0  0  0  0
   -1.0447    2.2562    1.2507 N   0  0  0  0  0  0  0  0  0  0  0  0
   -1.8975    1.8327    0.8998 H   0  0  0  0  0  0  0  0  0  0  0  0
   -1.1198    3.5206    1.9665 C   0  0  0  0  0  0  0  0  0  0  0  0
   -0.3539    4.2126    1.6019 H   0  0  0  0  0  0  0  0  0  0  0  0
   -2.1007    3.9802    1.8143 H   0  0  0  0  0  0  0  0  0  0  0  0
   -0.9727    3.3617    3.0396 H   0  0  0  0  0  0  0  0  0  0  0  0
  1  2  1  0  0  0  0
  2  3  1  0  0  0  0
  2  4  1  0  0  0  0
  2  5  1  0  0  0  0
  5  6  2  0  0  0  0
  5  7  1  0  0  0  0
  7  8  1  0  0  0  0
  7  9  1  0  0  0  0
  9 10  1  0  0  0  0
  9 11  1  0  0  0  0
  9 17  1  0  0  0  0
 11 12  1  0  0  0  0
 11 13  1  0  0  0  0
 11 14  1  0  0  0  0
 14 15  1  0  0  0  0
 14 16  2  0  0  0  0
 17 18  2  0  0  0  0
 17 19  1  0  0  0  0
 19 20  1  0  0  0  0
 19 21  1  0  0  0  0
 21 22  1  0  0  0  0
 21 23  1  0  0  0  0
 21 24  1  0  0  0  0
M  CHG  1  15  -1
M  END
$$$$

  -OEChem-01062216073D

 24 23  0     1  0  0  0  0  0999 V2000
   -2.4264   -3.6554    0.8010 H   0  0  0  0  0  0  0  0  0  0  0  0
   -2.3479   -2.7370    0.2130 C   0  0  0  0  0  0  0  0  0  0  0  0
   -3.3513   -2.3532    0.0157 H   0  0  0  0  0  0  0  0  0  0  0  0
   -1.8596   -2.9711   -0.7377 H   0  0  0  0  0  0  0  0  0  0  0  0
   -1.5279   -1.7032    0.9624 C   0  0  0  0  0  0  0  0  0  0  0  0
   -1.1677   -1.9140    2.1113 O   0  0  0  0  0  0  0  0  0  0  0  0
   -1.3241   -0.4580    0.4088 N   0  0  0  0  0  0  0  0  0  0  0  0
   -1.7157   -0.4109   -0.5281 H   0  0  0  0  0  0  0  0  0  0  0  0
    0.0354    0.1046    0.4687 C   0  0  1  0  0  0  0  0  0  0  0  0
    0.7531   -0.5896    0.9231 H   0  0  0  0  0  0  0  0  0  0  0  0
    0.3995    0.3781   -1.0038 C   0  0  0  0  0  0  0  0  0  0  0  0
   -0.3651    1.0071   -1.4692 H   0  0  0  0  0  0  0  0  0  0  0  0
    1.3443    0.9271   -1.0375 H   0  0  0  0  0  0  0  0  0  0  0  0
    0.5910   -0.8916   -1.8276 C   0  0  0  0  0  0  0  0  0  0  0  0
    0.9896   -1.9378   -1.2637 O   0  5  0  0  0  0  0  0  0  0  0  0
    0.1504   -0.8420   -3.0009 O   0  0  0  0  0  0  0  0  0  0  0  0
    0.0803    1.4389    1.2483 C   0  0  0  0  0  0  0  0  0  0  0  0
    1.1441    1.9659    1.5569 O   0  0  0  0  0  0  0  0  0  0  0  0
   -1.0971    2.1143    1.5187 N   0  0  0  0  0  0  0  0  0  0  0  0
   -1.9462    1.5798    1.3614 H   0  0  0  0  0  0  0  0  0  0  0  0
   -1.1626    3.3400    2.2997 C   0  0  0  0  0  0  0  0  0  0  0  0
   -0.5646    4.1265    1.8282 H   0  0  0  0  0  0  0  0  0  0  0  0
   -2.1977    3.6873    2.3661 H   0  0  0  0  0  0  0  0  0  0  0  0
   -0.7868    3.1676    3.3133 H   0  0  0  0  0  0  0  0  0  0  0  0
  1  2  1  0  0  0  0
  2  3  1  0  0  0  0
  2  4  1  0  0  0  0
  2  5  1  0  0  0  0
  5  6  2  0  0  0  0
  5  7  1  0  0  0  0
  7  8  1  0  0  0  0
  7  9  1  0  0  0  0
  9 10  1  0  0  0  0
  9 11  1  0  0  0  0
  9 17  1  0  0  0  0
 11 12  1  0  0  0  0
 11 13  1  0  0  0  0
 11 14  1  0  0  0  0
 14 15  1  0  0  0  0
 14 16  2  0  0  0  0
 17 18  2  0  0  0  0
 17 19  1  0  0  0  0
 19 20  1  0  0  0  0
 19 21  1  0  0  0  0
 21 22  1  0  0  0  0
 21 23  1  0  0  0  0
 21 24  1  0  0  0  0
M  CHG  1  15  -1
M  END
$$$$

  -OEChem-01062216073D

 24 23  0     1  0  0  0  0  0999 V2000
   -2.4307   -3.6399    0.7840 H   0  0  0  0  0  0  0  0  0  0  0  0
   -2.3394   -2.7261    0.1907 C   0  0  0  0  0  0  0  0  0  0  0  0
   -3.3380   -2.3420   -0.0288 H   0  0  0  0  0  0  0  0  0  0  0  0
   -1.8340   -2.9683   -0.7490 H   0  0  0  0  0  0  0  0  0  0  0  0
   -1.5316   -1.6881    0.9476 C   0  0  0  0  0  0  0  0  0  0  0  0
   -1.1927   -1.8874    2.1053 O   0  0  0  0  0  0  0  0  0  0  0  0
   -1.3247   -0.4422    0.3982 N   0  0  0  0  0  0  0  0  0  0  0  0
   -1.7176   -0.3872   -0.5378 H   0  0  0  0  0  0  0  0  0  0  0  0
    0.0378    0.1136    0.4578 C   0  0  1  0  0  0  0  0  0  0  0  0
    0.7502   -0.5833    0.9158 H   0  0  0  0  0  0  0  0  0  0  0  0
    0.4032    0.3711   -1.0179 C   0  0  0  0  0  0  0  0  0  0  0  0
   -0.3578    1.0001   -1.4894 H   0  0  0  0  0  0  0  0  0  0  0  0
    1.3513    0.9139   -1.0595 H   0  0  0  0  0  0  0  0  0  0  0  0
    0.5876   -0.9092   -1.8271 C   0  0  0  0  0  0  0  0  0  0  0  0
    0.9808   -1.9505   -1.2498 O   0  5  0  0  0  0  0  0  0  0  0  0
    0.1455   -0.8732   -3.0002 O   0  0  0  0  0  0  0  0  0  0  0  0
    0.0879    1.4455    1.2438 C   0  0  0  0  0  0  0  0  0  0  0  0
    1.1258    2.0895    1.3594 O   0  0  0  0  0  0  0  0  0  0  0  0
   -1.0753    1.9619    1.7868 N   0  0  0  0  0  0  0  0  0  0  0  0
   -1.8646    1.3213    1.7912 H   0  0  0  0  0  0  0  0  0  0  0  0
   -1.1144    3.1439    2.6342 C   0  0  0  0  0  0  0  0  0  0  0  0
   -0.7155    4.0117    2.0991 H   0  0  0  0  0  0  0  0  0  0  0  0
   -2.1460    3.3627    2.9247 H   0  0  0  0  0  0  0  0  0  0  0  0
   -0.5230    2.9831    3.5414 H   0  0  0  0  0  0  0  0  0  0  0  0
  1  2  1  0  0  0  0
  2  3  1  0  0  0  0
  2  4  1  0  0  0  0
  2  5  1  0  0  0  0
  5  6  2  0  0  0  0
  5  7  1  0  0  0  0
  7  8  1  0  0  0  0
  7  9  1  0  0  0  0
  9 10  1  0  0  0  0
  9 11  1  0  0  0  0
  9 17  1  0  0  0  0
 11 12  1  0  0  0  0
 11 13  1  0  0  0  0
 11 14  1  0  0  0  0
 14 15  1  0  0  0  0
 14 16  2  0  0  0  0
 17 18  2  0  0  0  0
 17 19  1  0  0  0  0
 19 20  1  0  0  0  0
 19 21  1  0  0  0  0
 21 22  1  0  0  0  0
 21 23  1  0  0  0  0
 21 24  1  0  0  0  0
M  CHG  1  15  -1
M  END
$$$$

  -OEChem-01062216073D

 24 23  0     1  0  0  0  0  0999 V2000
   -2.4472   -3.6103    0.7761 H   0  0  0  0  0  0  0  0  0  0  0  0
   -2.3511   -2.6970    0.1830 C   0  0  0  0  0  0  0  0  0  0  0  0
   -3.3475   -2.3027   -0.0288 H   0  0  0  0  0  0  0  0  0  0  0  0
   -1.8552   -2.9431   -0.7607 H   0  0  0  0  0  0  0  0  0  0  0  0
   -1.5275   -1.6680    0.9350 C   0  0  0  0  0  0  0  0  0  0  0  0
   -1.1975   -1.8614    2.0967 O   0  0  0  0  0  0  0  0  0  0  0  0
   -1.3159   -0.4204    0.3929 N   0  0  0  0  0  0  0  0  0  0  0  0
   -1.7202   -0.3506   -0.5371 H   0  0  0  0  0  0  0  0  0  0  0  0
    0.0499    0.1272    0.4446 C   0  0  1  0  0  0  0  0  0  0  0  0
    0.7582   -0.5725    0.9045 H   0  0  0  0  0  0  0  0  0  0  0  0
    0.4171    0.3695   -1.0345 C   0  0  0  0  0  0  0  0  0  0  0  0
   -0.3408    0.9979   -1.5114 H   0  0  0  0  0  0  0  0  0  0  0  0
    1.3684    0.9053   -1.0839 H   0  0  0  0  0  0  0  0  0  0  0  0
    0.5931   -0.9201   -1.8306 C   0  0  0  0  0  0  0  0  0  0  0  0
    0.9797   -1.9572   -1.2408 O   0  5  0  0  0  0  0  0  0  0  0  0
    0.1594   -0.8939   -3.0071 O   0  0  0  0  0  0  0  0  0  0  0  0
    0.0987    1.4531    1.2426 C   0  0  0  0  0  0  0  0  0  0  0  0
    1.0482    2.2277    1.1735 O   0  0  0  0  0  0  0  0  0  0  0  0
   -0.9750    1.7935    2.0457 N   0  0  0  0  0  0  0  0  0  0  0  0
   -1.6530    1.0476    2.1865 H   0  0  0  0  0  0  0  0  0  0  0  0
   -0.9844    2.9407    2.9402 C   0  0  0  0  0  0  0  0  0  0  0  0
   -0.8154    3.8651    2.3786 H   0  0  0  0  0  0  0  0  0  0  0  0
   -1.9527    3.0152    3.4435 H   0  0  0  0  0  0  0  0  0  0  0  0
   -0.2029    2.8388    3.7000 H   0  0  0  0  0  0  0  0  0  0  0  0
  1  2  1  0  0  0  0
  2  3  1  0  0  0  0
  2  4  1  0  0  0  0
  2  5  1  0  0  0  0
  5  6  2  0  0  0  0
  5  7  1  0  0  0  0
  7  8  1  0  0  0  0
  7  9  1  0  0  0  0
  9 10  1  0  0  0  0
  9 11  1  0  0  0  0
  9 17  1  0  0  0  0
 11 12  1  0  0  0  0
 11 13  1  0  0  0  0
 11 14  1  0  0  0  0
 14 15  1  0  0  0  0
 14 16  2  0  0  0  0
 17 18  2  0  0  0  0
 17 19  1  0  0  0  0
 19 20  1  0  0  0  0
 19 21  1  0  0  0  0
 21 22  1  0  0  0  0
 21 23  1  0  0  0  0
 21 24  1  0  0  0  0
M  CHG  1  15  -1
M  END
$$$$

  -OEChem-01062216073D

 24 23  0     1  0  0  0  0  0999 V2000
   -2.4599   -3.5736    0.7789 H   0  0  0  0  0  0  0  0  0  0  0  0
   -2.3622   -2.6607    0.1855 C   0  0  0  0  0  0  0  0  0  0  0  0
   -3.3574   -2.2583   -0.0168 H   0  0  0  0  0  0  0  0  0  0  0  0
   -1.8768   -2.9102   -0.7629 H   0  0  0  0  0  0  0  0  0  0  0  0
   -1.5241   -1.6387    0.9312 C   0  0  0  0  0  0  0  0  0  0  0  0
   -1.1934   -1.8270    2.0943 O   0  0  0  0  0  0  0  0  0  0  0  0
   -1.3078   -0.3909    0.3934 N   0  0  0  0  0  0  0  0  0  0  0  0
   -1.7250   -0.3071   -0.5294 H   0  0  0  0  0  0  0  0  0  0  0  0
    0.0629    0.1427    0.4330 C   0  0  1  0  0  0  0  0  0  0  0  0
    0.7663   -0.5612    0.8938 H   0  0  0  0  0  0  0  0  0  0  0  0
    0.4330    0.3699   -1.0482 C   0  0  0  0  0  0  0  0  0  0  0  0
   -0.3183    1.0024   -1.5301 H   0  0  0  0  0  0  0  0  0  0  0  0
    1.3906    0.8942   -1.1015 H   0  0  0  0  0  0  0  0  0  0  0  0
    0.5951   -0.9292   -1.8327 C   0  0  0  0  0  0  0  0  0  0  0  0
    0.9706   -1.9644   -1.2318 O   0  5  0  0  0  0  0  0  0  0  0  0
    0.1679   -0.9103   -3.0116 O   0  0  0  0  0  0  0  0  0  0  0  0
    0.1116    1.4616    1.2419 C   0  0  0  0  0  0  0  0  0  0  0  0
    0.9142    2.3609    1.0103 O   0  0  0  0  0  0  0  0  0  0  0  0
   -0.7962    1.6321    2.2712 N   0  0  0  0  0  0  0  0  0  0  0  0
   -1.3405    0.8022    2.5035 H   0  0  0  0  0  0  0  0  0  0  0  0
   -0.7755    2.7544    3.1960 C   0  0  0  0  0  0  0  0  0  0  0  0
   -0.8694    3.7000    2.6525 H   0  0  0  0  0  0  0  0  0  0  0  0
   -1.6104    2.6762    3.8986 H   0  0  0  0  0  0  0  0  0  0  0  0
    0.1597    2.7628    3.7649 H   0  0  0  0  0  0  0  0  0  0  0  0
  1  2  1  0  0  0  0
  2  3  1  0  0  0  0
  2  4  1  0  0  0  0
  2  5  1  0  0  0  0
  5  6  2  0  0  0  0
  5  7  1  0  0  0  0
  7  8  1  0  0  0  0
  7  9  1  0  0  0  0
  9 10  1  0  0  0  0
  9 11  1  0  0  0  0
  9 17  1  0  0  0  0
 11 12  1  0  0  0  0
 11 13  1  0  0  0  0
 11 14  1  0  0  0  0
 14 15  1  0  0  0  0
 14 16  2  0  0  0  0
 17 18  2  0  0  0  0
 17 19  1  0  0  0  0
 19 20  1  0  0  0  0
 19 21  1  0  0  0  0
 21 22  1  0  0  0  0
 21 23  1  0  0  0  0
 21 24  1  0  0  0  0
M  CHG  1  15  -1
M  END
$$$$

  -OEChem-01062216073D

 24 23  0     1  0  0  0  0  0999 V2000
   -2.4944   -3.5246    0.8048 H   0  0  0  0  0  0  0  0  0  0  0  0
   -2.3814   -2.6178    0.2047 C   0  0  0  0  0  0  0  0  0  0  0  0
   -3.3689   -2.1949    0.0071 H   0  0  0  0  0  0  0  0  0  0  0  0
   -1.9090   -2.8835   -0.7458 H   0  0  0  0  0  0  0  0  0  0  0  0
   -1.5164   -1.6093    0.9372 C   0  0  0  0  0  0  0  0  0  0  0  0
   -1.1629   -1.8057    2.0932 O   0  0  0  0  0  0  0  0  0  0  0  0
   -1.2929   -0.3619    0.4019 N   0  0  0  0  0  0  0  0  0  0  0  0
   -1.7252   -0.2636   -0.5125 H   0  0  0  0  0  0  0  0  0  0  0  0
    0.0846    0.1506    0.4264 C   0  0  1  0  0  0  0  0  0  0  0  0
    0.7827   -0.5616    0.8824 H   0  0  0  0  0  0  0  0  0  0  0  0
    0.4542    0.3701   -1.0562 C   0  0  0  0  0  0  0  0  0  0  0  0
   -0.2888    1.0128   -1.5375 H   0  0  0  0  0  0  0  0  0  0  0  0
    1.4190    0.8807   -1.1114 H   0  0  0  0  0  0  0  0  0  0  0  0
    0.5948   -0.9324   -1.8390 C   0  0  0  0  0  0  0  0  0  0  0  0
    0.9563   -1.9716   -1.2359 O   0  5  0  0  0  0  0  0  0  0  0  0
    0.1740   -0.9090   -3.0200 O   0  0  0  0  0  0  0  0  0  0  0  0
    0.1427    1.4613    1.2445 C   0  0  0  0  0  0  0  0  0  0  0  0
    0.7475    2.4662    0.8818 O   0  0  0  0  0  0  0  0  0  0  0  0
   -0.5285    1.4865    2.4528 N   0  0  0  0  0  0  0  0  0  0  0  0
   -0.9565    0.6036    2.7339 H   0  0  0  0  0  0  0  0  0  0  0  0
   -0.5128    2.6084    3.3776 C   0  0  0  0  0  0  0  0  0  0  0  0
   -0.9136    3.5061    2.8961 H   0  0  0  0  0  0  0  0  0  0  0  0
   -1.1287    2.3808    4.2526 H   0  0  0  0  0  0  0  0  0  0  0  0
    0.5087    2.8116    3.7145 H   0  0  0  0  0  0  0  0  0  0  0  0
  1  2  1  0  0  0  0
  2  3  1  0  0  0  0
  2  4  1  0  0  0  0
  2  5  1  0  0  0  0
  5  6  2  0  0  0  0
  5  7  1  0  0  0  0
  7  8  1  0  0  0  0
  7  9  1  0  0  0  0
  9 10  1  0  0  0  0
  9 11  1  0  0  0  0
  9 17  1  0  0  0  0
 11 12  1  0  0  0  0
 11 13  1  0  0  0  0
 11 14  1  0  0  0  0
 14 15  1  0  0  0  0
 14 16  2  0  0  0  0
 17 18  2  0  0  0  0
 17 19  1  0  0  0  0
 19 20  1  0  0  0  0
 19 21  1  0  0  0  0
 21 22  1  0  0  0  0
 21 23  1  0  0  0  0
 21 24  1  0  0  0  0
M  CHG  1  15  -1
M  END
$$$$

  -OEChem-01062216073D

 24 23  0     1  0  0  0  0  0999 V2000
   -2.5374   -3.4698    0.8417 H   0  0  0  0  0  0  0  0  0  0  0  0
   -2.4129   -2.5654    0.2402 C   0  0  0  0  0  0  0  0  0  0  0  0
   -3.3923   -2.1130    0.0690 H   0  0  0  0  0  0  0  0  0  0  0  0
   -1.9730   -2.8424   -0.7224 H   0  0  0  0  0  0  0  0  0  0  0  0
   -1.4990   -1.5845    0.9509 C   0  0  0  0  0  0  0  0  0  0  0  0
   -1.1053   -1.8035    2.0905 O   0  0  0  0  0  0  0  0  0  0  0  0
   -1.2623   -0.3393    0.4156 N   0  0  0  0  0  0  0  0  0  0  0  0
   -1.7119   -0.2234   -0.4881 H   0  0  0  0  0  0  0  0  0  0  0  0
    0.1221    0.1492    0.4222 C   0  0  1  0  0  0  0  0  0  0  0  0
    0.8169   -0.5733    0.8669 H   0  0  0  0  0  0  0  0  0  0  0  0
    0.4821    0.3675   -1.0628 C   0  0  0  0  0  0  0  0  0  0  0  0
   -0.2564    1.0222   -1.5352 H   0  0  0  0  0  0  0  0  0  0  0  0
    1.4534    0.8653   -1.1233 H   0  0  0  0  0  0  0  0  0  0  0  0
    0.5938   -0.9341   -1.8518 C   0  0  0  0  0  0  0  0  0  0  0  0
    0.9434   -1.9806   -1.2544 O   0  5  0  0  0  0  0  0  0  0  0  0
    0.1739   -0.8992   -3.0329 O   0  0  0  0  0  0  0  0  0  0  0  0
    0.2000    1.4539    1.2446 C   0  0  0  0  0  0  0  0  0  0  0  0
    0.5646    2.5342    0.7888 O   0  0  0  0  0  0  0  0  0  0  0  0
   -0.1778    1.3776    2.5718 N   0  0  0  0  0  0  0  0  0  0  0  0
   -0.5279    0.4687    2.8786 H   0  0  0  0  0  0  0  0  0  0  0  0
   -0.2232    2.5132    3.4788 C   0  0  0  0  0  0  0  0  0  0  0  0
   -0.9363    3.2614    3.1183 H   0  0  0  0  0  0  0  0  0  0  0  0
   -0.5366    2.1852    4.4742 H   0  0  0  0  0  0  0  0  0  0  0  0
    0.7655    2.9753    3.5622 H   0  0  0  0  0  0  0  0  0  0  0  0
  1  2  1  0  0  0  0
  2  3  1  0  0  0  0
  2  4  1  0  0  0  0
  2  5  1  0  0  0  0
  5  6  2  0  0  0  0
  5  7  1  0  0  0  0
  7  8  1  0  0  0  0
  7  9  1  0  0  0  0
  9 10  1  0  0  0  0
  9 11  1  0  0  0  0
  9 17  1  0  0  0  0
 11 12  1  0  0  0  0
 11 13  1  0  0  0  0
 11 14  1  0  0  0  0
 14 15  1  0  0  0  0
 14 16  2  0  0  0  0
 17 18  2  0  0  0  0
 17 19  1  0  0  0  0
 19 20  1  0  0  0  0
 19 21  1  0  0  0  0
 21 22  1  0  0  0  0
 21 23  1  0  0  0  0
 21 24  1  0  0  0  0
M  CHG  1  15  -1
M  END
$$$$

  -OEChem-01062216073D

 24 23  0     1  0  0  0  0  0999 V2000
   -2.5386   -3.4508    0.8579 H   0  0  0  0  0  0  0  0  0  0  0  0
   -2.4377   -2.5356    0.2687 C   0  0  0  0  0  0  0  0  0  0  0  0
   -3.4222   -2.0781    0.1488 H   0  0  0  0  0  0  0  0  0  0  0  0
   -2.0405   -2.7955   -0.7169 H   0  0  0  0  0  0  0  0  0  0  0  0
   -1.4916   -1.5702    0.9580 C   0  0  0  0  0  0  0  0  0  0  0  0
   -1.0554   -1.8110    2.0778 O   0  0  0  0  0  0  0  0  0  0  0  0
   -1.2509   -0.3284    0.4153 N   0  0  0  0  0  0  0  0  0  0  0  0
   -1.7140   -0.2018   -0.4798 H   0  0  0  0  0  0  0  0  0  0  0  0
    0.1331    0.1565    0.4161 C   0  0  1  0  0  0  0  0  0  0  0  0
    0.8277   -0.5662    0.8610 H   0  0  0  0  0  0  0  0  0  0  0  0
    0.4972    0.3664   -1.0692 C   0  0  0  0  0  0  0  0  0  0  0  0
   -0.2404    1.0178   -1.5476 H   0  0  0  0  0  0  0  0  0  0  0  0
    1.4683    0.8650   -1.1281 H   0  0  0  0  0  0  0  0  0  0  0  0
    0.6085   -0.9389   -1.8523 C   0  0  0  0  0  0  0  0  0  0  0  0
    0.9547   -1.9831   -1.2489 O   0  5  0  0  0  0  0  0  0  0  0  0
    0.2052   -0.9072   -3.0392 O   0  0  0  0  0  0  0  0  0  0  0  0
    0.2193    1.4653    1.2290 C   0  0  0  0  0  0  0  0  0  0  0  0
    0.3304    2.5795    0.7243 O   0  0  0  0  0  0  0  0  0  0  0  0
    0.1592    1.3499    2.6047 N   0  0  0  0  0  0  0  0  0  0  0  0
   -0.0764    0.4204    2.9538 H   0  0  0  0  0  0  0  0  0  0  0  0
    0.1151    2.4845    3.5133 C   0  0  0  0  0  0  0  0  0  0  0  0
   -0.7917    3.0738    3.3443 H   0  0  0  0  0  0  0  0  0  0  0  0
    0.1158    2.1338    4.5496 H   0  0  0  0  0  0  0  0  0  0  0  0
    0.9893    3.1269    3.3662 H   0  0  0  0  0  0  0  0  0  0  0  0
  1  2  1  0  0  0  0
  2  3  1  0  0  0  0
  2  4  1  0  0  0  0
  2  5  1  0  0  0  0
  5  6  2  0  0  0  0
  5  7  1  0  0  0  0
  7  8  1  0  0  0  0
  7  9  1  0  0  0  0
  9 10  1  0  0  0  0
  9 11  1  0  0  0  0
  9 17  1  0  0  0  0
 11 12  1  0  0  0  0
 11 13  1  0  0  0  0
 11 14  1  0  0  0  0
 14 15  1  0  0  0  0
 14 16  2  0  0  0  0
 17 18  2  0  0  0  0
 17 19  1  0  0  0  0
 19 20  1  0  0  0  0
 19 21  1  0  0  0  0
 21 22  1  0  0  0  0
 21 23  1  0  0  0  0
 21 24  1  0  0  0  0
M  CHG  1  15  -1
M  END
$$$$

  -OEChem-01062216073D

 24 23  0     1  0  0  0  0  0999 V2000
   -2.5700   -3.4442    0.8808 H   0  0  0  0  0  0  0  0  0  0  0  0
   -2.4710   -2.5274    0.2939 C   0  0  0  0  0  0  0  0  0  0  0  0
   -3.4504   -2.0515    0.2084 H   0  0  0  0  0  0  0  0  0  0  0  0
   -2.1099   -2.7879   -0.7053 H   0  0  0  0  0  0  0  0  0  0  0  0
   -1.4859   -1.5836    0.9580 C   0  0  0  0  0  0  0  0  0  0  0  0
   -1.0036   -1.8535    2.0518 O   0  0  0  0  0  0  0  0  0  0  0  0
   -1.2449   -0.3431    0.4109 N   0  0  0  0  0  0  0  0  0  0  0  0
   -1.7220   -0.2037   -0.4747 H   0  0  0  0  0  0  0  0  0  0  0  0
    0.1318    0.1600    0.4135 C   0  0  1  0  0  0  0  0  0  0  0  0
    0.8334   -0.5555    0.8583 H   0  0  0  0  0  0  0  0  0  0  0  0
    0.5006    0.3736   -1.0698 C   0  0  0  0  0  0  0  0  0  0  0  0
   -0.2453    1.0129   -1.5519 H   0  0  0  0  0  0  0  0  0  0  0  0
    1.4631    0.8885   -1.1242 H   0  0  0  0  0  0  0  0  0  0  0  0
    0.6349   -0.9278   -1.8554 C   0  0  0  0  0  0  0  0  0  0  0  0
    0.9930   -1.9685   -1.2529 O   0  5  0  0  0  0  0  0  0  0  0  0
    0.2551   -0.8951   -3.0500 O   0  0  0  0  0  0  0  0  0  0  0  0
    0.2153    1.4769    1.2135 C   0  0  0  0  0  0  0  0  0  0  0  0
    0.0541    2.5849    0.7083 O   0  0  0  0  0  0  0  0  0  0  0  0
    0.4788    1.3855    2.5672 N   0  0  0  0  0  0  0  0  0  0  0  0
    0.4236    0.4463    2.9586 H   0  0  0  0  0  0  0  0  0  0  0  0
    0.4682    2.5271    3.4685 C   0  0  0  0  0  0  0  0  0  0  0  0
   -0.5316    2.9707    3.5109 H   0  0  0  0  0  0  0  0  0  0  0  0
    0.7530    2.2109    4.4763 H   0  0  0  0  0  0  0  0  0  0  0  0
    1.1803    3.2876    3.1321 H   0  0  0  0  0  0  0  0  0  0  0  0
  1  2  1  0  0  0  0
  2  3  1  0  0  0  0
  2  4  1  0  0  0  0
  2  5  1  0  0  0  0
  5  6  2  0  0  0  0
  5  7  1  0  0  0  0
  7  8  1  0  0  0  0
  7  9  1  0  0  0  0
  9 10  1  0  0  0  0
  9 11  1  0  0  0  0
  9 17  1  0  0  0  0
 11 12  1  0  0  0  0
 11 13  1  0  0  0  0
 11 14  1  0  0  0  0
 14 15  1  0  0  0  0
 14 16  2  0  0  0  0
 17 18  2  0  0  0  0
 17 19  1  0  0  0  0
 19 20  1  0  0  0  0
 19 21  1  0  0  0  0
 21 22  1  0  0  0  0
 21 23  1  0  0  0  0
 21 24  1  0  0  0  0
M  CHG  1  15  -1
M  END
$$$$

  -OEChem-01062216073D

 24 23  0     1  0  0  0  0  0999 V2000
   -2.6034   -3.4436    0.9068 H   0  0  0  0  0  0  0  0  0  0  0  0
   -2.5055   -2.5265    0.3197 C   0  0  0  0  0  0  0  0  0  0  0  0
   -3.4786   -2.0333    0.2645 H   0  0  0  0  0  0  0  0  0  0  0  0
   -2.1783   -2.7899   -0.6902 H   0  0  0  0  0  0  0  0  0  0  0  0
   -1.4854   -1.6015    0.9577 C   0  0  0  0  0  0  0  0  0  0  0  0
   -0.9656   -1.8970    2.0270 O   0  0  0  0  0  0  0  0  0  0  0  0
   -1.2446   -0.3622    0.4064 N   0  0  0  0  0  0  0  0  0  0  0  0
   -1.7393   -0.2070   -0.4663 H   0  0  0  0  0  0  0  0  0  0  0  0
    0.1243    0.1620    0.4105 C   0  0  1  0  0  0  0  0  0  0  0  0
    0.8308   -0.5470    0.8576 H   0  0  0  0  0  0  0  0  0  0  0  0
    0.5024    0.3826   -1.0689 C   0  0  0  0  0  0  0  0  0  0  0  0
   -0.2487    1.0117   -1.5560 H   0  0  0  0  0  0  0  0  0  0  0  0
    1.4573    0.9123   -1.1135 H   0  0  0  0  0  0  0  0  0  0  0  0
    0.6642   -0.9138   -1.8579 C   0  0  0  0  0  0  0  0  0  0  0  0
    1.0335   -1.9507   -1.2558 O   0  5  0  0  0  0  0  0  0  0  0  0
    0.3135   -0.8787   -3.0614 O   0  0  0  0  0  0  0  0  0  0  0  0
    0.2041    1.4876    1.1971 C   0  0  0  0  0  0  0  0  0  0  0  0
   -0.2241    2.5492    0.7508 O   0  0  0  0  0  0  0  0  0  0  0  0
    0.7724    1.4694    2.4575 N   0  0  0  0  0  0  0  0  0  0  0  0
    0.9512    0.5456    2.8451 H   0  0  0  0  0  0  0  0  0  0  0  0
    0.7951    2.6221    3.3453 C   0  0  0  0  0  0  0  0  0  0  0  0
   -0.2242    2.9230    3.6075 H   0  0  0  0  0  0  0  0  0  0  0  0
    1.3332    2.3753    4.2652 H   0  0  0  0  0  0  0  0  0  0  0  0
    1.3023    3.4655    2.8656 H   0  0  0  0  0  0  0  0  0  0  0  0
  1  2  1  0  0  0  0
  2  3  1  0  0  0  0
  2  4  1  0  0  0  0
  2  5  1  0  0  0  0
  5  6  2  0  0  0  0
  5  7  1  0  0  0  0
  7  8  1  0  0  0  0
  7  9  1  0  0  0  0
  9 10  1  0  0  0  0
  9 11  1  0  0  0  0
  9 17  1  0  0  0  0
 11 12  1  0  0  0  0
 11 13  1  0  0  0  0
 11 14  1  0  0  0  0
 14 15  1  0  0  0  0
 14 16  2  0  0  0  0
 17 18  2  0  0  0  0
 17 19  1  0  0  0  0
 19 20  1  0  0  0  0
 19 21  1  0  0  0  0
 21 22  1  0  0  0  0
 21 23  1  0  0  0  0
 21 24  1  0  0  0  0
M  CHG  1  15  -1
M  END
$$$$

  -OEChem-01062216073D

 24 23  0     1  0  0  0  0  0999 V2000
   -2.6270   -3.4610    0.9193 H   0  0  0  0  0  0  0  0  0  0  0  0
   -2.5487   -2.5306    0.3505 C   0  0  0  0  0  0  0  0  0  0  0  0
   -3.5157   -2.0225    0.3646 H   0  0  0  0  0  0  0  0  0  0  0  0
   -2.2849   -2.7725   -0.6828 H   0  0  0  0  0  0  0  0  0  0  0  0
   -1.4800   -1.6367    0.9522 C   0  0  0  0  0  0  0  0  0  0  0  0
   -0.9236   -1.9608    1.9938 O   0  0  0  0  0  0  0  0  0  0  0  0
   -1.2389   -0.3976    0.4001 N   0  0  0  0  0  0  0  0  0  0  0  0
   -1.7548   -0.2204   -0.4555 H   0  0  0  0  0  0  0  0  0  0  0  0
    0.1181    0.1578    0.4116 C   0  0  1  0  0  0  0  0  0  0  0  0
    0.8325   -0.5389    0.8648 H   0  0  0  0  0  0  0  0  0  0  0  0
    0.5071    0.3960   -1.0618 C   0  0  0  0  0  0  0  0  0  0  0  0
   -0.2542    1.0104   -1.5517 H   0  0  0  0  0  0  0  0  0  0  0  0
    1.4497    0.9485   -1.0930 H   0  0  0  0  0  0  0  0  0  0  0  0
    0.7083   -0.8881   -1.8606 C   0  0  0  0  0  0  0  0  0  0  0  0
    1.0957   -1.9215   -1.2644 O   0  5  0  0  0  0  0  0  0  0  0  0
    0.3893   -0.8439   -3.0727 O   0  0  0  0  0  0  0  0  0  0  0  0
    0.1784    1.4917    1.1857 C   0  0  0  0  0  0  0  0  0  0  0  0
   -0.4809    2.4723    0.8488 O   0  0  0  0  0  0  0  0  0  0  0  0
    1.0039    1.5868    2.2913 N   0  0  0  0  0  0  0  0  0  0  0  0
    1.4219    0.7175    2.6125 H   0  0  0  0  0  0  0  0  0  0  0  0
    1.0722    2.7619    3.1463 C   0  0  0  0  0  0  0  0  0  0  0  0
    0.1024    2.9471    3.6187 H   0  0  0  0  0  0  0  0  0  0  0  0
    1.8192    2.6113    3.9311 H   0  0  0  0  0  0  0  0  0  0  0  0
    1.3578    3.6435    2.5635 H   0  0  0  0  0  0  0  0  0  0  0  0
  1  2  1  0  0  0  0
  2  3  1  0  0  0  0
  2  4  1  0  0  0  0
  2  5  1  0  0  0  0
  5  6  2  0  0  0  0
  5  7  1  0  0  0  0
  7  8  1  0  0  0  0
  7  9  1  0  0  0  0
  9 10  1  0  0  0  0
  9 11  1  0  0  0  0
  9 17  1  0  0  0  0
 11 12  1  0  0  0  0
 11 13  1  0  0  0  0
 11 14  1  0  0  0  0
 14 15  1  0  0  0  0
 14 16  2  0  0  0  0
 17 18  2  0  0  0  0
 17 19  1  0  0  0  0
 19 20  1  0  0  0  0
 19 21  1  0  0  0  0
 21 22  1  0  0  0  0
 21 23  1  0  0  0  0
 21 24  1  0  0  0  0
M  CHG  1  15  -1
M  END
$$$$

  -OEChem-01062216073D

 24 23  0     1  0  0  0  0  0999 V2000
   -2.6449   -3.4772    0.9329 H   0  0  0  0  0  0  0  0  0  0  0  0
   -2.5635   -2.5487    0.3613 C   0  0  0  0  0  0  0  0  0  0  0  0
   -3.5266   -2.0332    0.3809 H   0  0  0  0  0  0  0  0  0  0  0  0
   -2.3087   -2.7949   -0.6734 H   0  0  0  0  0  0  0  0  0  0  0  0
   -1.4838   -1.6613    0.9537 C   0  0  0  0  0  0  0  0  0  0  0  0
   -0.9085   -2.0008    1.9795 O   0  0  0  0  0  0  0  0  0  0  0  0
   -1.2469   -0.4210    0.4018 N   0  0  0  0  0  0  0  0  0  0  0  0
   -1.7764   -0.2322   -0.4425 H   0  0  0  0  0  0  0  0  0  0  0  0
    0.0996    0.1606    0.4217 C   0  0  1  0  0  0  0  0  0  0  0  0
    0.8198   -0.5260    0.8811 H   0  0  0  0  0  0  0  0  0  0  0  0
    0.4946    0.4106   -1.0477 C   0  0  0  0  0  0  0  0  0  0  0  0
   -0.2757    1.0123   -1.5399 H   0  0  0  0  0  0  0  0  0  0  0  0
    1.4267    0.9811   -1.0714 H   0  0  0  0  0  0  0  0  0  0  0  0
    0.7274   -0.8648   -1.8517 C   0  0  0  0  0  0  0  0  0  0  0  0
    1.1311   -1.8936   -1.2587 O   0  5  0  0  0  0  0  0  0  0  0  0
    0.4303   -0.8154   -3.0691 O   0  0  0  0  0  0  0  0  0  0  0  0
    0.1484    1.5008    1.1859 C   0  0  0  0  0  0  0  0  0  0  0  0
   -0.6844    2.3854    1.0018 O   0  0  0  0  0  0  0  0  0  0  0  0
    1.1776    1.7264    2.0822 N   0  0  0  0  0  0  0  0  0  0  0  0
    1.8006    0.9443    2.2627 H   0  0  0  0  0  0  0  0  0  0  0  0
    1.2967    2.9305    2.8901 C   0  0  0  0  0  0  0  0  0  0  0  0
    0.4324    3.0320    3.5542 H   0  0  0  0  0  0  0  0  0  0  0  0
    2.2019    2.8830    3.5026 H   0  0  0  0  0  0  0  0  0  0  0  0
    1.3591    3.8164    2.2500 H   0  0  0  0  0  0  0  0  0  0  0  0
  1  2  1  0  0  0  0
  2  3  1  0  0  0  0
  2  4  1  0  0  0  0
  2  5  1  0  0  0  0
  5  6  2  0  0  0  0
  5  7  1  0  0  0  0
  7  8  1  0  0  0  0
  7  9  1  0  0  0  0
  9 10  1  0  0  0  0
  9 11  1  0  0  0  0
  9 17  1  0  0  0  0
 11 12  1  0  0  0  0
 11 13  1  0  0  0  0
 11 14  1  0  0  0  0
 14 15  1  0  0  0  0
 14 16  2  0  0  0  0
 17 18  2  0  0  0  0
 17 19  1  0  0  0  0
 19 20  1  0  0  0  0
 19 21  1  0  0  0  0
 21 22  1  0  0  0  0
 21 23  1  0  0  0  0
 21 24  1  0  0  0  0
M  CHG  1  15  -1
M  END
$$$$

  -OEChem-01062216073D

 24 23  0     1  0  0  0  0  0999 V2000
   -2.6470   -3.5033    0.9282 H   0  0  0  0  0  0  0  0  0  0  0  0
   -2.5728   -2.5675    0.3677 C   0  0  0  0  0  0  0  0  0  0  0  0
   -3.5338   -2.0498    0.4103 H   0  0  0  0  0  0  0  0  0  0  0  0
   -2.3362   -2.8004   -0.6742 H   0  0  0  0  0  0  0  0  0  0  0  0
   -1.4816   -1.6900    0.9538 C   0  0  0  0  0  0  0  0  0  0  0  0
   -0.8889   -2.0464    1.9636 O   0  0  0  0  0  0  0  0  0  0  0  0
   -1.2502   -0.4464    0.4076 N   0  0  0  0  0  0  0  0  0  0  0  0
   -1.7922   -0.2449   -0.4253 H   0  0  0  0  0  0  0  0  0  0  0  0
    0.0860    0.1589    0.4389 C   0  0  1  0  0  0  0  0  0  0  0  0
    0.8139   -0.5186    0.8998 H   0  0  0  0  0  0  0  0  0  0  0  0
    0.4806    0.4265   -1.0275 C   0  0  0  0  0  0  0  0  0  0  0  0
   -0.2993    1.0186   -1.5158 H   0  0  0  0  0  0  0  0  0  0  0  0
    1.4024    1.0133   -1.0458 H   0  0  0  0  0  0  0  0  0  0  0  0
    0.7395   -0.8354   -1.8438 C   0  0  0  0  0  0  0  0  0  0  0  0
    1.1609   -1.8625   -1.2611 O   0  5  0  0  0  0  0  0  0  0  0  0
    0.4540   -0.7749   -3.0635 O   0  0  0  0  0  0  0  0  0  0  0  0
    0.1208    1.5016    1.2008 C   0  0  0  0  0  0  0  0  0  0  0  0
   -0.8323    2.2773    1.2026 O   0  0  0  0  0  0  0  0  0  0  0  0
    1.2840    1.8732    1.8511 N   0  0  0  0  0  0  0  0  0  0  0  0
    2.0465    1.2017    1.8420 H   0  0  0  0  0  0  0  0  0  0  0  0
    1.4395    3.1193    2.5862 C   0  0  0  0  0  0  0  0  0  0  0  0
    0.7191    3.1700    3.4090 H   0  0  0  0  0  0  0  0  0  0  0  0
    2.4485    3.1845    3.0038 H   0  0  0  0  0  0  0  0  0  0  0  0
    1.2830    3.9766    1.9235 H   0  0  0  0  0  0  0  0  0  0  0  0
  1  2  1  0  0  0  0
  2  3  1  0  0  0  0
  2  4  1  0  0  0  0
  2  5  1  0  0  0  0
  5  6  2  0  0  0  0
  5  7  1  0  0  0  0
  7  8  1  0  0  0  0
  7  9  1  0  0  0  0
  9 10  1  0  0  0  0
  9 11  1  0  0  0  0
  9 17  1  0  0  0  0
 11 12  1  0  0  0  0
 11 13  1  0  0  0  0
 11 14  1  0  0  0  0
 14 15  1  0  0  0  0
 14 16  2  0  0  0  0
 17 18  2  0  0  0  0
 17 19  1  0  0  0  0
 19 20  1  0  0  0  0
 19 21  1  0  0  0  0
 21 22  1  0  0  0  0
 21 23  1  0  0  0  0
 21 24  1  0  0  0  0
M  CHG  1  15  -1
M  END
$$$$

  -OEChem-01062216073D

 24 23  0     1  0  0  0  0  0999 V2000
   -2.6511   -3.5148    0.9424 H   0  0  0  0  0  0  0  0  0  0  0  0
   -2.5721   -2.5829    0.3761 C   0  0  0  0  0  0  0  0  0  0  0  0
   -3.5294   -2.0585    0.4191 H   0  0  0  0  0  0  0  0  0  0  0  0
   -2.3404   -2.8236   -0.6651 H   0  0  0  0  0  0  0  0  0  0  0  0
   -1.4730   -1.7097    0.9536 C   0  0  0  0  0  0  0  0  0  0  0  0
   -0.8651   -2.0783    1.9496 O   0  0  0  0  0  0  0  0  0  0  0  0
   -1.2497   -0.4621    0.4123 N   0  0  0  0  0  0  0  0  0  0  0  0
   -1.7998   -0.2553   -0.4135 H   0  0  0  0  0  0  0  0  0  0  0  0
    0.0794    0.1597    0.4521 C   0  0  1  0  0  0  0  0  0  0  0  0
    0.8157   -0.5106    0.9102 H   0  0  0  0  0  0  0  0  0  0  0  0
    0.4641    0.4401   -1.0162 C   0  0  0  0  0  0  0  0  0  0  0  0
   -0.3258    1.0251   -1.4970 H   0  0  0  0  0  0  0  0  0  0  0  0
    1.3784    1.0380   -1.0394 H   0  0  0  0  0  0  0  0  0  0  0  0
    0.7362   -0.8114   -1.8436 C   0  0  0  0  0  0  0  0  0  0  0  0
    1.1743   -1.8375   -1.2724 O   0  5  0  0  0  0  0  0  0  0  0  0
    0.4486   -0.7414   -3.0622 O   0  0  0  0  0  0  0  0  0  0  0  0
    0.1066    1.5035    1.2152 C   0  0  0  0  0  0  0  0  0  0  0  0
   -0.9094    2.1607    1.4286 O   0  0  0  0  0  0  0  0  0  0  0  0
    1.3283    2.0300    1.5964 N   0  0  0  0  0  0  0  0  0  0  0  0
    2.1514    1.4736    1.3839 H   0  0  0  0  0  0  0  0  0  0  0  0
    1.4872    3.3086    2.2726 C   0  0  0  0  0  0  0  0  0  0  0  0
    0.9390    3.3110    3.2201 H   0  0  0  0  0  0  0  0  0  0  0  0
    2.5447    3.4916    2.4841 H   0  0  0  0  0  0  0  0  0  0  0  0
    1.1133    4.1227    1.6435 H   0  0  0  0  0  0  0  0  0  0  0  0
  1  2  1  0  0  0  0
  2  3  1  0  0  0  0
  2  4  1  0  0  0  0
  2  5  1  0  0  0  0
  5  6  2  0  0  0  0
  5  7  1  0  0  0  0
  7  8  1  0  0  0  0
  7  9  1  0  0  0  0
  9 10  1  0  0  0  0
  9 11  1  0  0  0  0
  9 17  1  0  0  0  0
 11 12  1  0  0  0  0
 11 13  1  0  0  0  0
 11 14  1  0  0  0  0
 14 15  1  0  0  0  0
 14 16  2  0  0  0  0
 17 18  2  0  0  0  0
 17 19  1  0  0  0  0
 19 20  1  0  0  0  0
 19 21  1  0  0  0  0
 21 22  1  0  0  0  0
 21 23  1  0  0  0  0
 21 24  1  0  0  0  0
M  CHG  1  15  -1
M  END
$$$$

  -OEChem-01062216073D

 24 23  0     1  0  0  0  0  0999 V2000
   -2.7119   -3.4878    0.9199 H   0  0  0  0  0  0  0  0  0  0  0  0
   -2.6601   -2.5218    0.4107 C   0  0  0  0  0  0  0  0  0  0  0  0
   -3.5804   -1.9669    0.6082 H   0  0  0  0  0  0  0  0  0  0  0  0
   -2.5697   -2.6958   -0.6648 H   0  0  0  0  0  0  0  0  0  0  0  0
   -1.4612   -1.7316    0.9036 C   0  0  0  0  0  0  0  0  0  0  0  0
   -0.7557   -2.1945    1.7897 O   0  0  0  0  0  0  0  0  0  0  0  0
   -1.2222   -0.4805    0.3778 N   0  0  0  0  0  0  0  0  0  0  0  0
   -1.7995   -0.2295   -0.4167 H   0  0  0  0  0  0  0  0  0  0  0  0
    0.1048    0.1441    0.4356 C   0  0  1  0  0  0  0  0  0  0  0  0
    0.8794   -0.6013    0.6493 H   0  0  0  0  0  0  0  0  0  0  0  0
    0.3350    0.7513   -0.9663 C   0  0  0  0  0  0  0  0  0  0  0  0
   -0.5009    1.4091   -1.2227 H   0  0  0  0  0  0  0  0  0  0  0  0
    1.2424    1.3591   -0.9559 H   0  0  0  0  0  0  0  0  0  0  0  0
    0.5202   -0.2837   -2.0708 C   0  0  0  0  0  0  0  0  0  0  0  0
    1.0153   -1.3997   -1.7865 O   0  5  0  0  0  0  0  0  0  0  0  0
    0.1062    0.0443   -3.2080 O   0  0  0  0  0  0  0  0  0  0  0  0
    0.2173    1.2694    1.4937 C   0  0  0  0  0  0  0  0  0  0  0  0
   -0.7468    1.6684    2.1422 O   0  0  0  0  0  0  0  0  0  0  0  0
    1.4237    1.9324    1.6434 N   0  0  0  0  0  0  0  0  0  0  0  0
    2.1977    1.6038    1.0735 H   0  0  0  0  0  0  0  0  0  0  0  0
    1.6339    3.0440    2.5585 C   0  0  0  0  0  0  0  0  0  0  0  0
    1.4101    2.7405    3.5861 H   0  0  0  0  0  0  0  0  0  0  0  0
    2.6759    3.3741    2.5142 H   0  0  0  0  0  0  0  0  0  0  0  0
    0.9907    3.8877    2.2889 H   0  0  0  0  0  0  0  0  0  0  0  0
  1  2  1  0  0  0  0
  2  3  1  0  0  0  0
  2  4  1  0  0  0  0
  2  5  1  0  0  0  0
  5  6  2  0  0  0  0
  5  7  1  0  0  0  0
  7  8  1  0  0  0  0
  7  9  1  0  0  0  0
  9 10  1  0  0  0  0
  9 11  1  0  0  0  0
  9 17  1  0  0  0  0
 11 12  1  0  0  0  0
 11 13  1  0  0  0  0
 11 14  1  0  0  0  0
 14 15  1  0  0  0  0
 14 16  2  0  0  0  0
 17 18  2  0  0  0  0
 17 19  1  0  0  0  0
 19 20  1  0  0  0  0
 19 21  1  0  0  0  0
 21 22  1  0  0  0  0
 21 23  1  0  0  0  0
 21 24  1  0  0  0  0
M  CHG  1  15  -1
M  END
$$$$

  -OEChem-01062216073D

 24 23  0     1  0  0  0  0  0999 V2000
   -2.7185   -3.4773    0.9351 H   0  0  0  0  0  0  0  0  0  0  0  0
   -2.6569   -2.5161    0.4174 C   0  0  0  0  0  0  0  0  0  0  0  0
   -3.5696   -1.9486    0.6138 H   0  0  0  0  0  0  0  0  0  0  0  0
   -2.5725   -2.7000   -0.6570 H   0  0  0  0  0  0  0  0  0  0  0  0
   -1.4466   -1.7366    0.8996 C   0  0  0  0  0  0  0  0  0  0  0  0
   -0.7293   -2.2147    1.7676 O   0  0  0  0  0  0  0  0  0  0  0  0
   -1.2093   -0.4836    0.3764 N   0  0  0  0  0  0  0  0  0  0  0  0
   -1.7903   -0.2329   -0.4153 H   0  0  0  0  0  0  0  0  0  0  0  0
    0.1183    0.1410    0.4302 C   0  0  1  0  0  0  0  0  0  0  0  0
    0.8976   -0.6010    0.6386 H   0  0  0  0  0  0  0  0  0  0  0  0
    0.3278    0.7406   -0.9811 C   0  0  0  0  0  0  0  0  0  0  0  0
   -0.5124    1.3959   -1.2296 H   0  0  0  0  0  0  0  0  0  0  0  0
    1.2353    1.3470   -0.9938 H   0  0  0  0  0  0  0  0  0  0  0  0
    0.5016   -0.2982   -2.0839 C   0  0  0  0  0  0  0  0  0  0  0  0
    1.0040   -1.4117   -1.8051 O   0  5  0  0  0  0  0  0  0  0  0  0
    0.0700    0.0270   -3.2154 O   0  0  0  0  0  0  0  0  0  0  0  0
    0.2260    1.2646    1.4962 C   0  0  0  0  0  0  0  0  0  0  0  0
   -0.6583    1.4782    2.3214 O   0  0  0  0  0  0  0  0  0  0  0  0
    1.2944    2.1459    1.4613 N   0  0  0  0  0  0  0  0  0  0  0  0
    1.9960    1.9816    0.7455 H   0  0  0  0  0  0  0  0  0  0  0  0
    1.4507    3.2761    2.3648 C   0  0  0  0  0  0  0  0  0  0  0  0
    1.4798    2.9336    3.4042 H   0  0  0  0  0  0  0  0  0  0  0  0
    2.3842    3.8033    2.1477 H   0  0  0  0  0  0  0  0  0  0  0  0
    0.6198    3.9786    2.2451 H   0  0  0  0  0  0  0  0  0  0  0  0
  1  2  1  0  0  0  0
  2  3  1  0  0  0  0
  2  4  1  0  0  0  0
  2  5  1  0  0  0  0
  5  6  2  0  0  0  0
  5  7  1  0  0  0  0
  7  8  1  0  0  0  0
  7  9  1  0  0  0  0
  9 10  1  0  0  0  0
  9 11  1  0  0  0  0
  9 17  1  0  0  0  0
 11 12  1  0  0  0  0
 11 13  1  0  0  0  0
 11 14  1  0  0  0  0
 14 15  1  0  0  0  0
 14 16  2  0  0  0  0
 17 18  2  0  0  0  0
 17 19  1  0  0  0  0
 19 20  1  0  0  0  0
 19 21  1  0  0  0  0
 21 22  1  0  0  0  0
 21 23  1  0  0  0  0
 21 24  1  0  0  0  0
M  CHG  1  15  -1
M  END
$$$$

  -OEChem-01062216073D

 24 23  0     1  0  0  0  0  0999 V2000
   -2.6928   -3.4862    0.9210 H   0  0  0  0  0  0  0  0  0  0  0  0
   -2.6559   -2.5084    0.4330 C   0  0  0  0  0  0  0  0  0  0  0  0
   -3.5644   -1.9543    0.6800 H   0  0  0  0  0  0  0  0  0  0  0  0
   -2.6081   -2.6572   -0.6490 H   0  0  0  0  0  0  0  0  0  0  0  0
   -1.4348   -1.7359    0.8988 C   0  0  0  0  0  0  0  0  0  0  0  0
   -0.7069   -2.2236    1.7519 O   0  0  0  0  0  0  0  0  0  0  0  0
   -1.1998   -0.4831    0.3722 N   0  0  0  0  0  0  0  0  0  0  0  0
   -1.7841   -0.2377   -0.4189 H   0  0  0  0  0  0  0  0  0  0  0  0
    0.1292    0.1403    0.4157 C   0  0  1  0  0  0  0  0  0  0  0  0
    0.9115   -0.5983    0.6251 H   0  0  0  0  0  0  0  0  0  0  0  0
    0.3302    0.7259   -1.0038 C   0  0  0  0  0  0  0  0  0  0  0  0
   -0.5065    1.3855   -1.2524 H   0  0  0  0  0  0  0  0  0  0  0  0
    1.2442    1.3217   -1.0306 H   0  0  0  0  0  0  0  0  0  0  0  0
    0.4958   -0.3214   -2.0994 C   0  0  0  0  0  0  0  0  0  0  0  0
    0.9985   -1.4339   -1.8189 O   0  5  0  0  0  0  0  0  0  0  0  0
    0.0553   -0.0010   -3.2289 O   0  0  0  0  0  0  0  0  0  0  0  0
    0.2279    1.2644    1.4862 C   0  0  0  0  0  0  0  0  0  0  0  0
   -0.5118    1.3029    2.4652 O   0  0  0  0  0  0  0  0  0  0  0  0
    1.0860    2.3374    1.3036 N   0  0  0  0  0  0  0  0  0  0  0  0
    1.6633    2.3205    0.4685 H   0  0  0  0  0  0  0  0  0  0  0  0
    1.1885    3.4679    2.2145 C   0  0  0  0  0  0  0  0  0  0  0  0
    1.4631    3.1271    3.2178 H   0  0  0  0  0  0  0  0  0  0  0  0
    1.9564    4.1634    1.8636 H   0  0  0  0  0  0  0  0  0  0  0  0
    0.2352    4.0029    2.2694 H   0  0  0  0  0  0  0  0  0  0  0  0
  1  2  1  0  0  0  0
  2  3  1  0  0  0  0
  2  4  1  0  0  0  0
  2  5  1  0  0  0  0
  5  6  2  0  0  0  0
  5  7  1  0  0  0  0
  7  8  1  0  0  0  0
  7  9  1  0  0  0  0
  9 10  1  0  0  0  0
  9 11  1  0  0  0  0
  9 17  1  0  0  0  0
 11 12  1  0  0  0  0
 11 13  1  0  0  0  0
 11 14  1  0  0  0  0
 14 15  1  0  0  0  0
 14 16  2  0  0  0  0
 17 18  2  0  0  0  0
 17 19  1  0  0  0  0
 19 20  1  0  0  0  0
 19 21  1  0  0  0  0
 21 22  1  0  0  0  0
 21 23  1  0  0  0  0
 21 24  1  0  0  0  0
M  CHG  1  15  -1
M  END
$$$$

  -OEChem-01062216073D

 24 23  0     1  0  0  0  0  0999 V2000
   -2.7021   -3.4762    0.9490 H   0  0  0  0  0  0  0  0  0  0  0  0
   -2.6533   -2.5090    0.4412 C   0  0  0  0  0  0  0  0  0  0  0  0
   -3.5602   -1.9440    0.6685 H   0  0  0  0  0  0  0  0  0  0  0  0
   -2.5966   -2.6806   -0.6370 H   0  0  0  0  0  0  0  0  0  0  0  0
   -1.4311   -1.7354    0.9026 C   0  0  0  0  0  0  0  0  0  0  0  0
   -0.6994   -2.2266    1.7495 O   0  0  0  0  0  0  0  0  0  0  0  0
   -1.1990   -0.4832    0.3717 N   0  0  0  0  0  0  0  0  0  0  0  0
   -1.7827   -0.2483   -0.4229 H   0  0  0  0  0  0  0  0  0  0  0  0
    0.1296    0.1418    0.4045 C   0  0  1  0  0  0  0  0  0  0  0  0
    0.9135   -0.5936    0.6187 H   0  0  0  0  0  0  0  0  0  0  0  0
    0.3333    0.7159   -1.0193 C   0  0  0  0  0  0  0  0  0  0  0  0
   -0.5005    1.3765   -1.2754 H   0  0  0  0  0  0  0  0  0  0  0  0
    1.2524    1.3046   -1.0457 H   0  0  0  0  0  0  0  0  0  0  0  0
    0.4997   -0.3374   -2.1088 C   0  0  0  0  0  0  0  0  0  0  0  0
    1.0005   -1.4494   -1.8246 O   0  5  0  0  0  0  0  0  0  0  0  0
    0.0577   -0.0202   -3.2387 O   0  0  0  0  0  0  0  0  0  0  0  0
    0.2207    1.2669    1.4755 C   0  0  0  0  0  0  0  0  0  0  0  0
   -0.3034    1.1576    2.5792 O   0  0  0  0  0  0  0  0  0  0  0  0
    0.8138    2.4855    1.1827 N   0  0  0  0  0  0  0  0  0  0  0  0
    1.1976    2.5911    0.2486 H   0  0  0  0  0  0  0  0  0  0  0  0
    0.8816    3.6064    2.1089 C   0  0  0  0  0  0  0  0  0  0  0  0
    1.4031    3.3136    3.0259 H   0  0  0  0  0  0  0  0  0  0  0  0
    1.4263    4.4378    1.6520 H   0  0  0  0  0  0  0  0  0  0  0  0
   -0.1250    3.9504    2.3668 H   0  0  0  0  0  0  0  0  0  0  0  0
  1  2  1  0  0  0  0
  2  3  1  0  0  0  0
  2  4  1  0  0  0  0
  2  5  1  0  0  0  0
  5  6  2  0  0  0  0
  5  7  1  0  0  0  0
  7  8  1  0  0  0  0
  7  9  1  0  0  0  0
  9 10  1  0  0  0  0
  9 11  1  0  0  0  0
  9 17  1  0  0  0  0
 11 12  1  0  0  0  0
 11 13  1  0  0  0  0
 11 14  1  0  0  0  0
 14 15  1  0  0  0  0
 14 16  2  0  0  0  0
 17 18  2  0  0  0  0
 17 19  1  0  0  0  0
 19 20  1  0  0  0  0
 19 21  1  0  0  0  0
 21 22  1  0  0  0  0
 21 23  1  0  0  0  0
 21 24  1  0  0  0  0
M  CHG  1  15  -1
M  END
$$$$

  -OEChem-01062216073D

 24 23  0     1  0  0  0  0  0999 V2000
   -2.6926   -3.4900    0.9380 H   0  0  0  0  0  0  0  0  0  0  0  0
   -2.6386   -2.5272    0.4228 C   0  0  0  0  0  0  0  0  0  0  0  0
   -3.5593   -1.9712    0.6140 H   0  0  0  0  0  0  0  0  0  0  0  0
   -2.5447   -2.7082   -0.6514 H   0  0  0  0  0  0  0  0  0  0  0  0
   -1.4405   -1.7345    0.9144 C   0  0  0  0  0  0  0  0  0  0  0  0
   -0.7268   -2.2110    1.7840 O   0  0  0  0  0  0  0  0  0  0  0  0
   -1.2112   -0.4841    0.3779 N   0  0  0  0  0  0  0  0  0  0  0  0
   -1.7754   -0.2774   -0.4387 H   0  0  0  0  0  0  0  0  0  0  0  0
    0.1164    0.1431    0.4089 C   0  0  1  0  0  0  0  0  0  0  0  0
    0.9012   -0.5901    0.6288 H   0  0  0  0  0  0  0  0  0  0  0  0
    0.3240    0.7128   -1.0155 C   0  0  0  0  0  0  0  0  0  0  0  0
   -0.5106    1.3696   -1.2787 H   0  0  0  0  0  0  0  0  0  0  0  0
    1.2420    1.3052   -1.0336 H   0  0  0  0  0  0  0  0  0  0  0  0
    0.4943   -0.3436   -2.1015 C   0  0  0  0  0  0  0  0  0  0  0  0
    0.9946   -1.4549   -1.8146 O   0  5  0  0  0  0  0  0  0  0  0  0
    0.0407   -0.0335   -3.2289 O   0  0  0  0  0  0  0  0  0  0  0  0
    0.2007    1.2719    1.4756 C   0  0  0  0  0  0  0  0  0  0  0  0
   -0.0561    1.0692    2.6569 O   0  0  0  0  0  0  0  0  0  0  0  0
    0.4987    2.5767    1.1122 N   0  0  0  0  0  0  0  0  0  0  0  0
    0.6798    2.7427    0.1267 H   0  0  0  0  0  0  0  0  0  0  0  0
    0.5601    3.6930    2.0446 C   0  0  0  0  0  0  0  0  0  0  0  0
    1.3122    3.5046    2.8175 H   0  0  0  0  0  0  0  0  0  0  0  0
    0.8323    4.6099    1.5138 H   0  0  0  0  0  0  0  0  0  0  0  0
   -0.4120    3.8454    2.5245 H   0  0  0  0  0  0  0  0  0  0  0  0
  1  2  1  0  0  0  0
  2  3  1  0  0  0  0
  2  4  1  0  0  0  0
  2  5  1  0  0  0  0
  5  6  2  0  0  0  0
  5  7  1  0  0  0  0
  7  8  1  0  0  0  0
  7  9  1  0  0  0  0
  9 10  1  0  0  0  0
  9 11  1  0  0  0  0
  9 17  1  0  0  0  0
 11 12  1  0  0  0  0
 11 13  1  0  0  0  0
 11 14  1  0  0  0  0
 14 15  1  0  0  0  0
 14 16  2  0  0  0  0
 17 18  2  0  0  0  0
 17 19  1  0  0  0  0
 19 20  1  0  0  0  0
 19 21  1  0  0  0  0
 21 22  1  0  0  0  0
 21 23  1  0  0  0  0
 21 24  1  0  0  0  0
M  CHG  1  15  -1
M  END
$$$$

  -OEChem-01062216073D

 24 23  0     1  0  0  0  0  0999 V2000
   -2.6670   -3.5195    0.9036 H   0  0  0  0  0  0  0  0  0  0  0  0
   -2.6222   -2.5523    0.3955 C   0  0  0  0  0  0  0  0  0  0  0  0
   -3.5605   -2.0189    0.5654 H   0  0  0  0  0  0  0  0  0  0  0  0
   -2.4958   -2.7250   -0.6767 H   0  0  0  0  0  0  0  0  0  0  0  0
   -1.4561   -1.7356    0.9235 C   0  0  0  0  0  0  0  0  0  0  0  0
   -0.7732   -2.1879    1.8291 O   0  0  0  0  0  0  0  0  0  0  0  0
   -1.2263   -0.4865    0.3841 N   0  0  0  0  0  0  0  0  0  0  0  0
   -1.7674   -0.3032   -0.4539 H   0  0  0  0  0  0  0  0  0  0  0  0
    0.1022    0.1390    0.4203 C   0  0  1  0  0  0  0  0  0  0  0  0
    0.8856   -0.5954    0.6432 H   0  0  0  0  0  0  0  0  0  0  0  0
    0.3148    0.7126   -1.0009 C   0  0  0  0  0  0  0  0  0  0  0  0
   -0.5216    1.3652   -1.2685 H   0  0  0  0  0  0  0  0  0  0  0  0
    1.2293    1.3114   -1.0075 H   0  0  0  0  0  0  0  0  0  0  0  0
    0.4868   -0.3418   -2.0883 C   0  0  0  0  0  0  0  0  0  0  0  0
    0.9842   -1.4547   -1.8029 O   0  5  0  0  0  0  0  0  0  0  0  0
    0.0190   -0.0350   -3.2108 O   0  0  0  0  0  0  0  0  0  0  0  0
    0.1819    1.2684    1.4838 C   0  0  0  0  0  0  0  0  0  0  0  0
    0.2226    1.0282    2.6846 O   0  0  0  0  0  0  0  0  0  0  0  0
    0.1731    2.6016    1.1025 N   0  0  0  0  0  0  0  0  0  0  0  0
    0.1517    2.7866    0.1041 H   0  0  0  0  0  0  0  0  0  0  0  0
    0.2271    3.7193    2.0335 C   0  0  0  0  0  0  0  0  0  0  0  0
    1.1505    3.6844    2.6203 H   0  0  0  0  0  0  0  0  0  0  0  0
    0.2005    4.6652    1.4849 H   0  0  0  0  0  0  0  0  0  0  0  0
   -0.6285    3.6905    2.7158 H   0  0  0  0  0  0  0  0  0  0  0  0
  1  2  1  0  0  0  0
  2  3  1  0  0  0  0
  2  4  1  0  0  0  0
  2  5  1  0  0  0  0
  5  6  2  0  0  0  0
  5  7  1  0  0  0  0
  7  8  1  0  0  0  0
  7  9  1  0  0  0  0
  9 10  1  0  0  0  0
  9 11  1  0  0  0  0
  9 17  1  0  0  0  0
 11 12  1  0  0  0  0
 11 13  1  0  0  0  0
 11 14  1  0  0  0  0
 14 15  1  0  0  0  0
 14 16  2  0  0  0  0
 17 18  2  0  0  0  0
 17 19  1  0  0  0  0
 19 20  1  0  0  0  0
 19 21  1  0  0  0  0
 21 22  1  0  0  0  0
 21 23  1  0  0  0  0
 21 24  1  0  0  0  0
M  CHG  1  15  -1
M  END
$$$$

  -OEChem-01062216073D

 24 23  0     1  0  0  0  0  0999 V2000
   -2.6523   -3.5548    0.8806 H   0  0  0  0  0  0  0  0  0  0  0  0
   -2.5915   -2.6025    0.3467 C   0  0  0  0  0  0  0  0  0  0  0  0
   -3.5493   -2.0849    0.4354 H   0  0  0  0  0  0  0  0  0  0  0  0
   -2.3886   -2.8042   -0.7086 H   0  0  0  0  0  0  0  0  0  0  0  0
   -1.4802   -1.7457    0.9265 C   0  0  0  0  0  0  0  0  0  0  0  0
   -0.8458   -2.1569    1.8850 O   0  0  0  0  0  0  0  0  0  0  0  0
   -1.2575   -0.4950    0.3894 N   0  0  0  0  0  0  0  0  0  0  0  0
   -1.7633   -0.3429   -0.4771 H   0  0  0  0  0  0  0  0  0  0  0  0
    0.0697    0.1325    0.4418 C   0  0  1  0  0  0  0  0  0  0  0  0
    0.8526   -0.6020    0.6665 H   0  0  0  0  0  0  0  0  0  0  0  0
    0.2917    0.7209   -0.9704 C   0  0  0  0  0  0  0  0  0  0  0  0
   -0.5459    1.3701   -1.2419 H   0  0  0  0  0  0  0  0  0  0  0  0
    1.2006    1.3285   -0.9599 H   0  0  0  0  0  0  0  0  0  0  0  0
    0.4732   -0.3260   -2.0637 C   0  0  0  0  0  0  0  0  0  0  0  0
    0.9700   -1.4402   -1.7817 O   0  5  0  0  0  0  0  0  0  0  0  0
   -0.0063   -0.0204   -3.1816 O   0  0  0  0  0  0  0  0  0  0  0  0
    0.1398    1.2582    1.5063 C   0  0  0  0  0  0  0  0  0  0  0  0
    0.5027    1.0415    2.6563 O   0  0  0  0  0  0  0  0  0  0  0  0
   -0.1746    2.5651    1.1663 N   0  0  0  0  0  0  0  0  0  0  0  0
   -0.4033    2.7354    0.1919 H   0  0  0  0  0  0  0  0  0  0  0  0
   -0.0657    3.6931    2.0797 C   0  0  0  0  0  0  0  0  0  0  0  0
    0.9719    3.8239    2.4031 H   0  0  0  0  0  0  0  0  0  0  0  0
   -0.3934    4.6110    1.5828 H   0  0  0  0  0  0  0  0  0  0  0  0
   -0.6951    3.5340    2.9612 H   0  0  0  0  0  0  0  0  0  0  0  0
  1  2  1  0  0  0  0
  2  3  1  0  0  0  0
  2  4  1  0  0  0  0
  2  5  1  0  0  0  0
  5  6  2  0  0  0  0
  5  7  1  0  0  0  0
  7  8  1  0  0  0  0
  7  9  1  0  0  0  0
  9 10  1  0  0  0  0
  9 11  1  0  0  0  0
  9 17  1  0  0  0  0
 11 12  1  0  0  0  0
 11 13  1  0  0  0  0
 11 14  1  0  0  0  0
 14 15  1  0  0  0  0
 14 16  2  0  0  0  0
 17 18  2  0  0  0  0
 17 19  1  0  0  0  0
 19 20  1  0  0  0  0
 19 21  1  0  0  0  0
 21 22  1  0  0  0  0
 21 23  1  0  0  0  0
 21 24  1  0  0  0  0
M  CHG  1  15  -1
M  END
$$$$

  -OEChem-01062216073D

 24 23  0     1  0  0  0  0  0999 V2000
   -2.6112   -3.5913    0.8354 H   0  0  0  0  0  0  0  0  0  0  0  0
   -2.5625   -2.6346    0.3082 C   0  0  0  0  0  0  0  0  0  0  0  0
   -3.5396   -2.1492    0.3631 H   0  0  0  0  0  0  0  0  0  0  0  0
   -2.3135   -2.8236   -0.7397 H   0  0  0  0  0  0  0  0  0  0  0  0
   -1.5024   -1.7453    0.9327 C   0  0  0  0  0  0  0  0  0  0  0  0
   -0.9172   -2.1201    1.9365 O   0  0  0  0  0  0  0  0  0  0  0  0
   -1.2797   -0.4945    0.3972 N   0  0  0  0  0  0  0  0  0  0  0  0
   -1.7543   -0.3668   -0.4913 H   0  0  0  0  0  0  0  0  0  0  0  0
    0.0558    0.1151    0.4566 C   0  0  1  0  0  0  0  0  0  0  0  0
    0.8299   -0.6312    0.6746 H   0  0  0  0  0  0  0  0  0  0  0  0
    0.2861    0.7229   -0.9441 C   0  0  0  0  0  0  0  0  0  0  0  0
   -0.5399    1.3895   -1.2078 H   0  0  0  0  0  0  0  0  0  0  0  0
    1.2030    1.3178   -0.9218 H   0  0  0  0  0  0  0  0  0  0  0  0
    0.4524   -0.3140   -2.0495 C   0  0  0  0  0  0  0  0  0  0  0  0
    0.9324   -1.4386   -1.7793 O   0  5  0  0  0  0  0  0  0  0  0  0
   -0.0434    0.0020   -3.1573 O   0  0  0  0  0  0  0  0  0  0  0  0
    0.1347    1.2317    1.5264 C   0  0  0  0  0  0  0  0  0  0  0  0
    0.7815    1.0941    2.5583 O   0  0  0  0  0  0  0  0  0  0  0  0
   -0.4518    2.4642    1.2858 N   0  0  0  0  0  0  0  0  0  0  0  0
   -0.9165    2.5772    0.3906 H   0  0  0  0  0  0  0  0  0  0  0  0
   -0.3519    3.6023    2.1873 C   0  0  0  0  0  0  0  0  0  0  0  0
    0.6937    3.9024    2.3098 H   0  0  0  0  0  0  0  0  0  0  0  0
   -0.9116    4.4509    1.7833 H   0  0  0  0  0  0  0  0  0  0  0  0
   -0.7665    3.3498    3.1685 H   0  0  0  0  0  0  0  0  0  0  0  0
  1  2  1  0  0  0  0
  2  3  1  0  0  0  0
  2  4  1  0  0  0  0
  2  5  1  0  0  0  0
  5  6  2  0  0  0  0
  5  7  1  0  0  0  0
  7  8  1  0  0  0  0
  7  9  1  0  0  0  0
  9 10  1  0  0  0  0
  9 11  1  0  0  0  0
  9 17  1  0  0  0  0
 11 12  1  0  0  0  0
 11 13  1  0  0  0  0
 11 14  1  0  0  0  0
 14 15  1  0  0  0  0
 14 16  2  0  0  0  0
 17 18  2  0  0  0  0
 17 19  1  0  0  0  0
 19 20  1  0  0  0  0
 19 21  1  0  0  0  0
 21 22  1  0  0  0  0
 21 23  1  0  0  0  0
 21 24  1  0  0  0  0
M  CHG  1  15  -1
M  END
$$$$

  -OEChem-01062216073D

 24 23  0     1  0  0  0  0  0999 V2000
   -2.6054   -3.6053    0.8144 H   0  0  0  0  0  0  0  0  0  0  0  0
   -2.5382   -2.6580    0.2725 C   0  0  0  0  0  0  0  0  0  0  0  0
   -3.5204   -2.1802    0.2705 H   0  0  0  0  0  0  0  0  0  0  0  0
   -2.2370   -2.8641   -0.7585 H   0  0  0  0  0  0  0  0  0  0  0  0
   -1.5168   -1.7485    0.9310 C   0  0  0  0  0  0  0  0  0  0  0  0
   -0.9692   -2.1004    1.9641 O   0  0  0  0  0  0  0  0  0  0  0  0
   -1.2916   -0.4962    0.4011 N   0  0  0  0  0  0  0  0  0  0  0  0
   -1.7407   -0.3818   -0.5029 H   0  0  0  0  0  0  0  0  0  0  0  0
    0.0521    0.0950    0.4683 C   0  0  1  0  0  0  0  0  0  0  0  0
    0.8184   -0.6622    0.6752 H   0  0  0  0  0  0  0  0  0  0  0  0
    0.2841    0.7244   -0.9202 C   0  0  0  0  0  0  0  0  0  0  0  0
   -0.5320    1.4099   -1.1662 H   0  0  0  0  0  0  0  0  0  0  0  0
    1.2095    1.3057   -0.8914 H   0  0  0  0  0  0  0  0  0  0  0  0
    0.4313   -0.3005   -2.0397 C   0  0  0  0  0  0  0  0  0  0  0  0
    0.8974   -1.4348   -1.7838 O   0  5  0  0  0  0  0  0  0  0  0  0
   -0.0828    0.0269   -3.1357 O   0  0  0  0  0  0  0  0  0  0  0  0
    0.1445    1.2005    1.5451 C   0  0  0  0  0  0  0  0  0  0  0  0
    1.0114    1.1857    2.4120 O   0  0  0  0  0  0  0  0  0  0  0  0
   -0.6742    2.3144    1.4542 N   0  0  0  0  0  0  0  0  0  0  0  0
   -1.3459    2.3215    0.6939 H   0  0  0  0  0  0  0  0  0  0  0  0
   -0.5938    3.4575    2.3509 C   0  0  0  0  0  0  0  0  0  0  0  0
    0.3959    3.9213    2.2907 H   0  0  0  0  0  0  0  0  0  0  0  0
   -1.3439    4.2045    2.0753 H   0  0  0  0  0  0  0  0  0  0  0  0
   -0.7778    3.1459    3.3840 H   0  0  0  0  0  0  0  0  0  0  0  0
  1  2  1  0  0  0  0
  2  3  1  0  0  0  0
  2  4  1  0  0  0  0
  2  5  1  0  0  0  0
  5  6  2  0  0  0  0
  5  7  1  0  0  0  0
  7  8  1  0  0  0  0
  7  9  1  0  0  0  0
  9 10  1  0  0  0  0
  9 11  1  0  0  0  0
  9 17  1  0  0  0  0
 11 12  1  0  0  0  0
 11 13  1  0  0  0  0
 11 14  1  0  0  0  0
 14 15  1  0  0  0  0
 14 16  2  0  0  0  0
 17 18  2  0  0  0  0
 17 19  1  0  0  0  0
 19 20  1  0  0  0  0
 19 21  1  0  0  0  0
 21 22  1  0  0  0  0
 21 23  1  0  0  0  0
 21 24  1  0  0  0  0
M  CHG  1  15  -1
M  END
$$$$

  -OEChem-01062216073D

 24 23  0     1  0  0  0  0  0999 V2000
   -2.6025   -3.5945    0.8057 H   0  0  0  0  0  0  0  0  0  0  0  0
   -2.5227   -2.6540    0.2538 C   0  0  0  0  0  0  0  0  0  0  0  0
   -3.5062   -2.1801    0.2158 H   0  0  0  0  0  0  0  0  0  0  0  0
   -2.1899   -2.8720   -0.7649 H   0  0  0  0  0  0  0  0  0  0  0  0
   -1.5243   -1.7322    0.9295 C   0  0  0  0  0  0  0  0  0  0  0  0
   -1.0073   -2.0624    1.9857 O   0  0  0  0  0  0  0  0  0  0  0  0
   -1.2910   -0.4837    0.3958 N   0  0  0  0  0  0  0  0  0  0  0  0
   -1.7227   -0.3814   -0.5188 H   0  0  0  0  0  0  0  0  0  0  0  0
    0.0630    0.0852    0.4616 C   0  0  1  0  0  0  0  0  0  0  0  0
    0.8186   -0.6837    0.6651 H   0  0  0  0  0  0  0  0  0  0  0  0
    0.2963    0.7161   -0.9243 C   0  0  0  0  0  0  0  0  0  0  0  0
   -0.5094    1.4178   -1.1601 H   0  0  0  0  0  0  0  0  0  0  0  0
    1.2319    1.2813   -0.8992 H   0  0  0  0  0  0  0  0  0  0  0  0
    0.4198   -0.3115   -2.0448 C   0  0  0  0  0  0  0  0  0  0  0  0
    0.8692   -1.4532   -1.7896 O   0  5  0  0  0  0  0  0  0  0  0  0
   -0.1106    0.0161   -3.1330 O   0  0  0  0  0  0  0  0  0  0  0  0
    0.1760    1.1883    1.5370 C   0  0  0  0  0  0  0  0  0  0  0  0
    1.1870    1.3207    2.2184 O   0  0  0  0  0  0  0  0  0  0  0  0
   -0.8161    2.1493    1.6321 N   0  0  0  0  0  0  0  0  0  0  0  0
   -1.6480    1.9892    1.0741 H   0  0  0  0  0  0  0  0  0  0  0  0
   -0.7910    3.2502    2.5827 C   0  0  0  0  0  0  0  0  0  0  0  0
    0.0886    3.8797    2.4145 H   0  0  0  0  0  0  0  0  0  0  0  0
   -1.6859    3.8682    2.4653 H   0  0  0  0  0  0  0  0  0  0  0  0
   -0.7637    2.8685    3.6084 H   0  0  0  0  0  0  0  0  0  0  0  0
  1  2  1  0  0  0  0
  2  3  1  0  0  0  0
  2  4  1  0  0  0  0
  2  5  1  0  0  0  0
  5  6  2  0  0  0  0
  5  7  1  0  0  0  0
  7  8  1  0  0  0  0
  7  9  1  0  0  0  0
  9 10  1  0  0  0  0
  9 11  1  0  0  0  0
  9 17  1  0  0  0  0
 11 12  1  0  0  0  0
 11 13  1  0  0  0  0
 11 14  1  0  0  0  0
 14 15  1  0  0  0  0
 14 16  2  0  0  0  0
 17 18  2  0  0  0  0
 17 19  1  0  0  0  0
 19 20  1  0  0  0  0
 19 21  1  0  0  0  0
 21 22  1  0  0  0  0
 21 23  1  0  0  0  0
 21 24  1  0  0  0  0
M  CHG  1  15  -1
M  END
$$$$

  -OEChem-01062216073D

 24 23  0     1  0  0  0  0  0999 V2000
   -2.5888   -3.5913    0.7845 H   0  0  0  0  0  0  0  0  0  0  0  0
   -2.5084   -2.6525    0.2297 C   0  0  0  0  0  0  0  0  0  0  0  0
   -3.4960   -2.1898    0.1686 H   0  0  0  0  0  0  0  0  0  0  0  0
   -2.1518   -2.8712   -0.7810 H   0  0  0  0  0  0  0  0  0  0  0  0
   -1.5343   -1.7168    0.9214 C   0  0  0  0  0  0  0  0  0  0  0  0
   -1.0439   -2.0279    1.9962 O   0  0  0  0  0  0  0  0  0  0  0  0
   -1.2955   -0.4705    0.3857 N   0  0  0  0  0  0  0  0  0  0  0  0
   -1.7159   -0.3725   -0.5352 H   0  0  0  0  0  0  0  0  0  0  0  0
    0.0649    0.0848    0.4543 C   0  0  1  0  0  0  0  0  0  0  0  0
    0.8121   -0.6917    0.6597 H   0  0  0  0  0  0  0  0  0  0  0  0
    0.3018    0.7075   -0.9338 C   0  0  0  0  0  0  0  0  0  0  0  0
   -0.4983    1.4155   -1.1700 H   0  0  0  0  0  0  0  0  0  0  0  0
    1.2424    1.2646   -0.9145 H   0  0  0  0  0  0  0  0  0  0  0  0
    0.4138   -0.3299   -2.0470 C   0  0  0  0  0  0  0  0  0  0  0  0
    0.8530   -1.4737   -1.7816 O   0  5  0  0  0  0  0  0  0  0  0  0
   -0.1202   -0.0102   -3.1357 O   0  0  0  0  0  0  0  0  0  0  0  0
    0.1940    1.1876    1.5285 C   0  0  0  0  0  0  0  0  0  0  0  0
    1.2788    1.4765    2.0228 O   0  0  0  0  0  0  0  0  0  0  0  0
   -0.9061    1.9680    1.8391 N   0  0  0  0  0  0  0  0  0  0  0  0
   -1.7938    1.6344    1.4777 H   0  0  0  0  0  0  0  0  0  0  0  0
   -0.8946    3.0136    2.8504 C   0  0  0  0  0  0  0  0  0  0  0  0
   -0.1567    3.7819    2.5979 H   0  0  0  0  0  0  0  0  0  0  0  0
   -1.8786    3.4875    2.9112 H   0  0  0  0  0  0  0  0  0  0  0  0
   -0.6485    2.5935    3.8310 H   0  0  0  0  0  0  0  0  0  0  0  0
  1  2  1  0  0  0  0
  2  3  1  0  0  0  0
  2  4  1  0  0  0  0
  2  5  1  0  0  0  0
  5  6  2  0  0  0  0
  5  7  1  0  0  0  0
  7  8  1  0  0  0  0
  7  9  1  0  0  0  0
  9 10  1  0  0  0  0
  9 11  1  0  0  0  0
  9 17  1  0  0  0  0
 11 12  1  0  0  0  0
 11 13  1  0  0  0  0
 11 14  1  0  0  0  0
 14 15  1  0  0  0  0
 14 16  2  0  0  0  0
 17 18  2  0  0  0  0
 17 19  1  0  0  0  0
 19 20  1  0  0  0  0
 19 21  1  0  0  0  0
 21 22  1  0  0  0  0
 21 23  1  0  0  0  0
 21 24  1  0  0  0  0
M  CHG  1  15  -1
M  END
$$$$

  -OEChem-01062216073D

 24 23  0     1  0  0  0  0  0999 V2000
   -2.5767   -3.5861    0.7548 H   0  0  0  0  0  0  0  0  0  0  0  0
   -2.4988   -2.6450    0.2038 C   0  0  0  0  0  0  0  0  0  0  0  0
   -3.4902   -2.1920    0.1308 H   0  0  0  0  0  0  0  0  0  0  0  0
   -2.1274   -2.8573   -0.8031 H   0  0  0  0  0  0  0  0  0  0  0  0
   -1.5430   -1.7010    0.9096 C   0  0  0  0  0  0  0  0  0  0  0  0
   -1.0783   -1.9962    2.0005 O   0  0  0  0  0  0  0  0  0  0  0  0
   -1.3001   -0.4553    0.3760 N   0  0  0  0  0  0  0  0  0  0  0  0
   -1.7161   -0.3540   -0.5469 H   0  0  0  0  0  0  0  0  0  0  0  0
    0.0646    0.0916    0.4465 C   0  0  1  0  0  0  0  0  0  0  0  0
    0.8051   -0.6900    0.6562 H   0  0  0  0  0  0  0  0  0  0  0  0
    0.3053    0.7005   -0.9473 C   0  0  0  0  0  0  0  0  0  0  0  0
   -0.4898    1.4119   -1.1899 H   0  0  0  0  0  0  0  0  0  0  0  0
    1.2498    1.2508   -0.9351 H   0  0  0  0  0  0  0  0  0  0  0  0
    0.4113   -0.3514   -2.0477 C   0  0  0  0  0  0  0  0  0  0  0  0
    0.8439   -1.4945   -1.7666 O   0  5  0  0  0  0  0  0  0  0  0  0
   -0.1239   -0.0450   -3.1396 O   0  0  0  0  0  0  0  0  0  0  0  0
    0.2049    1.1925    1.5229 C   0  0  0  0  0  0  0  0  0  0  0  0
    1.3014    1.6422    1.8403 O   0  0  0  0  0  0  0  0  0  0  0  0
   -0.9309    1.7691    2.0634 N   0  0  0  0  0  0  0  0  0  0  0  0
   -1.7955    1.2724    1.8708 H   0  0  0  0  0  0  0  0  0  0  0  0
   -0.9018    2.7564    3.1315 C   0  0  0  0  0  0  0  0  0  0  0  0
   -0.3360    3.6404    2.8202 H   0  0  0  0  0  0  0  0  0  0  0  0
   -1.9199    3.0693    3.3808 H   0  0  0  0  0  0  0  0  0  0  0  0
   -0.4366    2.3348    4.0283 H   0  0  0  0  0  0  0  0  0  0  0  0
  1  2  1  0  0  0  0
  2  3  1  0  0  0  0
  2  4  1  0  0  0  0
  2  5  1  0  0  0  0
  5  6  2  0  0  0  0
  5  7  1  0  0  0  0
  7  8  1  0  0  0  0
  7  9  1  0  0  0  0
  9 10  1  0  0  0  0
  9 11  1  0  0  0  0
  9 17  1  0  0  0  0
 11 12  1  0  0  0  0
 11 13  1  0  0  0  0
 11 14  1  0  0  0  0
 14 15  1  0  0  0  0
 14 16  2  0  0  0  0
 17 18  2  0  0  0  0
 17 19  1  0  0  0  0
 19 20  1  0  0  0  0
 19 21  1  0  0  0  0
 21 22  1  0  0  0  0
 21 23  1  0  0  0  0
 21 24  1  0  0  0  0
M  CHG  1  15  -1
M  END
$$$$

  -OEChem-01062216073D

 24 23  0     1  0  0  0  0  0999 V2000
   -2.5759   -3.5692    0.7395 H   0  0  0  0  0  0  0  0  0  0  0  0
   -2.4859   -2.6345    0.1794 C   0  0  0  0  0  0  0  0  0  0  0  0
   -3.4761   -2.1852    0.0743 H   0  0  0  0  0  0  0  0  0  0  0  0
   -2.0867   -2.8579   -0.8143 H   0  0  0  0  0  0  0  0  0  0  0  0
   -1.5517   -1.6797    0.8991 C   0  0  0  0  0  0  0  0  0  0  0  0
   -1.1177   -1.9553    2.0081 O   0  0  0  0  0  0  0  0  0  0  0  0
   -1.3049   -0.4334    0.3704 N   0  0  0  0  0  0  0  0  0  0  0  0
   -1.7206   -0.3253   -0.5520 H   0  0  0  0  0  0  0  0  0  0  0  0
    0.0640    0.1034    0.4394 C   0  0  1  0  0  0  0  0  0  0  0  0
    0.7975   -0.6840    0.6505 H   0  0  0  0  0  0  0  0  0  0  0  0
    0.3056    0.6988   -0.9610 C   0  0  0  0  0  0  0  0  0  0  0  0
   -0.4859    1.4127   -1.2078 H   0  0  0  0  0  0  0  0  0  0  0  0
    1.2535    1.2434   -0.9589 H   0  0  0  0  0  0  0  0  0  0  0  0
    0.4022   -0.3655   -2.0506 C   0  0  0  0  0  0  0  0  0  0  0  0
    0.8285   -1.5082   -1.7573 O   0  5  0  0  0  0  0  0  0  0  0  0
   -0.1362   -0.0697   -3.1439 O   0  0  0  0  0  0  0  0  0  0  0  0
    0.2141    1.1987    1.5226 C   0  0  0  0  0  0  0  0  0  0  0  0
    1.2675    1.8077    1.6824 O   0  0  0  0  0  0  0  0  0  0  0  0
   -0.8813    1.5574    2.2877 N   0  0  0  0  0  0  0  0  0  0  0  0
   -1.6631    0.9098    2.2329 H   0  0  0  0  0  0  0  0  0  0  0  0
   -0.8132    2.4913    3.4010 C   0  0  0  0  0  0  0  0  0  0  0  0
   -0.4398    3.4635    3.0637 H   0  0  0  0  0  0  0  0  0  0  0  0
   -1.8089    2.6357    3.8303 H   0  0  0  0  0  0  0  0  0  0  0  0
   -0.1485    2.1068    4.1811 H   0  0  0  0  0  0  0  0  0  0  0  0
  1  2  1  0  0  0  0
  2  3  1  0  0  0  0
  2  4  1  0  0  0  0
  2  5  1  0  0  0  0
  5  6  2  0  0  0  0
  5  7  1  0  0  0  0
  7  8  1  0  0  0  0
  7  9  1  0  0  0  0
  9 10  1  0  0  0  0
  9 11  1  0  0  0  0
  9 17  1  0  0  0  0
 11 12  1  0  0  0  0
 11 13  1  0  0  0  0
 11 14  1  0  0  0  0
 14 15  1  0  0  0  0
 14 16  2  0  0  0  0
 17 18  2  0  0  0  0
 17 19  1  0  0  0  0
 19 20  1  0  0  0  0
 19 21  1  0  0  0  0
 21 22  1  0  0  0  0
 21 23  1  0  0  0  0
 21 24  1  0  0  0  0
M  CHG  1  15  -1
M  END
$$$$

  -OEChem-01062216073D

 24 23  0     1  0  0  0  0  0999 V2000
   -2.5860   -3.5358    0.7434 H   0  0  0  0  0  0  0  0  0  0  0  0
   -2.4871   -2.6058    0.1772 C   0  0  0  0  0  0  0  0  0  0  0  0
   -3.4738   -2.1505    0.0648 H   0  0  0  0  0  0  0  0  0  0  0  0
   -2.0855   -2.8388   -0.8133 H   0  0  0  0  0  0  0  0  0  0  0  0
   -1.5498   -1.6521    0.8941 C   0  0  0  0  0  0  0  0  0  0  0  0
   -1.1359   -1.9094    2.0158 O   0  0  0  0  0  0  0  0  0  0  0  0
   -1.3020   -0.4052    0.3700 N   0  0  0  0  0  0  0  0  0  0  0  0
   -1.7268   -0.2879   -0.5468 H   0  0  0  0  0  0  0  0  0  0  0  0
    0.0701    0.1242    0.4276 C   0  0  1  0  0  0  0  0  0  0  0  0
    0.7983   -0.6671    0.6414 H   0  0  0  0  0  0  0  0  0  0  0  0
    0.3133    0.7016   -0.9811 C   0  0  0  0  0  0  0  0  0  0  0  0
   -0.4739    1.4172   -1.2357 H   0  0  0  0  0  0  0  0  0  0  0  0
    1.2652    1.2388   -0.9895 H   0  0  0  0  0  0  0  0  0  0  0  0
    0.4008   -0.3792   -2.0555 C   0  0  0  0  0  0  0  0  0  0  0  0
    0.8203   -1.5201   -1.7444 O   0  5  0  0  0  0  0  0  0  0  0  0
   -0.1357   -0.0974   -3.1532 O   0  0  0  0  0  0  0  0  0  0  0  0
    0.2233    1.2115    1.5201 C   0  0  0  0  0  0  0  0  0  0  0  0
    1.1701    1.9925    1.5385 O   0  0  0  0  0  0  0  0  0  0  0  0
   -0.7592    1.3383    2.4856 N   0  0  0  0  0  0  0  0  0  0  0  0
   -1.3974    0.5455    2.5347 H   0  0  0  0  0  0  0  0  0  0  0  0
   -0.6467    2.2229    3.6349 C   0  0  0  0  0  0  0  0  0  0  0  0
   -0.4977    3.2576    3.3097 H   0  0  0  0  0  0  0  0  0  0  0  0
   -1.5620    2.1786    4.2324 H   0  0  0  0  0  0  0  0  0  0  0  0
    0.1968    1.9239    4.2654 H   0  0  0  0  0  0  0  0  0  0  0  0
  1  2  1  0  0  0  0
  2  3  1  0  0  0  0
  2  4  1  0  0  0  0
  2  5  1  0  0  0  0
  5  6  2  0  0  0  0
  5  7  1  0  0  0  0
  7  8  1  0  0  0  0
  7  9  1  0  0  0  0
  9 10  1  0  0  0  0
  9 11  1  0  0  0  0
  9 17  1  0  0  0  0
 11 12  1  0  0  0  0
 11 13  1  0  0  0  0
 11 14  1  0  0  0  0
 14 15  1  0  0  0  0
 14 16  2  0  0  0  0
 17 18  2  0  0  0  0
 17 19  1  0  0  0  0
 19 20  1  0  0  0  0
 19 21  1  0  0  0  0
 21 22  1  0  0  0  0
 21 23  1  0  0  0  0
 21 24  1  0  0  0  0
M  CHG  1  15  -1
M  END
$$$$

  -OEChem-01062216073D

 24 23  0     1  0  0  0  0  0999 V2000
   -2.5880   -3.5013    0.7553 H   0  0  0  0  0  0  0  0  0  0  0  0
   -2.4901   -2.5715    0.1885 C   0  0  0  0  0  0  0  0  0  0  0  0
   -3.4767   -2.1152    0.0788 H   0  0  0  0  0  0  0  0  0  0  0  0
   -2.0916   -2.8050   -0.8032 H   0  0  0  0  0  0  0  0  0  0  0  0
   -1.5499   -1.6182    0.9018 C   0  0  0  0  0  0  0  0  0  0  0  0
   -1.1312   -1.8722    2.0237 O   0  0  0  0  0  0  0  0  0  0  0  0
   -1.2990   -0.3726    0.3769 N   0  0  0  0  0  0  0  0  0  0  0  0
   -1.7344   -0.2476   -0.5336 H   0  0  0  0  0  0  0  0  0  0  0  0
    0.0780    0.1426    0.4206 C   0  0  1  0  0  0  0  0  0  0  0  0
    0.7997   -0.6542    0.6363 H   0  0  0  0  0  0  0  0  0  0  0  0
    0.3248    0.7029   -0.9949 C   0  0  0  0  0  0  0  0  0  0  0  0
   -0.4546    1.4250   -1.2553 H   0  0  0  0  0  0  0  0  0  0  0  0
    1.2832    1.2284   -1.0119 H   0  0  0  0  0  0  0  0  0  0  0  0
    0.3969   -0.3917   -2.0565 C   0  0  0  0  0  0  0  0  0  0  0  0
    0.8040   -1.5334   -1.7309 O   0  5  0  0  0  0  0  0  0  0  0  0
   -0.1308   -0.1166   -3.1601 O   0  0  0  0  0  0  0  0  0  0  0  0
    0.2356    1.2230    1.5187 C   0  0  0  0  0  0  0  0  0  0  0  0
    1.0300    2.1547    1.4288 O   0  0  0  0  0  0  0  0  0  0  0  0
   -0.5641    1.1372    2.6437 N   0  0  0  0  0  0  0  0  0  0  0  0
   -1.0608    0.2495    2.7376 H   0  0  0  0  0  0  0  0  0  0  0  0
   -0.4082    1.9878    3.8130 C   0  0  0  0  0  0  0  0  0  0  0  0
   -0.5081    3.0422    3.5363 H   0  0  0  0  0  0  0  0  0  0  0  0
   -1.1788    1.7512    4.5526 H   0  0  0  0  0  0  0  0  0  0  0  0
    0.5744    1.8319    4.2695 H   0  0  0  0  0  0  0  0  0  0  0  0
  1  2  1  0  0  0  0
  2  3  1  0  0  0  0
  2  4  1  0  0  0  0
  2  5  1  0  0  0  0
  5  6  2  0  0  0  0
  5  7  1  0  0  0  0
  7  8  1  0  0  0  0
  7  9  1  0  0  0  0
  9 10  1  0  0  0  0
  9 11  1  0  0  0  0
  9 17  1  0  0  0  0
 11 12  1  0  0  0  0
 11 13  1  0  0  0  0
 11 14  1  0  0  0  0
 14 15  1  0  0  0  0
 14 16  2  0  0  0  0
 17 18  2  0  0  0  0
 17 19  1  0  0  0  0
 19 20  1  0  0  0  0
 19 21  1  0  0  0  0
 21 22  1  0  0  0  0
 21 23  1  0  0  0  0
 21 24  1  0  0  0  0
M  CHG  1  15  -1
M  END
$$$$

  -OEChem-01062216073D

 24 23  0     1  0  0  0  0  0999 V2000
   -2.6000   -3.4705    0.7829 H   0  0  0  0  0  0  0  0  0  0  0  0
   -2.5234   -2.5294    0.2317 C   0  0  0  0  0  0  0  0  0  0  0  0
   -3.5084   -2.0583    0.1926 H   0  0  0  0  0  0  0  0  0  0  0  0
   -2.1887   -2.7456   -0.7871 H   0  0  0  0  0  0  0  0  0  0  0  0
   -1.5282   -1.6050    0.9082 C   0  0  0  0  0  0  0  0  0  0  0  0
   -1.0570   -1.8882    2.0030 O   0  0  0  0  0  0  0  0  0  0  0  0
   -1.2742   -0.3587    0.3839 N   0  0  0  0  0  0  0  0  0  0  0  0
   -1.7305   -0.2164   -0.5135 H   0  0  0  0  0  0  0  0  0  0  0  0
    0.1045    0.1502    0.4128 C   0  0  1  0  0  0  0  0  0  0  0  0
    0.8254   -0.6479    0.6252 H   0  0  0  0  0  0  0  0  0  0  0  0
    0.3505    0.7047   -1.0054 C   0  0  0  0  0  0  0  0  0  0  0  0
   -0.4260    1.4301   -1.2661 H   0  0  0  0  0  0  0  0  0  0  0  0
    1.3114    1.2255   -1.0254 H   0  0  0  0  0  0  0  0  0  0  0  0
    0.4132   -0.3927   -2.0646 C   0  0  0  0  0  0  0  0  0  0  0  0
    0.8148   -1.5357   -1.7364 O   0  5  0  0  0  0  0  0  0  0  0  0
   -0.1066   -0.1160   -3.1716 O   0  0  0  0  0  0  0  0  0  0  0  0
    0.2641    1.2249    1.5149 C   0  0  0  0  0  0  0  0  0  0  0  0
    0.8545    2.2881    1.3456 O   0  0  0  0  0  0  0  0  0  0  0  0
   -0.2875    0.9588    2.7541 N   0  0  0  0  0  0  0  0  0  0  0  0
   -0.6790    0.0196    2.8615 H   0  0  0  0  0  0  0  0  0  0  0  0
   -0.1343    1.8129    3.9205 C   0  0  0  0  0  0  0  0  0  0  0  0
   -0.5410    2.8094    3.7210 H   0  0  0  0  0  0  0  0  0  0  0  0
   -0.6719    1.3841    4.7713 H   0  0  0  0  0  0  0  0  0  0  0  0
    0.9228    1.9077    4.1881 H   0  0  0  0  0  0  0  0  0  0  0  0
  1  2  1  0  0  0  0
  2  3  1  0  0  0  0
  2  4  1  0  0  0  0
  2  5  1  0  0  0  0
  5  6  2  0  0  0  0
  5  7  1  0  0  0  0
  7  8  1  0  0  0  0
  7  9  1  0  0  0  0
  9 10  1  0  0  0  0
  9 11  1  0  0  0  0
  9 17  1  0  0  0  0
 11 12  1  0  0  0  0
 11 13  1  0  0  0  0
 11 14  1  0  0  0  0
 14 15  1  0  0  0  0
 14 16  2  0  0  0  0
 17 18  2  0  0  0  0
 17 19  1  0  0  0  0
 19 20  1  0  0  0  0
 19 21  1  0  0  0  0
 21 22  1  0  0  0  0
 21 23  1  0  0  0  0
 21 24  1  0  0  0  0
M  CHG  1  15  -1
M  END
$$$$

  -OEChem-01062216073D

 24 23  0     1  0  0  0  0  0999 V2000
   -2.5954   -3.4349    0.8148 H   0  0  0  0  0  0  0  0  0  0  0  0
   -2.5423   -2.4776    0.2896 C   0  0  0  0  0  0  0  0  0  0  0  0
   -3.5221   -1.9958    0.3259 H   0  0  0  0  0  0  0  0  0  0  0  0
   -2.2733   -2.6648   -0.7539 H   0  0  0  0  0  0  0  0  0  0  0  0
   -1.4973   -1.5842    0.9312 C   0  0  0  0  0  0  0  0  0  0  0  0
   -0.9758   -1.8983    1.9950 O   0  0  0  0  0  0  0  0  0  0  0  0
   -1.2364   -0.3400    0.4043 N   0  0  0  0  0  0  0  0  0  0  0  0
   -1.7204   -0.1770   -0.4746 H   0  0  0  0  0  0  0  0  0  0  0  0
    0.1495    0.1441    0.4018 C   0  0  1  0  0  0  0  0  0  0  0  0
    0.8633   -0.6654    0.5949 H   0  0  0  0  0  0  0  0  0  0  0  0
    0.3809    0.7010   -1.0177 C   0  0  0  0  0  0  0  0  0  0  0  0
   -0.3871    1.4413   -1.2610 H   0  0  0  0  0  0  0  0  0  0  0  0
    1.3506    1.2049   -1.0489 H   0  0  0  0  0  0  0  0  0  0  0  0
    0.4041   -0.3904   -2.0849 C   0  0  0  0  0  0  0  0  0  0  0  0
    0.7897   -1.5427   -1.7703 O   0  5  0  0  0  0  0  0  0  0  0  0
   -0.1187   -0.0947   -3.1856 O   0  0  0  0  0  0  0  0  0  0  0  0
    0.3386    1.2091    1.5060 C   0  0  0  0  0  0  0  0  0  0  0  0
    0.6852    2.3669    1.2877 O   0  0  0  0  0  0  0  0  0  0  0  0
    0.0933    0.8165    2.8078 N   0  0  0  0  0  0  0  0  0  0  0  0
   -0.2595   -0.1380    2.9177 H   0  0  0  0  0  0  0  0  0  0  0  0
    0.1464    1.7031    3.9586 C   0  0  0  0  0  0  0  0  0  0  0  0
   -0.5914    2.5051    3.8567 H   0  0  0  0  0  0  0  0  0  0  0  0
   -0.0723    1.1428    4.8723 H   0  0  0  0  0  0  0  0  0  0  0  0
    1.1427    2.1462    4.0544 H   0  0  0  0  0  0  0  0  0  0  0  0
  1  2  1  0  0  0  0
  2  3  1  0  0  0  0
  2  4  1  0  0  0  0
  2  5  1  0  0  0  0
  5  6  2  0  0  0  0
  5  7  1  0  0  0  0
  7  8  1  0  0  0  0
  7  9  1  0  0  0  0
  9 10  1  0  0  0  0
  9 11  1  0  0  0  0
  9 17  1  0  0  0  0
 11 12  1  0  0  0  0
 11 13  1  0  0  0  0
 11 14  1  0  0  0  0
 14 15  1  0  0  0  0
 14 16  2  0  0  0  0
 17 18  2  0  0  0  0
 17 19  1  0  0  0  0
 19 20  1  0  0  0  0
 19 21  1  0  0  0  0
 21 22  1  0  0  0  0
 21 23  1  0  0  0  0
 21 24  1  0  0  0  0
M  CHG  1  15  -1
M  END
$$$$

  -OEChem-01062216073D

 24 23  0     1  0  0  0  0  0999 V2000
   -2.6308   -3.3836    0.9060 H   0  0  0  0  0  0  0  0  0  0  0  0
   -2.5496   -2.4492    0.3442 C   0  0  0  0  0  0  0  0  0  0  0  0
   -3.5124   -1.9332    0.3697 H   0  0  0  0  0  0  0  0  0  0  0  0
   -2.2964   -2.6841   -0.6938 H   0  0  0  0  0  0  0  0  0  0  0  0
   -1.4701   -1.5679    0.9441 C   0  0  0  0  0  0  0  0  0  0  0  0
   -0.9004   -1.8964    1.9793 O   0  0  0  0  0  0  0  0  0  0  0  0
   -1.2160   -0.3272    0.4050 N   0  0  0  0  0  0  0  0  0  0  0  0
   -1.7173   -0.1585   -0.4630 H   0  0  0  0  0  0  0  0  0  0  0  0
    0.1687    0.1546    0.3888 C   0  0  1  0  0  0  0  0  0  0  0  0
    0.8862   -0.6526    0.5779 H   0  0  0  0  0  0  0  0  0  0  0  0
    0.3931    0.7067   -1.0334 C   0  0  0  0  0  0  0  0  0  0  0  0
   -0.3769    1.4453   -1.2756 H   0  0  0  0  0  0  0  0  0  0  0  0
    1.3615    1.2121   -1.0692 H   0  0  0  0  0  0  0  0  0  0  0  0
    0.4089   -0.3873   -2.0983 C   0  0  0  0  0  0  0  0  0  0  0  0
    0.7947   -1.5393   -1.7824 O   0  5  0  0  0  0  0  0  0  0  0  0
   -0.1100   -0.0919   -3.2008 O   0  0  0  0  0  0  0  0  0  0  0  0
    0.3598    1.2255    1.4841 C   0  0  0  0  0  0  0  0  0  0  0  0
    0.4575    2.4283    1.2550 O   0  0  0  0  0  0  0  0  0  0  0  0
    0.4335    0.7759    2.7885 N   0  0  0  0  0  0  0  0  0  0  0  0
    0.1695   -0.2040    2.9171 H   0  0  0  0  0  0  0  0  0  0  0  0
    0.4712    1.6564    3.9450 C   0  0  0  0  0  0  0  0  0  0  0  0
   -0.4434    2.2554    3.9982 H   0  0  0  0  0  0  0  0  0  0  0  0
    0.5556    1.0658    4.8620 H   0  0  0  0  0  0  0  0  0  0  0  0
    1.3334    2.3284    3.8866 H   0  0  0  0  0  0  0  0  0  0  0  0
  1  2  1  0  0  0  0
  2  3  1  0  0  0  0
  2  4  1  0  0  0  0
  2  5  1  0  0  0  0
  5  6  2  0  0  0  0
  5  7  1  0  0  0  0
  7  8  1  0  0  0  0
  7  9  1  0  0  0  0
  9 10  1  0  0  0  0
  9 11  1  0  0  0  0
  9 17  1  0  0  0  0
 11 12  1  0  0  0  0
 11 13  1  0  0  0  0
 11 14  1  0  0  0  0
 14 15  1  0  0  0  0
 14 16  2  0  0  0  0
 17 18  2  0  0  0  0
 17 19  1  0  0  0  0
 19 20  1  0  0  0  0
 19 21  1  0  0  0  0
 21 22  1  0  0  0  0
 21 23  1  0  0  0  0
 21 24  1  0  0  0  0
M  CHG  1  15  -1
M  END
$$$$

  -OEChem-01062216073D

 24 23  0     1  0  0  0  0  0999 V2000
   -2.6468   -3.3787    0.9356 H   0  0  0  0  0  0  0  0  0  0  0  0
   -2.5665   -2.4479    0.3677 C   0  0  0  0  0  0  0  0  0  0  0  0
   -3.5231   -1.9219    0.4094 H   0  0  0  0  0  0  0  0  0  0  0  0
   -2.3357   -2.6898   -0.6738 H   0  0  0  0  0  0  0  0  0  0  0  0
   -1.4663   -1.5753    0.9428 C   0  0  0  0  0  0  0  0  0  0  0  0
   -0.8622   -1.9214    1.9522 O   0  0  0  0  0  0  0  0  0  0  0  0
   -1.2179   -0.3361    0.3965 N   0  0  0  0  0  0  0  0  0  0  0  0
   -1.7298   -0.1607   -0.4634 H   0  0  0  0  0  0  0  0  0  0  0  0
    0.1599    0.1620    0.3850 C   0  0  1  0  0  0  0  0  0  0  0  0
    0.8848   -0.6377    0.5777 H   0  0  0  0  0  0  0  0  0  0  0  0
    0.3921    0.7137   -1.0360 C   0  0  0  0  0  0  0  0  0  0  0  0
   -0.3849    1.4420   -1.2869 H   0  0  0  0  0  0  0  0  0  0  0  0
    1.3539    1.2321   -1.0620 H   0  0  0  0  0  0  0  0  0  0  0  0
    0.4311   -0.3790   -2.1014 C   0  0  0  0  0  0  0  0  0  0  0  0
    0.8269   -1.5265   -1.7818 O   0  5  0  0  0  0  0  0  0  0  0  0
   -0.0626   -0.0845   -3.2158 O   0  0  0  0  0  0  0  0  0  0  0  0
    0.3426    1.2452    1.4688 C   0  0  0  0  0  0  0  0  0  0  0  0
    0.1809    2.4449    1.2592 O   0  0  0  0  0  0  0  0  0  0  0  0
    0.7347    0.8240    2.7251 N   0  0  0  0  0  0  0  0  0  0  0  0
    0.6378   -0.1794    2.8854 H   0  0  0  0  0  0  0  0  0  0  0  0
    0.8241    1.7113    3.8740 C   0  0  0  0  0  0  0  0  0  0  0  0
   -0.1615    2.1202    4.1181 H   0  0  0  0  0  0  0  0  0  0  0  0
    1.1996    1.1623    4.7424 H   0  0  0  0  0  0  0  0  0  0  0  0
    1.5105    2.5385    3.6667 H   0  0  0  0  0  0  0  0  0  0  0  0
  1  2  1  0  0  0  0
  2  3  1  0  0  0  0
  2  4  1  0  0  0  0
  2  5  1  0  0  0  0
  5  6  2  0  0  0  0
  5  7  1  0  0  0  0
  7  8  1  0  0  0  0
  7  9  1  0  0  0  0
  9 10  1  0  0  0  0
  9 11  1  0  0  0  0
  9 17  1  0  0  0  0
 11 12  1  0  0  0  0
 11 13  1  0  0  0  0
 11 14  1  0  0  0  0
 14 15  1  0  0  0  0
 14 16  2  0  0  0  0
 17 18  2  0  0  0  0
 17 19  1  0  0  0  0
 19 20  1  0  0  0  0
 19 21  1  0  0  0  0
 21 22  1  0  0  0  0
 21 23  1  0  0  0  0
 21 24  1  0  0  0  0
M  CHG  1  15  -1
M  END
$$$$

  -OEChem-01062216073D

 24 23  0     1  0  0  0  0  0999 V2000
   -2.6550   -3.3941    0.9352 H   0  0  0  0  0  0  0  0  0  0  0  0
   -2.6007   -2.4448    0.3958 C   0  0  0  0  0  0  0  0  0  0  0  0
   -3.5483   -1.9140    0.5140 H   0  0  0  0  0  0  0  0  0  0  0  0
   -2.4364   -2.6525   -0.6652 H   0  0  0  0  0  0  0  0  0  0  0  0
   -1.4596   -1.6008    0.9333 C   0  0  0  0  0  0  0  0  0  0  0  0
   -0.8193   -1.9784    1.9076 O   0  0  0  0  0  0  0  0  0  0  0  0
   -1.2102   -0.3626    0.3850 N   0  0  0  0  0  0  0  0  0  0  0  0
   -1.7402   -0.1678   -0.4592 H   0  0  0  0  0  0  0  0  0  0  0  0
    0.1576    0.1617    0.3804 C   0  0  1  0  0  0  0  0  0  0  0  0
    0.8920   -0.6280    0.5771 H   0  0  0  0  0  0  0  0  0  0  0  0
    0.3938    0.7190   -1.0373 C   0  0  0  0  0  0  0  0  0  0  0  0
   -0.3943    1.4331   -1.2945 H   0  0  0  0  0  0  0  0  0  0  0  0
    1.3457    1.2556   -1.0526 H   0  0  0  0  0  0  0  0  0  0  0  0
    0.4634   -0.3687   -2.1061 C   0  0  0  0  0  0  0  0  0  0  0  0
    0.8770   -1.5100   -1.7870 O   0  5  0  0  0  0  0  0  0  0  0  0
   -0.0108   -0.0745   -3.2291 O   0  0  0  0  0  0  0  0  0  0  0  0
    0.3295    1.2589    1.4525 C   0  0  0  0  0  0  0  0  0  0  0  0
   -0.1025    2.4001    1.3088 O   0  0  0  0  0  0  0  0  0  0  0  0
    1.0185    0.9400    2.6079 N   0  0  0  0  0  0  0  0  0  0  0  0
    1.1615   -0.0565    2.7606 H   0  0  0  0  0  0  0  0  0  0  0  0
    1.1293    1.8423    3.7437 C   0  0  0  0  0  0  0  0  0  0  0  0
    0.1392    2.0592    4.1574 H   0  0  0  0  0  0  0  0  0  0  0  0
    1.7419    1.3856    4.5266 H   0  0  0  0  0  0  0  0  0  0  0  0
    1.6016    2.7826    3.4417 H   0  0  0  0  0  0  0  0  0  0  0  0
  1  2  1  0  0  0  0
  2  3  1  0  0  0  0
  2  4  1  0  0  0  0
  2  5  1  0  0  0  0
  5  6  2  0  0  0  0
  5  7  1  0  0  0  0
  7  8  1  0  0  0  0
  7  9  1  0  0  0  0
  9 10  1  0  0  0  0
  9 11  1  0  0  0  0
  9 17  1  0  0  0  0
 11 12  1  0  0  0  0
 11 13  1  0  0  0  0
 11 14  1  0  0  0  0
 14 15  1  0  0  0  0
 14 16  2  0  0  0  0
 17 18  2  0  0  0  0
 17 19  1  0  0  0  0
 19 20  1  0  0  0  0
 19 21  1  0  0  0  0
 21 22  1  0  0  0  0
 21 23  1  0  0  0  0
 21 24  1  0  0  0  0
M  CHG  1  15  -1
M  END
$$$$

  -OEChem-01062216073D

 24 23  0     1  0  0  0  0  0999 V2000
   -2.7001   -3.4057    0.9560 H   0  0  0  0  0  0  0  0  0  0  0  0
   -2.6335   -2.4605    0.4105 C   0  0  0  0  0  0  0  0  0  0  0  0
   -3.5664   -1.9075    0.5432 H   0  0  0  0  0  0  0  0  0  0  0  0
   -2.4931   -2.6772   -0.6520 H   0  0  0  0  0  0  0  0  0  0  0  0
   -1.4643   -1.6395    0.9231 C   0  0  0  0  0  0  0  0  0  0  0  0
   -0.8011   -2.0435    1.8701 O   0  0  0  0  0  0  0  0  0  0  0  0
   -1.2149   -0.3999    0.3774 N   0  0  0  0  0  0  0  0  0  0  0  0
   -1.7648   -0.1825   -0.4478 H   0  0  0  0  0  0  0  0  0  0  0  0
    0.1405    0.1578    0.3846 C   0  0  1  0  0  0  0  0  0  0  0  0
    0.8846   -0.6207    0.5880 H   0  0  0  0  0  0  0  0  0  0  0  0
    0.3869    0.7288   -1.0253 C   0  0  0  0  0  0  0  0  0  0  0  0
   -0.4136    1.4266   -1.2886 H   0  0  0  0  0  0  0  0  0  0  0  0
    1.3265    1.2870   -1.0220 H   0  0  0  0  0  0  0  0  0  0  0  0
    0.4986   -0.3450   -2.1038 C   0  0  0  0  0  0  0  0  0  0  0  0
    0.9328   -1.4799   -1.7903 O   0  5  0  0  0  0  0  0  0  0  0  0
    0.0608   -0.0405   -3.2387 O   0  0  0  0  0  0  0  0  0  0  0  0
    0.2971    1.2676    1.4465 C   0  0  0  0  0  0  0  0  0  0  0  0
   -0.3663    2.3013    1.4143 O   0  0  0  0  0  0  0  0  0  0  0  0
    1.2345    1.1041    2.4502 N   0  0  0  0  0  0  0  0  0  0  0  0
    1.6409    0.1754    2.5274 H   0  0  0  0  0  0  0  0  0  0  0  0
    1.3961    2.0359    3.5559 C   0  0  0  0  0  0  0  0  0  0  0  0
    0.4800    2.0818    4.1533 H   0  0  0  0  0  0  0  0  0  0  0  0
    2.2177    1.7120    4.2016 H   0  0  0  0  0  0  0  0  0  0  0  0
    1.6271    3.0384    3.1817 H   0  0  0  0  0  0  0  0  0  0  0  0
  1  2  1  0  0  0  0
  2  3  1  0  0  0  0
  2  4  1  0  0  0  0
  2  5  1  0  0  0  0
  5  6  2  0  0  0  0
  5  7  1  0  0  0  0
  7  8  1  0  0  0  0
  7  9  1  0  0  0  0
  9 10  1  0  0  0  0
  9 11  1  0  0  0  0
  9 17  1  0  0  0  0
 11 12  1  0  0  0  0
 11 13  1  0  0  0  0
 11 14  1  0  0  0  0
 14 15  1  0  0  0  0
 14 16  2  0  0  0  0
 17 18  2  0  0  0  0
 17 19  1  0  0  0  0
 19 20  1  0  0  0  0
 19 21  1  0  0  0  0
 21 22  1  0  0  0  0
 21 23  1  0  0  0  0
 21 24  1  0  0  0  0
M  CHG  1  15  -1
M  END
$$$$

  -OEChem-01062216073D

 24 23  0     1  0  0  0  0  0999 V2000
   -2.7281   -3.4175    0.9669 H   0  0  0  0  0  0  0  0  0  0  0  0
   -2.6505   -2.4768    0.4154 C   0  0  0  0  0  0  0  0  0  0  0  0
   -3.5747   -1.9097    0.5491 H   0  0  0  0  0  0  0  0  0  0  0  0
   -2.5180   -2.7015   -0.6465 H   0  0  0  0  0  0  0  0  0  0  0  0
   -1.4677   -1.6689    0.9178 C   0  0  0  0  0  0  0  0  0  0  0  0
   -0.7910   -2.0907    1.8467 O   0  0  0  0  0  0  0  0  0  0  0  0
   -1.2191   -0.4280    0.3747 N   0  0  0  0  0  0  0  0  0  0  0  0
   -1.7827   -0.1949   -0.4360 H   0  0  0  0  0  0  0  0  0  0  0  0
    0.1256    0.1552    0.3948 C   0  0  1  0  0  0  0  0  0  0  0  0
    0.8779   -0.6131    0.6063 H   0  0  0  0  0  0  0  0  0  0  0  0
    0.3756    0.7369   -1.0099 C   0  0  0  0  0  0  0  0  0  0  0  0
   -0.4351    1.4216   -1.2768 H   0  0  0  0  0  0  0  0  0  0  0  0
    1.3049    1.3120   -0.9958 H   0  0  0  0  0  0  0  0  0  0  0  0
    0.5185   -0.3270   -2.0942 C   0  0  0  0  0  0  0  0  0  0  0  0
    0.9707   -1.4555   -1.7841 O   0  5  0  0  0  0  0  0  0  0  0  0
    0.0977   -0.0182   -3.2345 O   0  0  0  0  0  0  0  0  0  0  0  0
    0.2664    1.2741    1.4494 C   0  0  0  0  0  0  0  0  0  0  0  0
   -0.5647    2.1725    1.5603 O   0  0  0  0  0  0  0  0  0  0  0  0
    1.3859    1.2956    2.2617 N   0  0  0  0  0  0  0  0  0  0  0  0
    1.9985    0.4870    2.2052 H   0  0  0  0  0  0  0  0  0  0  0  0
    1.5903    2.2661    3.3261 C   0  0  0  0  0  0  0  0  0  0  0  0
    0.7993    2.1810    4.0780 H   0  0  0  0  0  0  0  0  0  0  0  0
    2.5538    2.0906    3.8131 H   0  0  0  0  0  0  0  0  0  0  0  0
    1.5881    3.2834    2.9216 H   0  0  0  0  0  0  0  0  0  0  0  0
  1  2  1  0  0  0  0
  2  3  1  0  0  0  0
  2  4  1  0  0  0  0
  2  5  1  0  0  0  0
  5  6  2  0  0  0  0
  5  7  1  0  0  0  0
  7  8  1  0  0  0  0
  7  9  1  0  0  0  0
  9 10  1  0  0  0  0
  9 11  1  0  0  0  0
  9 17  1  0  0  0  0
 11 12  1  0  0  0  0
 11 13  1  0  0  0  0
 11 14  1  0  0  0  0
 14 15  1  0  0  0  0
 14 16  2  0  0  0  0
 17 18  2  0  0  0  0
 17 19  1  0  0  0  0
 19 20  1  0  0  0  0
 19 21  1  0  0  0  0
 21 22  1  0  0  0  0
 21 23  1  0  0  0  0
 21 24  1  0  0  0  0
M  CHG  1  15  -1
M  END
$$$$

  -OEChem-01062216073D

 24 23  0     1  0  0  0  0  0999 V2000
   -2.7372   -3.4473    0.9523 H   0  0  0  0  0  0  0  0  0  0  0  0
   -2.6633   -2.5002    0.4112 C   0  0  0  0  0  0  0  0  0  0  0  0
   -3.5850   -1.9331    0.5614 H   0  0  0  0  0  0  0  0  0  0  0  0
   -2.5429   -2.7124   -0.6545 H   0  0  0  0  0  0  0  0  0  0  0  0
   -1.4733   -1.7009    0.9110 C   0  0  0  0  0  0  0  0  0  0  0  0
   -0.7897   -2.1369    1.8277 O   0  0  0  0  0  0  0  0  0  0  0  0
   -1.2259   -0.4566    0.3750 N   0  0  0  0  0  0  0  0  0  0  0  0
   -1.7949   -0.2129   -0.4285 H   0  0  0  0  0  0  0  0  0  0  0  0
    0.1098    0.1477    0.4147 C   0  0  1  0  0  0  0  0  0  0  0  0
    0.8700   -0.6117    0.6308 H   0  0  0  0  0  0  0  0  0  0  0  0
    0.3630    0.7460   -0.9823 C   0  0  0  0  0  0  0  0  0  0  0  0
   -0.4576    1.4189   -1.2483 H   0  0  0  0  0  0  0  0  0  0  0  0
    1.2818    1.3373   -0.9554 H   0  0  0  0  0  0  0  0  0  0  0  0
    0.5340   -0.3006   -2.0786 C   0  0  0  0  0  0  0  0  0  0  0  0
    1.0027   -1.4252   -1.7799 O   0  5  0  0  0  0  0  0  0  0  0  0
    0.1281    0.0211   -3.2207 O   0  0  0  0  0  0  0  0  0  0  0  0
    0.2363    1.2713    1.4670 C   0  0  0  0  0  0  0  0  0  0  0  0
   -0.6999    2.0176    1.7439 O   0  0  0  0  0  0  0  0  0  0  0  0
    1.4647    1.4955    2.0630 N   0  0  0  0  0  0  0  0  0  0  0  0
    2.2089    0.8441    1.8316 H   0  0  0  0  0  0  0  0  0  0  0  0
    1.7056    2.5277    3.0596 C   0  0  0  0  0  0  0  0  0  0  0  0
    1.0824    2.3583    3.9435 H   0  0  0  0  0  0  0  0  0  0  0  0
    2.7553    2.5142    3.3671 H   0  0  0  0  0  0  0  0  0  0  0  0
    1.4786    3.5166    2.6486 H   0  0  0  0  0  0  0  0  0  0  0  0
  1  2  1  0  0  0  0
  2  3  1  0  0  0  0
  2  4  1  0  0  0  0
  2  5  1  0  0  0  0
  5  6  2  0  0  0  0
  5  7  1  0  0  0  0
  7  8  1  0  0  0  0
  7  9  1  0  0  0  0
  9 10  1  0  0  0  0
  9 11  1  0  0  0  0
  9 17  1  0  0  0  0
 11 12  1  0  0  0  0
 11 13  1  0  0  0  0
 11 14  1  0  0  0  0
 14 15  1  0  0  0  0
 14 16  2  0  0  0  0
 17 18  2  0  0  0  0
 17 19  1  0  0  0  0
 19 20  1  0  0  0  0
 19 21  1  0  0  0  0
 21 22  1  0  0  0  0
 21 23  1  0  0  0  0
 21 24  1  0  0  0  0
M  CHG  1  15  -1
M  END
$$$$

  -OEChem-01062216073D

 24 23  0     1  0  0  0  0  0999 V2000
   -2.7251   -3.4736    0.9312 H   0  0  0  0  0  0  0  0  0  0  0  0
   -2.6638   -2.5149    0.4093 C   0  0  0  0  0  0  0  0  0  0  0  0
   -3.5852   -1.9553    0.5865 H   0  0  0  0  0  0  0  0  0  0  0  0
   -2.5593   -2.7037   -0.6626 H   0  0  0  0  0  0  0  0  0  0  0  0
   -1.4701   -1.7207    0.9080 C   0  0  0  0  0  0  0  0  0  0  0  0
   -0.7775   -2.1692    1.8116 O   0  0  0  0  0  0  0  0  0  0  0  0
   -1.2269   -0.4730    0.3774 N   0  0  0  0  0  0  0  0  0  0  0  0
   -1.8008   -0.2241   -0.4205 H   0  0  0  0  0  0  0  0  0  0  0  0
    0.1025    0.1451    0.4297 C   0  0  1  0  0  0  0  0  0  0  0  0
    0.8705   -0.6063    0.6466 H   0  0  0  0  0  0  0  0  0  0  0  0
    0.3482    0.7512   -0.9671 C   0  0  0  0  0  0  0  0  0  0  0  0
   -0.4809    1.4151   -1.2302 H   0  0  0  0  0  0  0  0  0  0  0  0
    1.2594    1.3537   -0.9421 H   0  0  0  0  0  0  0  0  0  0  0  0
    0.5332   -0.2864   -2.0694 C   0  0  0  0  0  0  0  0  0  0  0  0
    1.0167   -1.4061   -1.7783 O   0  5  0  0  0  0  0  0  0  0  0  0
    0.1301    0.0410   -3.2108 O   0  0  0  0  0  0  0  0  0  0  0  0
    0.2203    1.2711    1.4828 C   0  0  0  0  0  0  0  0  0  0  0  0
   -0.7609    1.8491    1.9443 O   0  0  0  0  0  0  0  0  0  0  0  0
    1.4801    1.7113    1.8497 N   0  0  0  0  0  0  0  0  0  0  0  0
    2.2711    1.2239    1.4390 H   0  0  0  0  0  0  0  0  0  0  0  0
    1.7198    2.7900    2.7961 C   0  0  0  0  0  0  0  0  0  0  0  0
    1.2795    2.5494    3.7691 H   0  0  0  0  0  0  0  0  0  0  0  0
    2.7953    2.9394    2.9299 H   0  0  0  0  0  0  0  0  0  0  0  0
    1.2831    3.7245    2.4293 H   0  0  0  0  0  0  0  0  0  0  0  0
  1  2  1  0  0  0  0
  2  3  1  0  0  0  0
  2  4  1  0  0  0  0
  2  5  1  0  0  0  0
  5  6  2  0  0  0  0
  5  7  1  0  0  0  0
  7  8  1  0  0  0  0
  7  9  1  0  0  0  0
  9 10  1  0  0  0  0
  9 11  1  0  0  0  0
  9 17  1  0  0  0  0
 11 12  1  0  0  0  0
 11 13  1  0  0  0  0
 11 14  1  0  0  0  0
 14 15  1  0  0  0  0
 14 16  2  0  0  0  0
 17 18  2  0  0  0  0
 17 19  1  0  0  0  0
 19 20  1  0  0  0  0
 19 21  1  0  0  0  0
 21 22  1  0  0  0  0
 21 23  1  0  0  0  0
 21 24  1  0  0  0  0
M  CHG  1  15  -1
M  END
$$$$

  -OEChem-01062216073D

 24 23  0     1  0  0  0  0  0999 V2000
   -2.7599   -3.4644    0.8945 H   0  0  0  0  0  0  0  0  0  0  0  0
   -2.7338   -2.4612    0.4606 C   0  0  0  0  0  0  0  0  0  0  0  0
   -3.5998   -1.8982    0.8170 H   0  0  0  0  0  0  0  0  0  0  0  0
   -2.7850   -2.5471   -0.6280 H   0  0  0  0  0  0  0  0  0  0  0  0
   -1.4539   -1.7493    0.8605 C   0  0  0  0  0  0  0  0  0  0  0  0
   -0.6749   -2.2959    1.6292 O   0  0  0  0  0  0  0  0  0  0  0  0
   -1.1997   -0.4951    0.3504 N   0  0  0  0  0  0  0  0  0  0  0  0
   -1.8140   -0.1861   -0.3949 H   0  0  0  0  0  0  0  0  0  0  0  0
    0.1279    0.1254    0.4145 C   0  0  1  0  0  0  0  0  0  0  0  0
    0.9088   -0.6422    0.3668 H   0  0  0  0  0  0  0  0  0  0  0  0
    0.2203    1.0417   -0.8251 C   0  0  0  0  0  0  0  0  0  0  0  0
   -0.6343    1.7248   -0.8401 H   0  0  0  0  0  0  0  0  0  0  0  0
    1.1267    1.6481   -0.7649 H   0  0  0  0  0  0  0  0  0  0  0  0
    0.2885    0.2864   -2.1483 C   0  0  0  0  0  0  0  0  0  0  0  0
    0.8035   -0.8565   -2.1734 O   0  5  0  0  0  0  0  0  0  0  0  0
   -0.2369    0.8535   -3.1353 O   0  0  0  0  0  0  0  0  0  0  0  0
    0.3646    0.9654    1.6951 C   0  0  0  0  0  0  0  0  0  0  0  0
   -0.5255    1.1977    2.5094 O   0  0  0  0  0  0  0  0  0  0  0  0
    1.5845    1.5976    1.8680 N   0  0  0  0  0  0  0  0  0  0  0  0
    2.2910    1.4271    1.1586 H   0  0  0  0  0  0  0  0  0  0  0  0
    1.8931    2.4781    2.9848 C   0  0  0  0  0  0  0  0  0  0  0  0
    1.7741    1.9468    3.9346 H   0  0  0  0  0  0  0  0  0  0  0  0
    2.9268    2.8286    2.9117 H   0  0  0  0  0  0  0  0  0  0  0  0
    1.2300    3.3490    2.9791 H   0  0  0  0  0  0  0  0  0  0  0  0
  1  2  1  0  0  0  0
  2  3  1  0  0  0  0
  2  4  1  0  0  0  0
  2  5  1  0  0  0  0
  5  6  2  0  0  0  0
  5  7  1  0  0  0  0
  7  8  1  0  0  0  0
  7  9  1  0  0  0  0
  9 10  1  0  0  0  0
  9 11  1  0  0  0  0
  9 17  1  0  0  0  0
 11 12  1  0  0  0  0
 11 13  1  0  0  0  0
 11 14  1  0  0  0  0
 14 15  1  0  0  0  0
 14 16  2  0  0  0  0
 17 18  2  0  0  0  0
 17 19  1  0  0  0  0
 19 20  1  0  0  0  0
 19 21  1  0  0  0  0
 21 22  1  0  0  0  0
 21 23  1  0  0  0  0
 21 24  1  0  0  0  0
M  CHG  1  15  -1
M  END
$$$$

  -OEChem-01062216073D

 24 23  0     1  0  0  0  0  0999 V2000
   -2.7590   -3.4634    0.8931 H   0  0  0  0  0  0  0  0  0  0  0  0
   -2.7336   -2.4551    0.4709 C   0  0  0  0  0  0  0  0  0  0  0  0
   -3.5871   -1.8898    0.8524 H   0  0  0  0  0  0  0  0  0  0  0  0
   -2.8087   -2.5275   -0.6173 H   0  0  0  0  0  0  0  0  0  0  0  0
   -1.4398   -1.7582    0.8527 C   0  0  0  0  0  0  0  0  0  0  0  0
   -0.6490   -2.3244    1.5944 O   0  0  0  0  0  0  0  0  0  0  0  0
   -1.1862   -0.5015    0.3467 N   0  0  0  0  0  0  0  0  0  0  0  0
   -1.8062   -0.1893   -0.3925 H   0  0  0  0  0  0  0  0  0  0  0  0
    0.1409    0.1220    0.4085 C   0  0  1  0  0  0  0  0  0  0  0  0
    0.9268   -0.6400    0.3565 H   0  0  0  0  0  0  0  0  0  0  0  0
    0.2134    1.0331   -0.8398 C   0  0  0  0  0  0  0  0  0  0  0  0
   -0.6443    1.7124   -0.8486 H   0  0  0  0  0  0  0  0  0  0  0  0
    1.1180    1.6430   -0.8008 H   0  0  0  0  0  0  0  0  0  0  0  0
    0.2739    0.2750   -2.1617 C   0  0  0  0  0  0  0  0  0  0  0  0
    0.7969   -0.8636   -2.1924 O   0  5  0  0  0  0  0  0  0  0  0  0
   -0.2635    0.8399   -3.1435 O   0  0  0  0  0  0  0  0  0  0  0  0
    0.3738    0.9593    1.6965 C   0  0  0  0  0  0  0  0  0  0  0  0
   -0.4250    0.9743    2.6295 O   0  0  0  0  0  0  0  0  0  0  0  0
    1.4380    1.8446    1.7556 N   0  0  0  0  0  0  0  0  0  0  0  0
    2.0581    1.8648    0.9517 H   0  0  0  0  0  0  0  0  0  0  0  0
    1.6870    2.7480    2.8693 C   0  0  0  0  0  0  0  0  0  0  0  0
    1.8002    2.1843    3.8010 H   0  0  0  0  0  0  0  0  0  0  0  0
    2.6061    3.3148    2.6944 H   0  0  0  0  0  0  0  0  0  0  0  0
    0.8587    3.4551    2.9800 H   0  0  0  0  0  0  0  0  0  0  0  0
  1  2  1  0  0  0  0
  2  3  1  0  0  0  0
  2  4  1  0  0  0  0
  2  5  1  0  0  0  0
  5  6  2  0  0  0  0
  5  7  1  0  0  0  0
  7  8  1  0  0  0  0
  7  9  1  0  0  0  0
  9 10  1  0  0  0  0
  9 11  1  0  0  0  0
  9 17  1  0  0  0  0
 11 12  1  0  0  0  0
 11 13  1  0  0  0  0
 11 14  1  0  0  0  0
 14 15  1  0  0  0  0
 14 16  2  0  0  0  0
 17 18  2  0  0  0  0
 17 19  1  0  0  0  0
 19 20  1  0  0  0  0
 19 21  1  0  0  0  0
 21 22  1  0  0  0  0
 21 23  1  0  0  0  0
 21 24  1  0  0  0  0
M  CHG  1  15  -1
M  END
$$$$

  -OEChem-01062216073D

 24 23  0     1  0  0  0  0  0999 V2000
   -2.7701   -3.4464    0.9280 H   0  0  0  0  0  0  0  0  0  0  0  0
   -2.7293   -2.4496    0.4804 C   0  0  0  0  0  0  0  0  0  0  0  0
   -3.5773   -1.8641    0.8435 H   0  0  0  0  0  0  0  0  0  0  0  0
   -2.8003   -2.5484   -0.6059 H   0  0  0  0  0  0  0  0  0  0  0  0
   -1.4278   -1.7604    0.8500 C   0  0  0  0  0  0  0  0  0  0  0  0
   -0.6268   -2.3410    1.5684 O   0  0  0  0  0  0  0  0  0  0  0  0
   -1.1777   -0.5022    0.3442 N   0  0  0  0  0  0  0  0  0  0  0  0
   -1.8008   -0.1953   -0.3944 H   0  0  0  0  0  0  0  0  0  0  0  0
    0.1477    0.1265    0.3974 C   0  0  1  0  0  0  0  0  0  0  0  0
    0.9378   -0.6314    0.3463 H   0  0  0  0  0  0  0  0  0  0  0  0
    0.2073    1.0256   -0.8620 C   0  0  0  0  0  0  0  0  0  0  0  0
   -0.6516    1.7032   -0.8717 H   0  0  0  0  0  0  0  0  0  0  0  0
    1.1128    1.6344   -0.8407 H   0  0  0  0  0  0  0  0  0  0  0  0
    0.2636    0.2561   -2.1773 C   0  0  0  0  0  0  0  0  0  0  0  0
    0.7919   -0.8798   -2.2044 O   0  5  0  0  0  0  0  0  0  0  0  0
   -0.2867    0.8113   -3.1576 O   0  0  0  0  0  0  0  0  0  0  0  0
    0.3766    0.9638    1.6898 C   0  0  0  0  0  0  0  0  0  0  0  0
   -0.2627    0.7733    2.7202 O   0  0  0  0  0  0  0  0  0  0  0  0
    1.2159    2.0669    1.6706 N   0  0  0  0  0  0  0  0  0  0  0  0
    1.6967    2.2570    0.7967 H   0  0  0  0  0  0  0  0  0  0  0  0
    1.4157    2.9631    2.8002 C   0  0  0  0  0  0  0  0  0  0  0  0
    1.7811    2.4072    3.6697 H   0  0  0  0  0  0  0  0  0  0  0  0
    2.1534    3.7294    2.5447 H   0  0  0  0  0  0  0  0  0  0  0  0
    0.4767    3.4597    3.0645 H   0  0  0  0  0  0  0  0  0  0  0  0
  1  2  1  0  0  0  0
  2  3  1  0  0  0  0
  2  4  1  0  0  0  0
  2  5  1  0  0  0  0
  5  6  2  0  0  0  0
  5  7  1  0  0  0  0
  7  8  1  0  0  0  0
  7  9  1  0  0  0  0
  9 10  1  0  0  0  0
  9 11  1  0  0  0  0
  9 17  1  0  0  0  0
 11 12  1  0  0  0  0
 11 13  1  0  0  0  0
 11 14  1  0  0  0  0
 14 15  1  0  0  0  0
 14 16  2  0  0  0  0
 17 18  2  0  0  0  0
 17 19  1  0  0  0  0
 19 20  1  0  0  0  0
 19 21  1  0  0  0  0
 21 22  1  0  0  0  0
 21 23  1  0  0  0  0
 21 24  1  0  0  0  0
M  CHG  1  15  -1
M  END
$$$$

  -OEChem-01062216073D

 24 23  0     1  0  0  0  0  0999 V2000
   -2.7602   -3.4536    0.9148 H   0  0  0  0  0  0  0  0  0  0  0  0
   -2.7312   -2.4452    0.4927 C   0  0  0  0  0  0  0  0  0  0  0  0
   -3.5713   -1.8710    0.8904 H   0  0  0  0  0  0  0  0  0  0  0  0
   -2.8270   -2.5163   -0.5939 H   0  0  0  0  0  0  0  0  0  0  0  0
   -1.4224   -1.7636    0.8515 C   0  0  0  0  0  0  0  0  0  0  0  0
   -0.6191   -2.3546    1.5574 O   0  0  0  0  0  0  0  0  0  0  0  0
   -1.1713   -0.5057    0.3432 N   0  0  0  0  0  0  0  0  0  0  0  0
   -1.7936   -0.2064   -0.3995 H   0  0  0  0  0  0  0  0  0  0  0  0
    0.1533    0.1265    0.3877 C   0  0  1  0  0  0  0  0  0  0  0  0
    0.9451   -0.6299    0.3411 H   0  0  0  0  0  0  0  0  0  0  0  0
    0.2141    1.0166   -0.8778 C   0  0  0  0  0  0  0  0  0  0  0  0
   -0.6403    1.6999   -0.8921 H   0  0  0  0  0  0  0  0  0  0  0  0
    1.1268    1.6156   -0.8581 H   0  0  0  0  0  0  0  0  0  0  0  0
    0.2706    0.2419   -2.1898 C   0  0  0  0  0  0  0  0  0  0  0  0
    0.7972   -0.8942   -2.2155 O   0  5  0  0  0  0  0  0  0  0  0  0
   -0.2860    0.7938   -3.1686 O   0  0  0  0  0  0  0  0  0  0  0  0
    0.3758    0.9655    1.6817 C   0  0  0  0  0  0  0  0  0  0  0  0
   -0.0376    0.6047    2.7786 O   0  0  0  0  0  0  0  0  0  0  0  0
    0.9411    2.2303    1.6182 N   0  0  0  0  0  0  0  0  0  0  0  0
    1.2075    2.5618    0.6962 H   0  0  0  0  0  0  0  0  0  0  0  0
    1.0902    3.1193    2.7617 C   0  0  0  0  0  0  0  0  0  0  0  0
    1.6758    2.6350    3.5498 H   0  0  0  0  0  0  0  0  0  0  0  0
    1.6083    4.0343    2.4602 H   0  0  0  0  0  0  0  0  0  0  0  0
    0.1094    3.3914    3.1645 H   0  0  0  0  0  0  0  0  0  0  0  0
  1  2  1  0  0  0  0
  2  3  1  0  0  0  0
  2  4  1  0  0  0  0
  2  5  1  0  0  0  0
  5  6  2  0  0  0  0
  5  7  1  0  0  0  0
  7  8  1  0  0  0  0
  7  9  1  0  0  0  0
  9 10  1  0  0  0  0
  9 11  1  0  0  0  0
  9 17  1  0  0  0  0
 11 12  1  0  0  0  0
 11 13  1  0  0  0  0
 11 14  1  0  0  0  0
 14 15  1  0  0  0  0
 14 16  2  0  0  0  0
 17 18  2  0  0  0  0
 17 19  1  0  0  0  0
 19 20  1  0  0  0  0
 19 21  1  0  0  0  0
 21 22  1  0  0  0  0
 21 23  1  0  0  0  0
 21 24  1  0  0  0  0
M  CHG  1  15  -1
M  END
$$$$

  -OEChem-01062216073D

 24 23  0     1  0  0  0  0  0999 V2000
   -2.7853   -3.4460    0.9408 H   0  0  0  0  0  0  0  0  0  0  0  0
   -2.7255   -2.4626    0.4660 C   0  0  0  0  0  0  0  0  0  0  0  0
   -3.5826   -1.8642    0.7836 H   0  0  0  0  0  0  0  0  0  0  0  0
   -2.7613   -2.5926   -0.6188 H   0  0  0  0  0  0  0  0  0  0  0  0
   -1.4338   -1.7672    0.8586 C   0  0  0  0  0  0  0  0  0  0  0  0
   -0.6486   -2.3467    1.5921 O   0  0  0  0  0  0  0  0  0  0  0  0
   -1.1821   -0.5102    0.3481 N   0  0  0  0  0  0  0  0  0  0  0  0
   -1.7862   -0.2346   -0.4187 H   0  0  0  0  0  0  0  0  0  0  0  0
    0.1387    0.1301    0.3958 C   0  0  1  0  0  0  0  0  0  0  0  0
    0.9349   -0.6225    0.3572 H   0  0  0  0  0  0  0  0  0  0  0  0
    0.2037    1.0165   -0.8713 C   0  0  0  0  0  0  0  0  0  0  0  0
   -0.6558    1.6932   -0.8960 H   0  0  0  0  0  0  0  0  0  0  0  0
    1.1131    1.6213   -0.8399 H   0  0  0  0  0  0  0  0  0  0  0  0
    0.2720    0.2384   -2.1805 C   0  0  0  0  0  0  0  0  0  0  0  0
    0.8033   -0.8955   -2.2014 O   0  5  0  0  0  0  0  0  0  0  0  0
   -0.2930    0.7809   -3.1598 O   0  0  0  0  0  0  0  0  0  0  0  0
    0.3509    0.9752    1.6862 C   0  0  0  0  0  0  0  0  0  0  0  0
    0.2322    0.5026    2.8105 O   0  0  0  0  0  0  0  0  0  0  0  0
    0.6106    2.3352    1.6052 N   0  0  0  0  0  0  0  0  0  0  0  0
    0.6687    2.7300    0.6714 H   0  0  0  0  0  0  0  0  0  0  0  0
    0.7699    3.2093    2.7583 C   0  0  0  0  0  0  0  0  0  0  0  0
    1.6017    2.8694    3.3837 H   0  0  0  0  0  0  0  0  0  0  0  0
    0.9802    4.2309    2.4283 H   0  0  0  0  0  0  0  0  0  0  0  0
   -0.1452    3.2202    3.3590 H   0  0  0  0  0  0  0  0  0  0  0  0
  1  2  1  0  0  0  0
  2  3  1  0  0  0  0
  2  4  1  0  0  0  0
  2  5  1  0  0  0  0
  5  6  2  0  0  0  0
  5  7  1  0  0  0  0
  7  8  1  0  0  0  0
  7  9  1  0  0  0  0
  9 10  1  0  0  0  0
  9 11  1  0  0  0  0
  9 17  1  0  0  0  0
 11 12  1  0  0  0  0
 11 13  1  0  0  0  0
 11 14  1  0  0  0  0
 14 15  1  0  0  0  0
 14 16  2  0  0  0  0
 17 18  2  0  0  0  0
 17 19  1  0  0  0  0
 19 20  1  0  0  0  0
 19 21  1  0  0  0  0
 21 22  1  0  0  0  0
 21 23  1  0  0  0  0
 21 24  1  0  0  0  0
M  CHG  1  15  -1
M  END
$$$$

  -OEChem-01062216073D

 24 23  0     1  0  0  0  0  0999 V2000
   -2.7629   -3.4865    0.8767 H   0  0  0  0  0  0  0  0  0  0  0  0
   -2.7076   -2.5006    0.4070 C   0  0  0  0  0  0  0  0  0  0  0  0
   -3.6016   -1.9316    0.6724 H   0  0  0  0  0  0  0  0  0  0  0  0
   -2.6739   -2.6300   -0.6781 H   0  0  0  0  0  0  0  0  0  0  0  0
   -1.4652   -1.7638    0.8753 C   0  0  0  0  0  0  0  0  0  0  0  0
   -0.7272   -2.3014    1.6843 O   0  0  0  0  0  0  0  0  0  0  0  0
   -1.2108   -0.5099    0.3599 N   0  0  0  0  0  0  0  0  0  0  0  0
   -1.7737   -0.2757   -0.4516 H   0  0  0  0  0  0  0  0  0  0  0  0
    0.1112    0.1279    0.4183 C   0  0  1  0  0  0  0  0  0  0  0  0
    0.9065   -0.6264    0.3867 H   0  0  0  0  0  0  0  0  0  0  0  0
    0.1857    1.0157   -0.8460 C   0  0  0  0  0  0  0  0  0  0  0  0
   -0.6760    1.6892   -0.8803 H   0  0  0  0  0  0  0  0  0  0  0  0
    1.0920    1.6249   -0.7986 H   0  0  0  0  0  0  0  0  0  0  0  0
    0.2614    0.2380   -2.1551 C   0  0  0  0  0  0  0  0  0  0  0  0
    0.7907   -0.8968   -2.1733 O   0  5  0  0  0  0  0  0  0  0  0  0
   -0.3156    0.7726   -3.1317 O   0  0  0  0  0  0  0  0  0  0  0  0
    0.3141    0.9777    1.7046 C   0  0  0  0  0  0  0  0  0  0  0  0
    0.5283    0.4733    2.8000 O   0  0  0  0  0  0  0  0  0  0  0  0
    0.2673    2.3626    1.6449 N   0  0  0  0  0  0  0  0  0  0  0  0
    0.1137    2.7706    0.7276 H   0  0  0  0  0  0  0  0  0  0  0  0
    0.4665    3.2383    2.7904 C   0  0  0  0  0  0  0  0  0  0  0  0
    1.4629    3.0880    3.2185 H   0  0  0  0  0  0  0  0  0  0  0  0
    0.3757    4.2842    2.4832 H   0  0  0  0  0  0  0  0  0  0  0  0
   -0.2851    3.0368    3.5603 H   0  0  0  0  0  0  0  0  0  0  0  0
  1  2  1  0  0  0  0
  2  3  1  0  0  0  0
  2  4  1  0  0  0  0
  2  5  1  0  0  0  0
  5  6  2  0  0  0  0
  5  7  1  0  0  0  0
  7  8  1  0  0  0  0
  7  9  1  0  0  0  0
  9 10  1  0  0  0  0
  9 11  1  0  0  0  0
  9 17  1  0  0  0  0
 11 12  1  0  0  0  0
 11 13  1  0  0  0  0
 11 14  1  0  0  0  0
 14 15  1  0  0  0  0
 14 16  2  0  0  0  0
 17 18  2  0  0  0  0
 17 19  1  0  0  0  0
 19 20  1  0  0  0  0
 19 21  1  0  0  0  0
 21 22  1  0  0  0  0
 21 23  1  0  0  0  0
 21 24  1  0  0  0  0
M  CHG  1  15  -1
M  END
$$$$

  -OEChem-01062216073D

 24 23  0     1  0  0  0  0  0999 V2000
   -2.7408   -3.5232    0.8263 H   0  0  0  0  0  0  0  0  0  0  0  0
   -2.6844   -2.5426    0.3457 C   0  0  0  0  0  0  0  0  0  0  0  0
   -3.6111   -1.9982    0.5424 H   0  0  0  0  0  0  0  0  0  0  0  0
   -2.5741   -2.6860   -0.7326 H   0  0  0  0  0  0  0  0  0  0  0  0
   -1.4982   -1.7619    0.8833 C   0  0  0  0  0  0  0  0  0  0  0  0
   -0.8169   -2.2490    1.7699 O   0  0  0  0  0  0  0  0  0  0  0  0
   -1.2437   -0.5085    0.3685 N   0  0  0  0  0  0  0  0  0  0  0  0
   -1.7641   -0.3097   -0.4808 H   0  0  0  0  0  0  0  0  0  0  0  0
    0.0834    0.1177    0.4386 C   0  0  1  0  0  0  0  0  0  0  0  0
    0.8735   -0.6422    0.4072 H   0  0  0  0  0  0  0  0  0  0  0  0
    0.1728    1.0179   -0.8139 C   0  0  0  0  0  0  0  0  0  0  0  0
   -0.6845    1.6964   -0.8505 H   0  0  0  0  0  0  0  0  0  0  0  0
    1.0806    1.6237   -0.7495 H   0  0  0  0  0  0  0  0  0  0  0  0
    0.2477    0.2460   -2.1268 C   0  0  0  0  0  0  0  0  0  0  0  0
    0.7662   -0.8939   -2.1475 O   0  5  0  0  0  0  0  0  0  0  0  0
   -0.3400    0.7799   -3.0974 O   0  0  0  0  0  0  0  0  0  0  0  0
    0.2817    0.9592    1.7270 C   0  0  0  0  0  0  0  0  0  0  0  0
    0.8200    0.5024    2.7283 O   0  0  0  0  0  0  0  0  0  0  0  0
   -0.0579    2.3034    1.7390 N   0  0  0  0  0  0  0  0  0  0  0  0
   -0.4289    2.6834    0.8737 H   0  0  0  0  0  0  0  0  0  0  0  0
    0.1794    3.1940    2.8654 C   0  0  0  0  0  0  0  0  0  0  0  0
    1.2504    3.2594    3.0820 H   0  0  0  0  0  0  0  0  0  0  0  0
   -0.1900    4.1975    2.6348 H   0  0  0  0  0  0  0  0  0  0  0  0
   -0.3416    2.8297    3.7566 H   0  0  0  0  0  0  0  0  0  0  0  0
  1  2  1  0  0  0  0
  2  3  1  0  0  0  0
  2  4  1  0  0  0  0
  2  5  1  0  0  0  0
  5  6  2  0  0  0  0
  5  7  1  0  0  0  0
  7  8  1  0  0  0  0
  7  9  1  0  0  0  0
  9 10  1  0  0  0  0
  9 11  1  0  0  0  0
  9 17  1  0  0  0  0
 11 12  1  0  0  0  0
 11 13  1  0  0  0  0
 11 14  1  0  0  0  0
 14 15  1  0  0  0  0
 14 16  2  0  0  0  0
 17 18  2  0  0  0  0
 17 19  1  0  0  0  0
 19 20  1  0  0  0  0
 19 21  1  0  0  0  0
 21 22  1  0  0  0  0
 21 23  1  0  0  0  0
 21 24  1  0  0  0  0
M  CHG  1  15  -1
M  END
$$$$

  -OEChem-01062216073D

 24 23  0     1  0  0  0  0  0999 V2000
   -2.7375   -3.5413    0.8014 H   0  0  0  0  0  0  0  0  0  0  0  0
   -2.6628   -2.5735    0.2983 C   0  0  0  0  0  0  0  0  0  0  0  0
   -3.6065   -2.0368    0.4207 H   0  0  0  0  0  0  0  0  0  0  0  0
   -2.4832   -2.7440   -0.7666 H   0  0  0  0  0  0  0  0  0  0  0  0
   -1.5227   -1.7620    0.8868 C   0  0  0  0  0  0  0  0  0  0  0  0
   -0.8883   -2.2118    1.8267 O   0  0  0  0  0  0  0  0  0  0  0  0
   -1.2659   -0.5082    0.3762 N   0  0  0  0  0  0  0  0  0  0  0  0
   -1.7549   -0.3303   -0.4968 H   0  0  0  0  0  0  0  0  0  0  0  0
    0.0711    0.0953    0.4524 C   0  0  1  0  0  0  0  0  0  0  0  0
    0.8504   -0.6754    0.4102 H   0  0  0  0  0  0  0  0  0  0  0  0
    0.1725    1.0184   -0.7802 C   0  0  0  0  0  0  0  0  0  0  0  0
   -0.6717    1.7136   -0.8019 H   0  0  0  0  0  0  0  0  0  0  0  0
    1.0904    1.6073   -0.7036 H   0  0  0  0  0  0  0  0  0  0  0  0
    0.2299    0.2667   -2.1056 C   0  0  0  0  0  0  0  0  0  0  0  0
    0.7283   -0.8821   -2.1448 O   0  5  0  0  0  0  0  0  0  0  0  0
   -0.3697    0.8156   -3.0604 O   0  0  0  0  0  0  0  0  0  0  0  0
    0.2750    0.9196    1.7475 C   0  0  0  0  0  0  0  0  0  0  0  0
    1.0723    0.5786    2.6139 O   0  0  0  0  0  0  0  0  0  0  0  0
   -0.3253    2.1625    1.8697 N   0  0  0  0  0  0  0  0  0  0  0  0
   -0.9117    2.4580    1.0959 H   0  0  0  0  0  0  0  0  0  0  0  0
   -0.0874    3.0769    2.9762 C   0  0  0  0  0  0  0  0  0  0  0  0
    0.9669    3.3698    3.0094 H   0  0  0  0  0  0  0  0  0  0  0  0
   -0.6949    3.9784    2.8549 H   0  0  0  0  0  0  0  0  0  0  0  0
   -0.3552    2.6043    3.9266 H   0  0  0  0  0  0  0  0  0  0  0  0
  1  2  1  0  0  0  0
  2  3  1  0  0  0  0
  2  4  1  0  0  0  0
  2  5  1  0  0  0  0
  5  6  2  0  0  0  0
  5  7  1  0  0  0  0
  7  8  1  0  0  0  0
  7  9  1  0  0  0  0
  9 10  1  0  0  0  0
  9 11  1  0  0  0  0
  9 17  1  0  0  0  0
 11 12  1  0  0  0  0
 11 13  1  0  0  0  0
 11 14  1  0  0  0  0
 14 15  1  0  0  0  0
 14 16  2  0  0  0  0
 17 18  2  0  0  0  0
 17 19  1  0  0  0  0
 19 20  1  0  0  0  0
 19 21  1  0  0  0  0
 21 22  1  0  0  0  0
 21 23  1  0  0  0  0
 21 24  1  0  0  0  0
M  CHG  1  15  -1
M  END
$$$$

  -OEChem-01062216073D

 24 23  0     1  0  0  0  0  0999 V2000
   -2.7342   -3.5384    0.7994 H   0  0  0  0  0  0  0  0  0  0  0  0
   -2.6540   -2.5755    0.2874 C   0  0  0  0  0  0  0  0  0  0  0  0
   -3.6010   -2.0403    0.3884 H   0  0  0  0  0  0  0  0  0  0  0  0
   -2.4562   -2.7565   -0.7726 H   0  0  0  0  0  0  0  0  0  0  0  0
   -1.5262   -1.7545    0.8864 C   0  0  0  0  0  0  0  0  0  0  0  0
   -0.9105   -2.1852    1.8483 O   0  0  0  0  0  0  0  0  0  0  0  0
   -1.2655   -0.5025    0.3742 N   0  0  0  0  0  0  0  0  0  0  0  0
   -1.7401   -0.3352   -0.5093 H   0  0  0  0  0  0  0  0  0  0  0  0
    0.0824    0.0774    0.4451 C   0  0  1  0  0  0  0  0  0  0  0  0
    0.8509   -0.7034    0.3909 H   0  0  0  0  0  0  0  0  0  0  0  0
    0.1876    1.0156   -0.7735 C   0  0  0  0  0  0  0  0  0  0  0  0
   -0.6423    1.7281   -0.7748 H   0  0  0  0  0  0  0  0  0  0  0  0
    1.1169    1.5863   -0.6984 H   0  0  0  0  0  0  0  0  0  0  0  0
    0.2181    0.2762   -2.1070 C   0  0  0  0  0  0  0  0  0  0  0  0
    0.6961   -0.8811   -2.1604 O   0  5  0  0  0  0  0  0  0  0  0  0
   -0.3959    0.8357   -3.0463 O   0  0  0  0  0  0  0  0  0  0  0  0
    0.3023    0.8906    1.7418 C   0  0  0  0  0  0  0  0  0  0  0  0
    1.2756    0.7035    2.4638 O   0  0  0  0  0  0  0  0  0  0  0  0
   -0.5119    1.9794    2.0061 N   0  0  0  0  0  0  0  0  0  0  0  0
   -1.2839    2.1307    1.3655 H   0  0  0  0  0  0  0  0  0  0  0  0
   -0.3330    2.8735    3.1397 C   0  0  0  0  0  0  0  0  0  0  0  0
    0.6444    3.3639    3.0885 H   0  0  0  0  0  0  0  0  0  0  0  0
   -1.1084    3.6451    3.1355 H   0  0  0  0  0  0  0  0  0  0  0  0
   -0.4025    2.3165    4.0794 H   0  0  0  0  0  0  0  0  0  0  0  0
  1  2  1  0  0  0  0
  2  3  1  0  0  0  0
  2  4  1  0  0  0  0
  2  5  1  0  0  0  0
  5  6  2  0  0  0  0
  5  7  1  0  0  0  0
  7  8  1  0  0  0  0
  7  9  1  0  0  0  0
  9 10  1  0  0  0  0
  9 11  1  0  0  0  0
  9 17  1  0  0  0  0
 11 12  1  0  0  0  0
 11 13  1  0  0  0  0
 11 14  1  0  0  0  0
 14 15  1  0  0  0  0
 14 16  2  0  0  0  0
 17 18  2  0  0  0  0
 17 19  1  0  0  0  0
 19 20  1  0  0  0  0
 19 21  1  0  0  0  0
 21 22  1  0  0  0  0
 21 23  1  0  0  0  0
 21 24  1  0  0  0  0
M  CHG  1  15  -1
M  END
$$$$

  -OEChem-01062216073D

 24 23  0     1  0  0  0  0  0999 V2000
   -2.7236   -3.5306    0.7905 H   0  0  0  0  0  0  0  0  0  0  0  0
   -2.6432   -2.5701    0.2740 C   0  0  0  0  0  0  0  0  0  0  0  0
   -3.5977   -2.0442    0.3522 H   0  0  0  0  0  0  0  0  0  0  0  0
   -2.4223   -2.7559   -0.7807 H   0  0  0  0  0  0  0  0  0  0  0  0
   -1.5355   -1.7340    0.8893 C   0  0  0  0  0  0  0  0  0  0  0  0
   -0.9431   -2.1419    1.8757 O   0  0  0  0  0  0  0  0  0  0  0  0
   -1.2676   -0.4866    0.3705 N   0  0  0  0  0  0  0  0  0  0  0  0
   -1.7285   -0.3306   -0.5229 H   0  0  0  0  0  0  0  0  0  0  0  0
    0.0908    0.0712    0.4355 C   0  0  1  0  0  0  0  0  0  0  0  0
    0.8472   -0.7209    0.3771 H   0  0  0  0  0  0  0  0  0  0  0  0
    0.1997    1.0095   -0.7809 C   0  0  0  0  0  0  0  0  0  0  0  0
   -0.6184    1.7358   -0.7709 H   0  0  0  0  0  0  0  0  0  0  0  0
    1.1389    1.5651   -0.7142 H   0  0  0  0  0  0  0  0  0  0  0  0
    0.2074    0.2673   -2.1136 C   0  0  0  0  0  0  0  0  0  0  0  0
    0.6678   -0.8975   -2.1670 O   0  5  0  0  0  0  0  0  0  0  0  0
   -0.4159    0.8273   -3.0465 O   0  0  0  0  0  0  0  0  0  0  0  0
    0.3325    0.8829    1.7280 C   0  0  0  0  0  0  0  0  0  0  0  0
    1.4198    0.8788    2.2958 O   0  0  0  0  0  0  0  0  0  0  0  0
   -0.6339    1.7776    2.1541 N   0  0  0  0  0  0  0  0  0  0  0  0
   -1.5288    1.7225    1.6792 H   0  0  0  0  0  0  0  0  0  0  0  0
   -0.5009    2.6120    3.3382 C   0  0  0  0  0  0  0  0  0  0  0  0
    0.3639    3.2763    3.2427 H   0  0  0  0  0  0  0  0  0  0  0  0
   -1.3965    3.2269    3.4662 H   0  0  0  0  0  0  0  0  0  0  0  0
   -0.3749    1.9910    4.2307 H   0  0  0  0  0  0  0  0  0  0  0  0
  1  2  1  0  0  0  0
  2  3  1  0  0  0  0
  2  4  1  0  0  0  0
  2  5  1  0  0  0  0
  5  6  2  0  0  0  0
  5  7  1  0  0  0  0
  7  8  1  0  0  0  0
  7  9  1  0  0  0  0
  9 10  1  0  0  0  0
  9 11  1  0  0  0  0
  9 17  1  0  0  0  0
 11 12  1  0  0  0  0
 11 13  1  0  0  0  0
 11 14  1  0  0  0  0
 14 15  1  0  0  0  0
 14 16  2  0  0  0  0
 17 18  2  0  0  0  0
 17 19  1  0  0  0  0
 19 20  1  0  0  0  0
 19 21  1  0  0  0  0
 21 22  1  0  0  0  0
 21 23  1  0  0  0  0
 21 24  1  0  0  0  0
M  CHG  1  15  -1
M  END
$$$$

  -OEChem-01062216073D

 24 23  0     1  0  0  0  0  0999 V2000
   -2.7188   -3.5233    0.7788 H   0  0  0  0  0  0  0  0  0  0  0  0
   -2.6354   -2.5664    0.2563 C   0  0  0  0  0  0  0  0  0  0  0  0
   -3.5934   -2.0444    0.3159 H   0  0  0  0  0  0  0  0  0  0  0  0
   -2.3979   -2.7590   -0.7935 H   0  0  0  0  0  0  0  0  0  0  0  0
   -1.5413   -1.7203    0.8816 C   0  0  0  0  0  0  0  0  0  0  0  0
   -0.9662   -2.1114    1.8853 O   0  0  0  0  0  0  0  0  0  0  0  0
   -1.2703   -0.4745    0.3615 N   0  0  0  0  0  0  0  0  0  0  0  0
   -1.7248   -0.3188   -0.5357 H   0  0  0  0  0  0  0  0  0  0  0  0
    0.0933    0.0730    0.4277 C   0  0  1  0  0  0  0  0  0  0  0  0
    0.8433   -0.7250    0.3691 H   0  0  0  0  0  0  0  0  0  0  0  0
    0.2048    1.0072   -0.7907 C   0  0  0  0  0  0  0  0  0  0  0  0
   -0.6096    1.7377   -0.7792 H   0  0  0  0  0  0  0  0  0  0  0  0
    1.1468    1.5587   -0.7285 H   0  0  0  0  0  0  0  0  0  0  0  0
    0.2053    0.2580   -2.1198 C   0  0  0  0  0  0  0  0  0  0  0  0
    0.6595   -0.9100   -2.1668 O   0  5  0  0  0  0  0  0  0  0  0  0
   -0.4222    0.8123   -3.0532 O   0  0  0  0  0  0  0  0  0  0  0  0
    0.3485    0.8841    1.7183 C   0  0  0  0  0  0  0  0  0  0  0  0
    1.4847    1.0728    2.1409 O   0  0  0  0  0  0  0  0  0  0  0  0
   -0.7047    1.5477    2.3228 N   0  0  0  0  0  0  0  0  0  0  0  0
   -1.6285    1.2832    1.9964 H   0  0  0  0  0  0  0  0  0  0  0  0
   -0.5751    2.3156    3.5513 C   0  0  0  0  0  0  0  0  0  0  0  0
    0.1470    3.1279    3.4205 H   0  0  0  0  0  0  0  0  0  0  0  0
   -1.5399    2.7529    3.8237 H   0  0  0  0  0  0  0  0  0  0  0  0
   -0.2406    1.6711    4.3704 H   0  0  0  0  0  0  0  0  0  0  0  0
  1  2  1  0  0  0  0
  2  3  1  0  0  0  0
  2  4  1  0  0  0  0
  2  5  1  0  0  0  0
  5  6  2  0  0  0  0
  5  7  1  0  0  0  0
  7  8  1  0  0  0  0
  7  9  1  0  0  0  0
  9 10  1  0  0  0  0
  9 11  1  0  0  0  0
  9 17  1  0  0  0  0
 11 12  1  0  0  0  0
 11 13  1  0  0  0  0
 11 14  1  0  0  0  0
 14 15  1  0  0  0  0
 14 16  2  0  0  0  0
 17 18  2  0  0  0  0
 17 19  1  0  0  0  0
 19 20  1  0  0  0  0
 19 21  1  0  0  0  0
 21 22  1  0  0  0  0
 21 23  1  0  0  0  0
 21 24  1  0  0  0  0
M  CHG  1  15  -1
M  END
$$$$

  -OEChem-01062216073D

 24 23  0     1  0  0  0  0  0999 V2000
   -2.7145   -3.5107    0.7568 H   0  0  0  0  0  0  0  0  0  0  0  0
   -2.6253   -2.5573    0.2289 C   0  0  0  0  0  0  0  0  0  0  0  0
   -3.5888   -2.0430    0.2587 H   0  0  0  0  0  0  0  0  0  0  0  0
   -2.3588   -2.7560   -0.8130 H   0  0  0  0  0  0  0  0  0  0  0  0
   -1.5544   -1.6974    0.8748 C   0  0  0  0  0  0  0  0  0  0  0  0
   -1.0091   -2.0661    1.9037 O   0  0  0  0  0  0  0  0  0  0  0  0
   -1.2792   -0.4532    0.3550 N   0  0  0  0  0  0  0  0  0  0  0  0
   -1.7278   -0.2984   -0.5457 H   0  0  0  0  0  0  0  0  0  0  0  0
    0.0875    0.0887    0.4223 C   0  0  1  0  0  0  0  0  0  0  0  0
    0.8318   -0.7149    0.3710 H   0  0  0  0  0  0  0  0  0  0  0  0
    0.2029    1.0054   -0.8096 C   0  0  0  0  0  0  0  0  0  0  0  0
   -0.6098    1.7377   -0.8103 H   0  0  0  0  0  0  0  0  0  0  0  0
    1.1456    1.5562   -0.7563 H   0  0  0  0  0  0  0  0  0  0  0  0
    0.2039    0.2327   -2.1255 C   0  0  0  0  0  0  0  0  0  0  0  0
    0.6561   -0.9371   -2.1498 O   0  5  0  0  0  0  0  0  0  0  0  0
   -0.4245    0.7684   -3.0692 O   0  0  0  0  0  0  0  0  0  0  0  0
    0.3543    0.9009    1.7118 C   0  0  0  0  0  0  0  0  0  0  0  0
    1.4836    1.2837    2.0023 O   0  0  0  0  0  0  0  0  0  0  0  0
   -0.7087    1.3134    2.4955 N   0  0  0  0  0  0  0  0  0  0  0  0
   -1.5857    0.8402    2.2994 H   0  0  0  0  0  0  0  0  0  0  0  0
   -0.5454    1.9965    3.7695 C   0  0  0  0  0  0  0  0  0  0  0  0
    0.0031    2.9342    3.6336 H   0  0  0  0  0  0  0  0  0  0  0  0
   -1.5245    2.2293    4.1981 H   0  0  0  0  0  0  0  0  0  0  0  0
    0.0027    1.3631    4.4746 H   0  0  0  0  0  0  0  0  0  0  0  0
  1  2  1  0  0  0  0
  2  3  1  0  0  0  0
  2  4  1  0  0  0  0
  2  5  1  0  0  0  0
  5  6  2  0  0  0  0
  5  7  1  0  0  0  0
  7  8  1  0  0  0  0
  7  9  1  0  0  0  0
  9 10  1  0  0  0  0
  9 11  1  0  0  0  0
  9 17  1  0  0  0  0
 11 12  1  0  0  0  0
 11 13  1  0  0  0  0
 11 14  1  0  0  0  0
 14 15  1  0  0  0  0
 14 16  2  0  0  0  0
 17 18  2  0  0  0  0
 17 19  1  0  0  0  0
 19 20  1  0  0  0  0
 19 21  1  0  0  0  0
 21 22  1  0  0  0  0
 21 23  1  0  0  0  0
 21 24  1  0  0  0  0
M  CHG  1  15  -1
M  END
$$$$

  -OEChem-01062216073D

 24 23  0     1  0  0  0  0  0999 V2000
   -2.6983   -3.5044    0.7174 H   0  0  0  0  0  0  0  0  0  0  0  0
   -2.6185   -2.5446    0.1998 C   0  0  0  0  0  0  0  0  0  0  0  0
   -3.5908   -2.0465    0.2213 H   0  0  0  0  0  0  0  0  0  0  0  0
   -2.3344   -2.7295   -0.8399 H   0  0  0  0  0  0  0  0  0  0  0  0
   -1.5710   -1.6731    0.8679 C   0  0  0  0  0  0  0  0  0  0  0  0
   -1.0647   -2.0182    1.9251 O   0  0  0  0  0  0  0  0  0  0  0  0
   -1.2902   -0.4277    0.3560 N   0  0  0  0  0  0  0  0  0  0  0  0
   -1.7374   -0.2652   -0.5439 H   0  0  0  0  0  0  0  0  0  0  0  0
    0.0809    0.1047    0.4211 C   0  0  1  0  0  0  0  0  0  0  0  0
    0.8166   -0.7066    0.3715 H   0  0  0  0  0  0  0  0  0  0  0  0
    0.2011    1.0067   -0.8224 C   0  0  0  0  0  0  0  0  0  0  0  0
   -0.6066    1.7446   -0.8318 H   0  0  0  0  0  0  0  0  0  0  0  0
    1.1477    1.5517   -0.7798 H   0  0  0  0  0  0  0  0  0  0  0  0
    0.1968    0.2151   -2.1278 C   0  0  0  0  0  0  0  0  0  0  0  0
    0.6427   -0.9578   -2.1342 O   0  5  0  0  0  0  0  0  0  0  0  0
   -0.4286    0.7392   -3.0798 O   0  0  0  0  0  0  0  0  0  0  0  0
    0.3619    0.9072    1.7166 C   0  0  0  0  0  0  0  0  0  0  0  0
    1.4290    1.4879    1.8925 O   0  0  0  0  0  0  0  0  0  0  0  0
   -0.6363    1.0543    2.6632 N   0  0  0  0  0  0  0  0  0  0  0  0
   -1.3891    0.3759    2.5721 H   0  0  0  0  0  0  0  0  0  0  0  0
   -0.4219    1.6856    3.9561 C   0  0  0  0  0  0  0  0  0  0  0  0
   -0.0791    2.7174    3.8269 H   0  0  0  0  0  0  0  0  0  0  0  0
   -1.3570    1.7021    4.5235 H   0  0  0  0  0  0  0  0  0  0  0  0
    0.3265    1.1322    4.5323 H   0  0  0  0  0  0  0  0  0  0  0  0
  1  2  1  0  0  0  0
  2  3  1  0  0  0  0
  2  4  1  0  0  0  0
  2  5  1  0  0  0  0
  5  6  2  0  0  0  0
  5  7  1  0  0  0  0
  7  8  1  0  0  0  0
  7  9  1  0  0  0  0
  9 10  1  0  0  0  0
  9 11  1  0  0  0  0
  9 17  1  0  0  0  0
 11 12  1  0  0  0  0
 11 13  1  0  0  0  0
 11 14  1  0  0  0  0
 14 15  1  0  0  0  0
 14 16  2  0  0  0  0
 17 18  2  0  0  0  0
 17 19  1  0  0  0  0
 19 20  1  0  0  0  0
 19 21  1  0  0  0  0
 21 22  1  0  0  0  0
 21 23  1  0  0  0  0
 21 24  1  0  0  0  0
M  CHG  1  15  -1
M  END
$$$$

  -OEChem-01062216073D

 24 23  0     1  0  0  0  0  0999 V2000
   -2.7292   -3.4704    0.7232 H   0  0  0  0  0  0  0  0  0  0  0  0
   -2.6215   -2.5212    0.1914 C   0  0  0  0  0  0  0  0  0  0  0  0
   -3.5851   -2.0064    0.1831 H   0  0  0  0  0  0  0  0  0  0  0  0
   -2.3183   -2.7280   -0.8389 H   0  0  0  0  0  0  0  0  0  0  0  0
   -1.5741   -1.6560    0.8671 C   0  0  0  0  0  0  0  0  0  0  0  0
   -1.0725   -2.0046    1.9266 O   0  0  0  0  0  0  0  0  0  0  0  0
   -1.2891   -0.4087    0.3629 N   0  0  0  0  0  0  0  0  0  0  0  0
   -1.7459   -0.2341   -0.5298 H   0  0  0  0  0  0  0  0  0  0  0  0
    0.0823    0.1236    0.4212 C   0  0  1  0  0  0  0  0  0  0  0  0
    0.8155   -0.6896    0.3716 H   0  0  0  0  0  0  0  0  0  0  0  0
    0.1977    1.0117   -0.8341 C   0  0  0  0  0  0  0  0  0  0  0  0
   -0.6109    1.7484   -0.8489 H   0  0  0  0  0  0  0  0  0  0  0  0
    1.1439    1.5580   -0.8044 H   0  0  0  0  0  0  0  0  0  0  0  0
    0.1901    0.2027   -2.1290 C   0  0  0  0  0  0  0  0  0  0  0  0
    0.6378   -0.9699   -2.1204 O   0  5  0  0  0  0  0  0  0  0  0  0
   -0.4391    0.7123   -3.0864 O   0  0  0  0  0  0  0  0  0  0  0  0
    0.3706    0.9190    1.7218 C   0  0  0  0  0  0  0  0  0  0  0  0
    1.3202    1.6919    1.8134 O   0  0  0  0  0  0  0  0  0  0  0  0
   -0.4902    0.8020    2.7981 N   0  0  0  0  0  0  0  0  0  0  0  0
   -1.0848   -0.0266    2.7517 H   0  0  0  0  0  0  0  0  0  0  0  0
   -0.2212    1.3891    4.1017 C   0  0  0  0  0  0  0  0  0  0  0  0
   -0.0984    2.4735    4.0168 H   0  0  0  0  0  0  0  0  0  0  0  0
   -1.0556    1.1896    4.7805 H   0  0  0  0  0  0  0  0  0  0  0  0
    0.6896    0.9611    4.5324 H   0  0  0  0  0  0  0  0  0  0  0  0
  1  2  1  0  0  0  0
  2  3  1  0  0  0  0
  2  4  1  0  0  0  0
  2  5  1  0  0  0  0
  5  6  2  0  0  0  0
  5  7  1  0  0  0  0
  7  8  1  0  0  0  0
  7  9  1  0  0  0  0
  9 10  1  0  0  0  0
  9 11  1  0  0  0  0
  9 17  1  0  0  0  0
 11 12  1  0  0  0  0
 11 13  1  0  0  0  0
 11 14  1  0  0  0  0
 14 15  1  0  0  0  0
 14 16  2  0  0  0  0
 17 18  2  0  0  0  0
 17 19  1  0  0  0  0
 19 20  1  0  0  0  0
 19 21  1  0  0  0  0
 21 22  1  0  0  0  0
 21 23  1  0  0  0  0
 21 24  1  0  0  0  0
M  CHG  1  15  -1
M  END
$$$$

  -OEChem-01062216073D

 24 23  0     1  0  0  0  0  0999 V2000
   -2.7432   -3.4542    0.7267 H   0  0  0  0  0  0  0  0  0  0  0  0
   -2.6530   -2.4877    0.2237 C   0  0  0  0  0  0  0  0  0  0  0  0
   -3.6068   -1.9593    0.2950 H   0  0  0  0  0  0  0  0  0  0  0  0
   -2.4185   -2.6609   -0.8305 H   0  0  0  0  0  0  0  0  0  0  0  0
   -1.5515   -1.6625    0.8627 C   0  0  0  0  0  0  0  0  0  0  0  0
   -0.9937   -2.0603    1.8768 O   0  0  0  0  0  0  0  0  0  0  0  0
   -1.2656   -0.4110    0.3663 N   0  0  0  0  0  0  0  0  0  0  0  0
   -1.7477   -0.2109   -0.5072 H   0  0  0  0  0  0  0  0  0  0  0  0
    0.1008    0.1340    0.4184 C   0  0  1  0  0  0  0  0  0  0  0  0
    0.8395   -0.6740    0.3687 H   0  0  0  0  0  0  0  0  0  0  0  0
    0.2088    1.0153   -0.8436 C   0  0  0  0  0  0  0  0  0  0  0  0
   -0.6047    1.7464   -0.8626 H   0  0  0  0  0  0  0  0  0  0  0  0
    1.1510    1.5685   -0.8183 H   0  0  0  0  0  0  0  0  0  0  0  0
    0.2080    0.1999   -2.1343 C   0  0  0  0  0  0  0  0  0  0  0  0
    0.6657   -0.9688   -2.1195 O   0  5  0  0  0  0  0  0  0  0  0  0
   -0.4195    0.7015   -3.0971 O   0  0  0  0  0  0  0  0  0  0  0  0
    0.3839    0.9262    1.7232 C   0  0  0  0  0  0  0  0  0  0  0  0
    1.1588    1.8780    1.7614 O   0  0  0  0  0  0  0  0  0  0  0  0
   -0.2710    0.5695    2.8876 N   0  0  0  0  0  0  0  0  0  0  0  0
   -0.7321   -0.3427    2.8438 H   0  0  0  0  0  0  0  0  0  0  0  0
    0.0259    1.1438    4.1905 C   0  0  0  0  0  0  0  0  0  0  0  0
   -0.1111    2.2297    4.1712 H   0  0  0  0  0  0  0  0  0  0  0  0
   -0.6465    0.7251    4.9449 H   0  0  0  0  0  0  0  0  0  0  0  0
    1.0577    0.9206    4.4798 H   0  0  0  0  0  0  0  0  0  0  0  0
  1  2  1  0  0  0  0
  2  3  1  0  0  0  0
  2  4  1  0  0  0  0
  2  5  1  0  0  0  0
  5  6  2  0  0  0  0
  5  7  1  0  0  0  0
  7  8  1  0  0  0  0
  7  9  1  0  0  0  0
  9 10  1  0  0  0  0
  9 11  1  0  0  0  0
  9 17  1  0  0  0  0
 11 12  1  0  0  0  0
 11 13  1  0  0  0  0
 11 14  1  0  0  0  0
 14 15  1  0  0  0  0
 14 16  2  0  0  0  0
 17 18  2  0  0  0  0
 17 19  1  0  0  0  0
 19 20  1  0  0  0  0
 19 21  1  0  0  0  0
 21 22  1  0  0  0  0
 21 23  1  0  0  0  0
 21 24  1  0  0  0  0
M  CHG  1  15  -1
M  END
$$$$

  -OEChem-01062216073D

 24 23  0     1  0  0  0  0  0999 V2000
   -2.7609   -3.4291    0.7684 H   0  0  0  0  0  0  0  0  0  0  0  0
   -2.6804   -2.4542    0.2801 C   0  0  0  0  0  0  0  0  0  0  0  0
   -3.6133   -1.9050    0.4277 H   0  0  0  0  0  0  0  0  0  0  0  0
   -2.5233   -2.6099   -0.7909 H   0  0  0  0  0  0  0  0  0  0  0  0
   -1.5178   -1.6698    0.8604 C   0  0  0  0  0  0  0  0  0  0  0  0
   -0.8978   -2.1143    1.8182 O   0  0  0  0  0  0  0  0  0  0  0  0
   -1.2346   -0.4148    0.3685 N   0  0  0  0  0  0  0  0  0  0  0  0
   -1.7461   -0.1886   -0.4811 H   0  0  0  0  0  0  0  0  0  0  0  0
    0.1277    0.1391    0.4089 C   0  0  1  0  0  0  0  0  0  0  0  0
    0.8719   -0.6637    0.3541 H   0  0  0  0  0  0  0  0  0  0  0  0
    0.2270    1.0200   -0.8542 C   0  0  0  0  0  0  0  0  0  0  0  0
   -0.5897    1.7476   -0.8701 H   0  0  0  0  0  0  0  0  0  0  0  0
    1.1673    1.5769   -0.8310 H   0  0  0  0  0  0  0  0  0  0  0  0
    0.2253    0.2062   -2.1460 C   0  0  0  0  0  0  0  0  0  0  0  0
    0.6886   -0.9604   -2.1337 O   0  5  0  0  0  0  0  0  0  0  0  0
   -0.4003    0.7088   -3.1097 O   0  0  0  0  0  0  0  0  0  0  0  0
    0.4072    0.9264    1.7172 C   0  0  0  0  0  0  0  0  0  0  0  0
    0.9658    2.0200    1.7323 O   0  0  0  0  0  0  0  0  0  0  0  0
    0.0161    0.3792    2.9245 N   0  0  0  0  0  0  0  0  0  0  0  0
   -0.3496   -0.5757    2.8704 H   0  0  0  0  0  0  0  0  0  0  0  0
    0.3099    0.9609    4.2244 C   0  0  0  0  0  0  0  0  0  0  0  0
   -0.1189    1.9652    4.3000 H   0  0  0  0  0  0  0  0  0  0  0  0
   -0.1196    0.3412    5.0170 H   0  0  0  0  0  0  0  0  0  0  0  0
    1.3918    1.0233    4.3785 H   0  0  0  0  0  0  0  0  0  0  0  0
  1  2  1  0  0  0  0
  2  3  1  0  0  0  0
  2  4  1  0  0  0  0
  2  5  1  0  0  0  0
  5  6  2  0  0  0  0
  5  7  1  0  0  0  0
  7  8  1  0  0  0  0
  7  9  1  0  0  0  0
  9 10  1  0  0  0  0
  9 11  1  0  0  0  0
  9 17  1  0  0  0  0
 11 12  1  0  0  0  0
 11 13  1  0  0  0  0
 11 14  1  0  0  0  0
 14 15  1  0  0  0  0
 14 16  2  0  0  0  0
 17 18  2  0  0  0  0
 17 19  1  0  0  0  0
 19 20  1  0  0  0  0
 19 21  1  0  0  0  0
 21 22  1  0  0  0  0
 21 23  1  0  0  0  0
 21 24  1  0  0  0  0
M  CHG  1  15  -1
M  END
$$$$

  -OEChem-01062216073D

 24 23  0     1  0  0  0  0  0999 V2000
   -2.7670   -3.3848    0.8401 H   0  0  0  0  0  0  0  0  0  0  0  0
   -2.6792   -2.4156    0.3416 C   0  0  0  0  0  0  0  0  0  0  0  0
   -3.5970   -1.8464    0.5074 H   0  0  0  0  0  0  0  0  0  0  0  0
   -2.5520   -2.5825   -0.7316 H   0  0  0  0  0  0  0  0  0  0  0  0
   -1.4861   -1.6510    0.8852 C   0  0  0  0  0  0  0  0  0  0  0  0
   -0.8263   -2.1200    1.8045 O   0  0  0  0  0  0  0  0  0  0  0  0
   -1.2036   -0.3974    0.3890 N   0  0  0  0  0  0  0  0  0  0  0  0
   -1.7425   -0.1552   -0.4389 H   0  0  0  0  0  0  0  0  0  0  0  0
    0.1651    0.1376    0.3928 C   0  0  1  0  0  0  0  0  0  0  0  0
    0.8983   -0.6734    0.3164 H   0  0  0  0  0  0  0  0  0  0  0  0
    0.2503    1.0204   -0.8694 C   0  0  0  0  0  0  0  0  0  0  0  0
   -0.5564    1.7594   -0.8656 H   0  0  0  0  0  0  0  0  0  0  0  0
    1.1989    1.5635   -0.8618 H   0  0  0  0  0  0  0  0  0  0  0  0
    0.2066    0.2112   -2.1634 C   0  0  0  0  0  0  0  0  0  0  0  0
    0.6516   -0.9626   -2.1639 O   0  5  0  0  0  0  0  0  0  0  0  0
   -0.4227    0.7296   -3.1161 O   0  0  0  0  0  0  0  0  0  0  0  0
    0.4786    0.9126    1.6987 C   0  0  0  0  0  0  0  0  0  0  0  0
    0.7963    2.0989    1.7169 O   0  0  0  0  0  0  0  0  0  0  0  0
    0.3977    0.2372    2.9012 N   0  0  0  0  0  0  0  0  0  0  0  0
    0.0549   -0.7261    2.8402 H   0  0  0  0  0  0  0  0  0  0  0  0
    0.5994    0.8478    4.2052 C   0  0  0  0  0  0  0  0  0  0  0  0
   -0.1549    1.6201    4.3860 H   0  0  0  0  0  0  0  0  0  0  0  0
    0.5168    0.0900    4.9897 H   0  0  0  0  0  0  0  0  0  0  0  0
    1.5942    1.3006    4.2657 H   0  0  0  0  0  0  0  0  0  0  0  0
  1  2  1  0  0  0  0
  2  3  1  0  0  0  0
  2  4  1  0  0  0  0
  2  5  1  0  0  0  0
  5  6  2  0  0  0  0
  5  7  1  0  0  0  0
  7  8  1  0  0  0  0
  7  9  1  0  0  0  0
  9 10  1  0  0  0  0
  9 11  1  0  0  0  0
  9 17  1  0  0  0  0
 11 12  1  0  0  0  0
 11 13  1  0  0  0  0
 11 14  1  0  0  0  0
 14 15  1  0  0  0  0
 14 16  2  0  0  0  0
 17 18  2  0  0  0  0
 17 19  1  0  0  0  0
 19 20  1  0  0  0  0
 19 21  1  0  0  0  0
 21 22  1  0  0  0  0
 21 23  1  0  0  0  0
 21 24  1  0  0  0  0
M  CHG  1  15  -1
M  END
$$$$

  -OEChem-01062216073D

 24 23  0     1  0  0  0  0  0999 V2000
   -2.7368   -3.3576    0.9375 H   0  0  0  0  0  0  0  0  0  0  0  0
   -2.6673   -2.3936    0.4264 C   0  0  0  0  0  0  0  0  0  0  0  0
   -3.5726   -1.8171    0.6318 H   0  0  0  0  0  0  0  0  0  0  0  0
   -2.5930   -2.5707   -0.6500 H   0  0  0  0  0  0  0  0  0  0  0  0
   -1.4454   -1.6313    0.9055 C   0  0  0  0  0  0  0  0  0  0  0  0
   -0.7434   -2.0961    1.7963 O   0  0  0  0  0  0  0  0  0  0  0  0
   -1.1803   -0.3818    0.3896 N   0  0  0  0  0  0  0  0  0  0  0  0
   -1.7385   -0.1410   -0.4254 H   0  0  0  0  0  0  0  0  0  0  0  0
    0.1878    0.1486    0.3706 C   0  0  1  0  0  0  0  0  0  0  0  0
    0.9214   -0.6620    0.2900 H   0  0  0  0  0  0  0  0  0  0  0  0
    0.2707    1.0301   -0.8922 C   0  0  0  0  0  0  0  0  0  0  0  0
   -0.5328    1.7728   -0.8838 H   0  0  0  0  0  0  0  0  0  0  0  0
    1.2216    1.5691   -0.8876 H   0  0  0  0  0  0  0  0  0  0  0  0
    0.2117    0.2224   -2.1863 C   0  0  0  0  0  0  0  0  0  0  0  0
    0.6480   -0.9548   -2.1897 O   0  5  0  0  0  0  0  0  0  0  0  0
   -0.4064    0.7509   -3.1407 O   0  0  0  0  0  0  0  0  0  0  0  0
    0.4993    0.9299    1.6699 C   0  0  0  0  0  0  0  0  0  0  0  0
    0.5696    2.1554    1.7194 O   0  0  0  0  0  0  0  0  0  0  0  0
    0.7279    0.2010    2.8211 N   0  0  0  0  0  0  0  0  0  0  0  0
    0.4558   -0.7844    2.7573 H   0  0  0  0  0  0  0  0  0  0  0  0
    0.8977    0.8000    4.1351 C   0  0  0  0  0  0  0  0  0  0  0  0
   -0.0071    1.3419    4.4276 H   0  0  0  0  0  0  0  0  0  0  0  0
    1.0940    0.0211    4.8779 H   0  0  0  0  0  0  0  0  0  0  0  0
    1.7434    1.4950    4.1327 H   0  0  0  0  0  0  0  0  0  0  0  0
  1  2  1  0  0  0  0
  2  3  1  0  0  0  0
  2  4  1  0  0  0  0
  2  5  1  0  0  0  0
  5  6  2  0  0  0  0
  5  7  1  0  0  0  0
  7  8  1  0  0  0  0
  7  9  1  0  0  0  0
  9 10  1  0  0  0  0
  9 11  1  0  0  0  0
  9 17  1  0  0  0  0
 11 12  1  0  0  0  0
 11 13  1  0  0  0  0
 11 14  1  0  0  0  0
 14 15  1  0  0  0  0
 14 16  2  0  0  0  0
 17 18  2  0  0  0  0
 17 19  1  0  0  0  0
 19 20  1  0  0  0  0
 19 21  1  0  0  0  0
 21 22  1  0  0  0  0
 21 23  1  0  0  0  0
 21 24  1  0  0  0  0
M  CHG  1  15  -1
M  END
$$$$

  -OEChem-01062216073D

 24 23  0     1  0  0  0  0  0999 V2000
   -2.6903   -3.3598    0.9638 H   0  0  0  0  0  0  0  0  0  0  0  0
   -2.6502   -2.3901    0.4605 C   0  0  0  0  0  0  0  0  0  0  0  0
   -3.5615   -1.8328    0.6900 H   0  0  0  0  0  0  0  0  0  0  0  0
   -2.5949   -2.5557   -0.6189 H   0  0  0  0  0  0  0  0  0  0  0  0
   -1.4335   -1.6085    0.9212 C   0  0  0  0  0  0  0  0  0  0  0  0
   -0.7087   -2.0600    1.8012 O   0  0  0  0  0  0  0  0  0  0  0  0
   -1.1834   -0.3640    0.3868 N   0  0  0  0  0  0  0  0  0  0  0  0
   -1.7474   -0.1316   -0.4265 H   0  0  0  0  0  0  0  0  0  0  0  0
    0.1838    0.1621    0.3618 C   0  0  1  0  0  0  0  0  0  0  0  0
    0.9174   -0.6490    0.2860 H   0  0  0  0  0  0  0  0  0  0  0  0
    0.2741    1.0364   -0.9046 C   0  0  0  0  0  0  0  0  0  0  0  0
   -0.5273    1.7813   -0.9036 H   0  0  0  0  0  0  0  0  0  0  0  0
    1.2264    1.5724   -0.8985 H   0  0  0  0  0  0  0  0  0  0  0  0
    0.2142    0.2215   -2.1945 C   0  0  0  0  0  0  0  0  0  0  0  0
    0.6449   -0.9578   -2.1891 O   0  5  0  0  0  0  0  0  0  0  0  0
   -0.3891    0.7506   -3.1580 O   0  0  0  0  0  0  0  0  0  0  0  0
    0.4884    0.9553    1.6531 C   0  0  0  0  0  0  0  0  0  0  0  0
    0.3238    2.1691    1.7495 O   0  0  0  0  0  0  0  0  0  0  0  0
    1.0161    0.2591    2.7239 N   0  0  0  0  0  0  0  0  0  0  0  0
    0.8764   -0.7518    2.6668 H   0  0  0  0  0  0  0  0  0  0  0  0
    1.2192    0.8561    4.0346 C   0  0  0  0  0  0  0  0  0  0  0  0
    0.2630    1.1763    4.4603 H   0  0  0  0  0  0  0  0  0  0  0  0
    1.6763    0.1278    4.7107 H   0  0  0  0  0  0  0  0  0  0  0  0
    1.8841    1.7228    3.9624 H   0  0  0  0  0  0  0  0  0  0  0  0
  1  2  1  0  0  0  0
  2  3  1  0  0  0  0
  2  4  1  0  0  0  0
  2  5  1  0  0  0  0
  5  6  2  0  0  0  0
  5  7  1  0  0  0  0
  7  8  1  0  0  0  0
  7  9  1  0  0  0  0
  9 10  1  0  0  0  0
  9 11  1  0  0  0  0
  9 17  1  0  0  0  0
 11 12  1  0  0  0  0
 11 13  1  0  0  0  0
 11 14  1  0  0  0  0
 14 15  1  0  0  0  0
 14 16  2  0  0  0  0
 17 18  2  0  0  0  0
 17 19  1  0  0  0  0
 19 20  1  0  0  0  0
 19 21  1  0  0  0  0
 21 22  1  0  0  0  0
 21 23  1  0  0  0  0
 21 24  1  0  0  0  0
M  CHG  1  15  -1
M  END
$$$$

  -OEChem-01062216073D

 24 23  0     1  0  0  0  0  0999 V2000
   -2.7100   -3.3590    1.0021 H   0  0  0  0  0  0  0  0  0  0  0  0
   -2.6662   -2.3970    0.4844 C   0  0  0  0  0  0  0  0  0  0  0  0
   -3.5653   -1.8242    0.7241 H   0  0  0  0  0  0  0  0  0  0  0  0
   -2.6343   -2.5781   -0.5934 H   0  0  0  0  0  0  0  0  0  0  0  0
   -1.4308   -1.6256    0.9118 C   0  0  0  0  0  0  0  0  0  0  0  0
   -0.6847   -2.0872    1.7674 O   0  0  0  0  0  0  0  0  0  0  0  0
   -1.1870   -0.3820    0.3728 N   0  0  0  0  0  0  0  0  0  0  0  0
   -1.7632   -0.1407   -0.4285 H   0  0  0  0  0  0  0  0  0  0  0  0
    0.1723    0.1628    0.3566 C   0  0  1  0  0  0  0  0  0  0  0  0
    0.9136   -0.6413    0.2852 H   0  0  0  0  0  0  0  0  0  0  0  0
    0.2713    1.0437   -0.9043 C   0  0  0  0  0  0  0  0  0  0  0  0
   -0.5385    1.7796   -0.9094 H   0  0  0  0  0  0  0  0  0  0  0  0
    1.2175    1.5903   -0.8817 H   0  0  0  0  0  0  0  0  0  0  0  0
    0.2367    0.2382   -2.2006 C   0  0  0  0  0  0  0  0  0  0  0  0
    0.6784   -0.9370   -2.1979 O   0  5  0  0  0  0  0  0  0  0  0  0
   -0.3402    0.7764   -3.1753 O   0  0  0  0  0  0  0  0  0  0  0  0
    0.4643    0.9707    1.6412 C   0  0  0  0  0  0  0  0  0  0  0  0
    0.0440    2.1125    1.8136 O   0  0  0  0  0  0  0  0  0  0  0  0
    1.2738    0.3996    2.6055 N   0  0  0  0  0  0  0  0  0  0  0  0
    1.3752   -0.6108    2.5236 H   0  0  0  0  0  0  0  0  0  0  0  0
    1.5145    1.0150    3.9018 C   0  0  0  0  0  0  0  0  0  0  0  0
    0.5772    1.1088    4.4596 H   0  0  0  0  0  0  0  0  0  0  0  0
    2.2078    0.4016    4.4846 H   0  0  0  0  0  0  0  0  0  0  0  0
    1.9555    2.0095    3.7785 H   0  0  0  0  0  0  0  0  0  0  0  0
  1  2  1  0  0  0  0
  2  3  1  0  0  0  0
  2  4  1  0  0  0  0
  2  5  1  0  0  0  0
  5  6  2  0  0  0  0
  5  7  1  0  0  0  0
  7  8  1  0  0  0  0
  7  9  1  0  0  0  0
  9 10  1  0  0  0  0
  9 11  1  0  0  0  0
  9 17  1  0  0  0  0
 11 12  1  0  0  0  0
 11 13  1  0  0  0  0
 11 14  1  0  0  0  0
 14 15  1  0  0  0  0
 14 16  2  0  0  0  0
 17 18  2  0  0  0  0
 17 19  1  0  0  0  0
 19 20  1  0  0  0  0
 19 21  1  0  0  0  0
 21 22  1  0  0  0  0
 21 23  1  0  0  0  0
 21 24  1  0  0  0  0
M  CHG  1  15  -1
M  END
$$$$

  -OEChem-01062216073D

 24 23  0     1  0  0  0  0  0999 V2000
   -2.7275   -3.3716    1.0008 H   0  0  0  0  0  0  0  0  0  0  0  0
   -2.6862   -2.4054    0.4908 C   0  0  0  0  0  0  0  0  0  0  0  0
   -3.5776   -1.8289    0.7495 H   0  0  0  0  0  0  0  0  0  0  0  0
   -2.6718   -2.5770   -0.5889 H   0  0  0  0  0  0  0  0  0  0  0  0
   -1.4393   -1.6457    0.9055 C   0  0  0  0  0  0  0  0  0  0  0  0
   -0.6847   -2.1205    1.7452 O   0  0  0  0  0  0  0  0  0  0  0  0
   -1.1930   -0.4038    0.3648 N   0  0  0  0  0  0  0  0  0  0  0  0
   -1.7818   -0.1475   -0.4218 H   0  0  0  0  0  0  0  0  0  0  0  0
    0.1574    0.1631    0.3602 C   0  0  1  0  0  0  0  0  0  0  0  0
    0.9061   -0.6346    0.2987 H   0  0  0  0  0  0  0  0  0  0  0  0
    0.2624    1.0452   -0.8984 C   0  0  0  0  0  0  0  0  0  0  0  0
   -0.5574    1.7697   -0.9137 H   0  0  0  0  0  0  0  0  0  0  0  0
    1.2004    1.6047   -0.8620 H   0  0  0  0  0  0  0  0  0  0  0  0
    0.2574    0.2434   -2.1972 C   0  0  0  0  0  0  0  0  0  0  0  0
    0.7151   -0.9255   -2.1916 O   0  5  0  0  0  0  0  0  0  0  0  0
   -0.2971    0.7838   -3.1834 O   0  0  0  0  0  0  0  0  0  0  0  0
    0.4398    0.9888    1.6353 C   0  0  0  0  0  0  0  0  0  0  0  0
   -0.2019    1.9990    1.9143 O   0  0  0  0  0  0  0  0  0  0  0  0
    1.4814    0.6068    2.4611 N   0  0  0  0  0  0  0  0  0  0  0  0
    1.8483   -0.3263    2.2924 H   0  0  0  0  0  0  0  0  0  0  0  0
    1.7547    1.2415    3.7414 C   0  0  0  0  0  0  0  0  0  0  0  0
    0.9047    1.1141    4.4193 H   0  0  0  0  0  0  0  0  0  0  0  0
    2.6388    0.7909    4.2019 H   0  0  0  0  0  0  0  0  0  0  0  0
    1.9441    2.3112    3.6061 H   0  0  0  0  0  0  0  0  0  0  0  0
  1  2  1  0  0  0  0
  2  3  1  0  0  0  0
  2  4  1  0  0  0  0
  2  5  1  0  0  0  0
  5  6  2  0  0  0  0
  5  7  1  0  0  0  0
  7  8  1  0  0  0  0
  7  9  1  0  0  0  0
  9 10  1  0  0  0  0
  9 11  1  0  0  0  0
  9 17  1  0  0  0  0
 11 12  1  0  0  0  0
 11 13  1  0  0  0  0
 11 14  1  0  0  0  0
 14 15  1  0  0  0  0
 14 16  2  0  0  0  0
 17 18  2  0  0  0  0
 17 19  1  0  0  0  0
 19 20  1  0  0  0  0
 19 21  1  0  0  0  0
 21 22  1  0  0  0  0
 21 23  1  0  0  0  0
 21 24  1  0  0  0  0
M  CHG  1  15  -1
M  END
$$$$

  -OEChem-01062216073D

 24 23  0     1  0  0  0  0  0999 V2000
   -2.7498   -3.3976    0.9849 H   0  0  0  0  0  0  0  0  0  0  0  0
   -2.7102   -2.4241    0.4885 C   0  0  0  0  0  0  0  0  0  0  0  0
   -3.5927   -1.8456    0.7717 H   0  0  0  0  0  0  0  0  0  0  0  0
   -2.7167   -2.5805   -0.5935 H   0  0  0  0  0  0  0  0  0  0  0  0
   -1.4508   -1.6789    0.8926 C   0  0  0  0  0  0  0  0  0  0  0  0
   -0.6903   -2.1708    1.7160 O   0  0  0  0  0  0  0  0  0  0  0  0
   -1.2009   -0.4357    0.3565 N   0  0  0  0  0  0  0  0  0  0  0  0
   -1.8026   -0.1588   -0.4125 H   0  0  0  0  0  0  0  0  0  0  0  0
    0.1399    0.1556    0.3717 C   0  0  1  0  0  0  0  0  0  0  0  0
    0.8986   -0.6336    0.3210 H   0  0  0  0  0  0  0  0  0  0  0  0
    0.2533    1.0465   -0.8797 C   0  0  0  0  0  0  0  0  0  0  0  0
   -0.5777    1.7579   -0.9031 H   0  0  0  0  0  0  0  0  0  0  0  0
    1.1814    1.6209   -0.8240 H   0  0  0  0  0  0  0  0  0  0  0  0
    0.2838    0.2574   -2.1854 C   0  0  0  0  0  0  0  0  0  0  0  0
    0.7594   -0.9041   -2.1826 O   0  5  0  0  0  0  0  0  0  0  0  0
   -0.2455    0.8062   -3.1808 O   0  0  0  0  0  0  0  0  0  0  0  0
    0.4057    0.9942    1.6417 C   0  0  0  0  0  0  0  0  0  0  0  0
   -0.3958    1.8331    2.0470 O   0  0  0  0  0  0  0  0  0  0  0  0
    1.6095    0.8442    2.3070 N   0  0  0  0  0  0  0  0  0  0  0  0
    2.1894    0.0647    2.0105 H   0  0  0  0  0  0  0  0  0  0  0  0
    1.9290    1.5276    3.5510 C   0  0  0  0  0  0  0  0  0  0  0  0
    1.2240    1.2386    4.3370 H   0  0  0  0  0  0  0  0  0  0  0  0
    2.9396    1.2632    3.8753 H   0  0  0  0  0  0  0  0  0  0  0  0
    1.8833    2.6129    3.4144 H   0  0  0  0  0  0  0  0  0  0  0  0
  1  2  1  0  0  0  0
  2  3  1  0  0  0  0
  2  4  1  0  0  0  0
  2  5  1  0  0  0  0
  5  6  2  0  0  0  0
  5  7  1  0  0  0  0
  7  8  1  0  0  0  0
  7  9  1  0  0  0  0
  9 10  1  0  0  0  0
  9 11  1  0  0  0  0
  9 17  1  0  0  0  0
 11 12  1  0  0  0  0
 11 13  1  0  0  0  0
 11 14  1  0  0  0  0
 14 15  1  0  0  0  0
 14 16  2  0  0  0  0
 17 18  2  0  0  0  0
 17 19  1  0  0  0  0
 19 20  1  0  0  0  0
 19 21  1  0  0  0  0
 21 22  1  0  0  0  0
 21 23  1  0  0  0  0
 21 24  1  0  0  0  0
M  CHG  1  15  -1
M  END
$$$$

  -OEChem-01062216073D

 24 23  0     1  0  0  0  0  0999 V2000
   -2.7640   -3.4262    0.9507 H   0  0  0  0  0  0  0  0  0  0  0  0
   -2.7258   -2.4442    0.4715 C   0  0  0  0  0  0  0  0  0  0  0  0
   -3.6055   -1.8694    0.7705 H   0  0  0  0  0  0  0  0  0  0  0  0
   -2.7397   -2.5810   -0.6131 H   0  0  0  0  0  0  0  0  0  0  0  0
   -1.4626   -1.7084    0.8812 C   0  0  0  0  0  0  0  0  0  0  0  0
   -0.6998   -2.2171    1.6917 O   0  0  0  0  0  0  0  0  0  0  0  0
   -1.2093   -0.4621    0.3537 N   0  0  0  0  0  0  0  0  0  0  0  0
   -1.8129   -0.1734   -0.4091 H   0  0  0  0  0  0  0  0  0  0  0  0
    0.1252    0.1436    0.3926 C   0  0  1  0  0  0  0  0  0  0  0  0
    0.8918   -0.6382    0.3487 H   0  0  0  0  0  0  0  0  0  0  0  0
    0.2425    1.0459   -0.8503 C   0  0  0  0  0  0  0  0  0  0  0  0
   -0.5959    1.7483   -0.8764 H   0  0  0  0  0  0  0  0  0  0  0  0
    1.1634    1.6304   -0.7805 H   0  0  0  0  0  0  0  0  0  0  0  0
    0.2984    0.2722   -2.1639 C   0  0  0  0  0  0  0  0  0  0  0  0
    0.7882   -0.8830   -2.1691 O   0  5  0  0  0  0  0  0  0  0  0  0
   -0.2210    0.8294   -3.1599 O   0  0  0  0  0  0  0  0  0  0  0  0
    0.3768    0.9870    1.6630 C   0  0  0  0  0  0  0  0  0  0  0  0
   -0.5139    1.6388    2.2033 O   0  0  0  0  0  0  0  0  0  0  0  0
    1.6657    1.0871    2.1560 N   0  0  0  0  0  0  0  0  0  0  0  0
    2.3682    0.5029    1.7124 H   0  0  0  0  0  0  0  0  0  0  0  0
    2.0200    1.8495    3.3435 C   0  0  0  0  0  0  0  0  0  0  0  0
    1.5008    1.4520    4.2214 H   0  0  0  0  0  0  0  0  0  0  0  0
    3.0978    1.7893    3.5203 H   0  0  0  0  0  0  0  0  0  0  0  0
    1.7486    2.9025    3.2173 H   0  0  0  0  0  0  0  0  0  0  0  0
  1  2  1  0  0  0  0
  2  3  1  0  0  0  0
  2  4  1  0  0  0  0
  2  5  1  0  0  0  0
  5  6  2  0  0  0  0
  5  7  1  0  0  0  0
  7  8  1  0  0  0  0
  7  9  1  0  0  0  0
  9 10  1  0  0  0  0
  9 11  1  0  0  0  0
  9 17  1  0  0  0  0
 11 12  1  0  0  0  0
 11 13  1  0  0  0  0
 11 14  1  0  0  0  0
 14 15  1  0  0  0  0
 14 16  2  0  0  0  0
 17 18  2  0  0  0  0
 17 19  1  0  0  0  0
 19 20  1  0  0  0  0
 19 21  1  0  0  0  0
 21 22  1  0  0  0  0
 21 23  1  0  0  0  0
 21 24  1  0  0  0  0
M  CHG  1  15  -1
M  END
$$$$

  -OEChem-01062216073D

 24 23  0     1  0  0  0  0  0999 V2000
   -2.7835   -3.4334    0.9552 H   0  0  0  0  0  0  0  0  0  0  0  0
   -2.7277   -2.4615    0.4574 C   0  0  0  0  0  0  0  0  0  0  0  0
   -3.6059   -1.8722    0.7317 H   0  0  0  0  0  0  0  0  0  0  0  0
   -2.7257   -2.6194   -0.6242 H   0  0  0  0  0  0  0  0  0  0  0  0
   -1.4634   -1.7305    0.8719 C   0  0  0  0  0  0  0  0  0  0  0  0
   -0.6954   -2.2533    1.6683 O   0  0  0  0  0  0  0  0  0  0  0  0
   -1.2121   -0.4793    0.3541 N   0  0  0  0  0  0  0  0  0  0  0  0
   -1.8161   -0.1854   -0.4061 H   0  0  0  0  0  0  0  0  0  0  0  0
    0.1175    0.1365    0.4102 C   0  0  1  0  0  0  0  0  0  0  0  0
    0.8916   -0.6379    0.3662 H   0  0  0  0  0  0  0  0  0  0  0  0
    0.2263    1.0491   -0.8277 C   0  0  0  0  0  0  0  0  0  0  0  0
   -0.6216    1.7402   -0.8505 H   0  0  0  0  0  0  0  0  0  0  0  0
    1.1387    1.6461   -0.7556 H   0  0  0  0  0  0  0  0  0  0  0  0
    0.2946    0.2877   -2.1477 C   0  0  0  0  0  0  0  0  0  0  0  0
    0.7985   -0.8609   -2.1627 O   0  5  0  0  0  0  0  0  0  0  0  0
   -0.2249    0.8505   -3.1404 O   0  0  0  0  0  0  0  0  0  0  0  0
    0.3616    0.9789    1.6844 C   0  0  0  0  0  0  0  0  0  0  0  0
   -0.5569    1.4252    2.3680 O   0  0  0  0  0  0  0  0  0  0  0  0
    1.6586    1.3424    2.0033 N   0  0  0  0  0  0  0  0  0  0  0  0
    2.3953    0.9671    1.4133 H   0  0  0  0  0  0  0  0  0  0  0  0
    2.0124    2.1684    3.1475 C   0  0  0  0  0  0  0  0  0  0  0  0
    1.6858    1.6919    4.0774 H   0  0  0  0  0  0  0  0  0  0  0  0
    3.0969    2.3052    3.1902 H   0  0  0  0  0  0  0  0  0  0  0  0
    1.5419    3.1536    3.0677 H   0  0  0  0  0  0  0  0  0  0  0  0
  1  2  1  0  0  0  0
  2  3  1  0  0  0  0
  2  4  1  0  0  0  0
  2  5  1  0  0  0  0
  5  6  2  0  0  0  0
  5  7  1  0  0  0  0
  7  8  1  0  0  0  0
  7  9  1  0  0  0  0
  9 10  1  0  0  0  0
  9 11  1  0  0  0  0
  9 17  1  0  0  0  0
 11 12  1  0  0  0  0
 11 13  1  0  0  0  0
 11 14  1  0  0  0  0
 14 15  1  0  0  0  0
 14 16  2  0  0  0  0
 17 18  2  0  0  0  0
 17 19  1  0  0  0  0
 19 20  1  0  0  0  0
 19 21  1  0  0  0  0
 21 22  1  0  0  0  0
 21 23  1  0  0  0  0
 21 24  1  0  0  0  0
M  CHG  1  15  -1
M  END
$$$$

  -OEChem-01062216073D

 24 23  0     1  0  0  0  0  0999 V2000
   -2.8280   -3.4284    0.9328 H   0  0  0  0  0  0  0  0  0  0  0  0
   -2.7901   -2.4144    0.5255 C   0  0  0  0  0  0  0  0  0  0  0  0
   -3.5781   -1.8170    0.9904 H   0  0  0  0  0  0  0  0  0  0  0  0
   -2.9641   -2.4607   -0.5526 H   0  0  0  0  0  0  0  0  0  0  0  0
   -1.4354   -1.7873    0.8032 C   0  0  0  0  0  0  0  0  0  0  0  0
   -0.5930   -2.4239    1.4207 O   0  0  0  0  0  0  0  0  0  0  0  0
   -1.1702   -0.5252    0.3179 N   0  0  0  0  0  0  0  0  0  0  0  0
   -1.8380   -0.1359   -0.3390 H   0  0  0  0  0  0  0  0  0  0  0  0
    0.1526    0.1040    0.3917 C   0  0  1  0  0  0  0  0  0  0  0  0
    0.9195   -0.6139    0.0803 H   0  0  0  0  0  0  0  0  0  0  0  0
    0.1123    1.2907   -0.5960 C   0  0  0  0  0  0  0  0  0  0  0  0
   -0.7423    1.9328   -0.3624 H   0  0  0  0  0  0  0  0  0  0  0  0
    1.0176    1.8913   -0.4839 H   0  0  0  0  0  0  0  0  0  0  0  0
    0.0462    0.8717   -2.0609 C   0  0  0  0  0  0  0  0  0  0  0  0
    0.5611   -0.2183   -2.4068 O   0  5  0  0  0  0  0  0  0  0  0  0
   -0.5821    1.6387   -2.8283 O   0  0  0  0  0  0  0  0  0  0  0  0
    0.5359    0.6154    1.8051 C   0  0  0  0  0  0  0  0  0  0  0  0
   -0.2654    0.6556    2.7359 O   0  0  0  0  0  0  0  0  0  0  0  0
    1.7672    1.2235    1.9850 N   0  0  0  0  0  0  0  0  0  0  0  0
    2.3893    1.2378    1.1824 H   0  0  0  0  0  0  0  0  0  0  0  0
    2.1950    1.8440    3.2297 C   0  0  0  0  0  0  0  0  0  0  0  0
    2.1715    1.1165    4.0474 H   0  0  0  0  0  0  0  0  0  0  0  0
    3.2178    2.2189    3.1295 H   0  0  0  0  0  0  0  0  0  0  0  0
    1.5404    2.6841    3.4824 H   0  0  0  0  0  0  0  0  0  0  0  0
  1  2  1  0  0  0  0
  2  3  1  0  0  0  0
  2  4  1  0  0  0  0
  2  5  1  0  0  0  0
  5  6  2  0  0  0  0
  5  7  1  0  0  0  0
  7  8  1  0  0  0  0
  7  9  1  0  0  0  0
  9 10  1  0  0  0  0
  9 11  1  0  0  0  0
  9 17  1  0  0  0  0
 11 12  1  0  0  0  0
 11 13  1  0  0  0  0
 11 14  1  0  0  0  0
 14 15  1  0  0  0  0
 14 16  2  0  0  0  0
 17 18  2  0  0  0  0
 17 19  1  0  0  0  0
 19 20  1  0  0  0  0
 19 21  1  0  0  0  0
 21 22  1  0  0  0  0
 21 23  1  0  0  0  0
 21 24  1  0  0  0  0
M  CHG  1  15  -1
M  END
$$$$

  -OEChem-01062216073D

 24 23  0     1  0  0  0  0  0999 V2000
   -2.8321   -3.4228    0.9320 H   0  0  0  0  0  0  0  0  0  0  0  0
   -2.7914   -2.4019    0.5424 C   0  0  0  0  0  0  0  0  0  0  0  0
   -3.5525   -1.8006    1.0456 H   0  0  0  0  0  0  0  0  0  0  0  0
   -3.0031   -2.4247   -0.5296 H   0  0  0  0  0  0  0  0  0  0  0  0
   -1.4176   -1.8025    0.7845 C   0  0  0  0  0  0  0  0  0  0  0  0
   -0.5635   -2.4703    1.3502 O   0  0  0  0  0  0  0  0  0  0  0  0
   -1.1495   -0.5369    0.3090 N   0  0  0  0  0  0  0  0  0  0  0  0
   -1.8356   -0.1245   -0.3138 H   0  0  0  0  0  0  0  0  0  0  0  0
    0.1723    0.0961    0.3817 C   0  0  1  0  0  0  0  0  0  0  0  0
    0.9438   -0.6136    0.0625 H   0  0  0  0  0  0  0  0  0  0  0  0
    0.1084    1.2818   -0.6097 C   0  0  0  0  0  0  0  0  0  0  0  0
   -0.7487    1.9168   -0.3668 H   0  0  0  0  0  0  0  0  0  0  0  0
    1.0090    1.8918   -0.5172 H   0  0  0  0  0  0  0  0  0  0  0  0
    0.0328    0.8629   -2.0742 C   0  0  0  0  0  0  0  0  0  0  0  0
    0.5555   -0.2197   -2.4296 O   0  5  0  0  0  0  0  0  0  0  0  0
   -0.6078    1.6287   -2.8326 O   0  0  0  0  0  0  0  0  0  0  0  0
    0.5560    0.5999    1.8024 C   0  0  0  0  0  0  0  0  0  0  0  0
   -0.1518    0.4087    2.7881 O   0  0  0  0  0  0  0  0  0  0  0  0
    1.6188    1.4766    1.9505 N   0  0  0  0  0  0  0  0  0  0  0  0
    2.1429    1.7004    1.1101 H   0  0  0  0  0  0  0  0  0  0  0  0
    1.9674    2.1335    3.2015 C   0  0  0  0  0  0  0  0  0  0  0  0
    2.1716    1.3907    3.9795 H   0  0  0  0  0  0  0  0  0  0  0  0
    2.8627    2.7473    3.0660 H   0  0  0  0  0  0  0  0  0  0  0  0
    1.1494    2.7808    3.5334 H   0  0  0  0  0  0  0  0  0  0  0  0
  1  2  1  0  0  0  0
  2  3  1  0  0  0  0
  2  4  1  0  0  0  0
  2  5  1  0  0  0  0
  5  6  2  0  0  0  0
  5  7  1  0  0  0  0
  7  8  1  0  0  0  0
  7  9  1  0  0  0  0
  9 10  1  0  0  0  0
  9 11  1  0  0  0  0
  9 17  1  0  0  0  0
 11 12  1  0  0  0  0
 11 13  1  0  0  0  0
 11 14  1  0  0  0  0
 14 15  1  0  0  0  0
 14 16  2  0  0  0  0
 17 18  2  0  0  0  0
 17 19  1  0  0  0  0
 19 20  1  0  0  0  0
 19 21  1  0  0  0  0
 21 22  1  0  0  0  0
 21 23  1  0  0  0  0
 21 24  1  0  0  0  0
M  CHG  1  15  -1
M  END
$$$$

  -OEChem-01062216073D

 24 23  0     1  0  0  0  0  0999 V2000
   -2.8350   -3.4092    0.9594 H   0  0  0  0  0  0  0  0  0  0  0  0
   -2.7890   -2.3901    0.5659 C   0  0  0  0  0  0  0  0  0  0  0  0
   -3.5283   -1.7770    1.0869 H   0  0  0  0  0  0  0  0  0  0  0  0
   -3.0280   -2.4123   -0.5004 H   0  0  0  0  0  0  0  0  0  0  0  0
   -1.4007   -1.8105    0.7721 C   0  0  0  0  0  0  0  0  0  0  0  0
   -0.5378   -2.5018    1.2932 O   0  0  0  0  0  0  0  0  0  0  0  0
   -1.1338   -0.5423    0.3004 N   0  0  0  0  0  0  0  0  0  0  0  0
   -1.8327   -0.1219   -0.3023 H   0  0  0  0  0  0  0  0  0  0  0  0
    0.1838    0.1021    0.3683 C   0  0  1  0  0  0  0  0  0  0  0  0
    0.9610   -0.6021    0.0508 H   0  0  0  0  0  0  0  0  0  0  0  0
    0.1037    1.2768   -0.6376 C   0  0  0  0  0  0  0  0  0  0  0  0
   -0.7561    1.9093   -0.3973 H   0  0  0  0  0  0  0  0  0  0  0  0
    1.0018    1.8918   -0.5625 H   0  0  0  0  0  0  0  0  0  0  0  0
    0.0286    0.8451   -2.0983 C   0  0  0  0  0  0  0  0  0  0  0  0
    0.5610   -0.2334   -2.4500 O   0  5  0  0  0  0  0  0  0  0  0  0
   -0.6220    1.6012   -2.8579 O   0  0  0  0  0  0  0  0  0  0  0  0
    0.5647    0.6074    1.7933 C   0  0  0  0  0  0  0  0  0  0  0  0
    0.0211    0.1919    2.8124 O   0  0  0  0  0  0  0  0  0  0  0  0
    1.3918    1.7100    1.9426 N   0  0  0  0  0  0  0  0  0  0  0  0
    1.7651    2.1153    1.0900 H   0  0  0  0  0  0  0  0  0  0  0  0
    1.6794    2.3521    3.2171 C   0  0  0  0  0  0  0  0  0  0  0  0
    2.1156    1.6332    3.9182 H   0  0  0  0  0  0  0  0  0  0  0  0
    2.3919    3.1695    3.0728 H   0  0  0  0  0  0  0  0  0  0  0  0
    0.7632    2.7628    3.6534 H   0  0  0  0  0  0  0  0  0  0  0  0
  1  2  1  0  0  0  0
  2  3  1  0  0  0  0
  2  4  1  0  0  0  0
  2  5  1  0  0  0  0
  5  6  2  0  0  0  0
  5  7  1  0  0  0  0
  7  8  1  0  0  0  0
  7  9  1  0  0  0  0
  9 10  1  0  0  0  0
  9 11  1  0  0  0  0
  9 17  1  0  0  0  0
 11 12  1  0  0  0  0
 11 13  1  0  0  0  0
 11 14  1  0  0  0  0
 14 15  1  0  0  0  0
 14 16  2  0  0  0  0
 17 18  2  0  0  0  0
 17 19  1  0  0  0  0
 19 20  1  0  0  0  0
 19 21  1  0  0  0  0
 21 22  1  0  0  0  0
 21 23  1  0  0  0  0
 21 24  1  0  0  0  0
M  CHG  1  15  -1
M  END
$$$$

  -OEChem-01062216073D

 24 23  0     1  0  0  0  0  0999 V2000
   -2.8427   -3.4068    0.9600 H   0  0  0  0  0  0  0  0  0  0  0  0
   -2.7899   -2.3893    0.5631 C   0  0  0  0  0  0  0  0  0  0  0  0
   -3.5305   -1.7715    1.0769 H   0  0  0  0  0  0  0  0  0  0  0  0
   -3.0222   -2.4148   -0.5046 H   0  0  0  0  0  0  0  0  0  0  0  0
   -1.4001   -1.8149    0.7758 C   0  0  0  0  0  0  0  0  0  0  0  0
   -0.5422   -2.5163    1.2892 O   0  0  0  0  0  0  0  0  0  0  0  0
   -1.1306   -0.5469    0.3032 N   0  0  0  0  0  0  0  0  0  0  0  0
   -1.8259   -0.1387   -0.3120 H   0  0  0  0  0  0  0  0  0  0  0  0
    0.1810    0.1116    0.3688 C   0  0  1  0  0  0  0  0  0  0  0  0
    0.9653   -0.5894    0.0612 H   0  0  0  0  0  0  0  0  0  0  0  0
    0.0970    1.2730   -0.6528 C   0  0  0  0  0  0  0  0  0  0  0  0
   -0.7670    1.9045   -0.4253 H   0  0  0  0  0  0  0  0  0  0  0  0
    0.9950    1.8896   -0.5816 H   0  0  0  0  0  0  0  0  0  0  0  0
    0.0333    0.8262   -2.1094 C   0  0  0  0  0  0  0  0  0  0  0  0
    0.5751   -0.2507   -2.4500 O   0  5  0  0  0  0  0  0  0  0  0  0
   -0.6239    1.5693   -2.8765 O   0  0  0  0  0  0  0  0  0  0  0  0
    0.5556    0.6280    1.7932 C   0  0  0  0  0  0  0  0  0  0  0  0
    0.2615    0.0257    2.8197 O   0  0  0  0  0  0  0  0  0  0  0  0
    1.0981    1.8933    1.9622 N   0  0  0  0  0  0  0  0  0  0  0  0
    1.2643    2.4313    1.1175 H   0  0  0  0  0  0  0  0  0  0  0  0
    1.3687    2.5050    3.2556 C   0  0  0  0  0  0  0  0  0  0  0  0
    2.0423    1.8741    3.8447 H   0  0  0  0  0  0  0  0  0  0  0  0
    1.8436    3.4806    3.1169 H   0  0  0  0  0  0  0  0  0  0  0  0
    0.4376    2.6477    3.8131 H   0  0  0  0  0  0  0  0  0  0  0  0
  1  2  1  0  0  0  0
  2  3  1  0  0  0  0
  2  4  1  0  0  0  0
  2  5  1  0  0  0  0
  5  6  2  0  0  0  0
  5  7  1  0  0  0  0
  7  8  1  0  0  0  0
  7  9  1  0  0  0  0
  9 10  1  0  0  0  0
  9 11  1  0  0  0  0
  9 17  1  0  0  0  0
 11 12  1  0  0  0  0
 11 13  1  0  0  0  0
 11 14  1  0  0  0  0
 14 15  1  0  0  0  0
 14 16  2  0  0  0  0
 17 18  2  0  0  0  0
 17 19  1  0  0  0  0
 19 20  1  0  0  0  0
 19 21  1  0  0  0  0
 21 22  1  0  0  0  0
 21 23  1  0  0  0  0
 21 24  1  0  0  0  0
M  CHG  1  15  -1
M  END
$$$$

  -OEChem-01062216073D

 24 23  0     1  0  0  0  0  0999 V2000
   -2.8633   -3.4168    0.9212 H   0  0  0  0  0  0  0  0  0  0  0  0
   -2.7933   -2.4086    0.5034 C   0  0  0  0  0  0  0  0  0  0  0  0
   -3.5774   -1.7887    0.9445 H   0  0  0  0  0  0  0  0  0  0  0  0
   -2.9460   -2.4639   -0.5776 H   0  0  0  0  0  0  0  0  0  0  0  0
   -1.4296   -1.8102    0.8017 C   0  0  0  0  0  0  0  0  0  0  0  0
   -0.6062   -2.4898    1.3913 O   0  0  0  0  0  0  0  0  0  0  0  0
   -1.1495   -0.5466    0.3235 N   0  0  0  0  0  0  0  0  0  0  0  0
   -1.8015   -0.1886   -0.3669 H   0  0  0  0  0  0  0  0  0  0  0  0
    0.1603    0.1168    0.3930 C   0  0  1  0  0  0  0  0  0  0  0  0
    0.9484   -0.5847    0.0967 H   0  0  0  0  0  0  0  0  0  0  0  0
    0.0818    1.2703   -0.6363 C   0  0  0  0  0  0  0  0  0  0  0  0
   -0.7858    1.9015   -0.4213 H   0  0  0  0  0  0  0  0  0  0  0  0
    0.9804    1.8865   -0.5559 H   0  0  0  0  0  0  0  0  0  0  0  0
    0.0295    0.8132   -2.0900 C   0  0  0  0  0  0  0  0  0  0  0  0
    0.5747   -0.2649   -2.4207 O   0  5  0  0  0  0  0  0  0  0  0  0
   -0.6392    1.5417   -2.8610 O   0  0  0  0  0  0  0  0  0  0  0  0
    0.5276    0.6480    1.8125 C   0  0  0  0  0  0  0  0  0  0  0  0
    0.5810   -0.0686    2.8040 O   0  0  0  0  0  0  0  0  0  0  0  0
    0.7661    1.9994    2.0150 N   0  0  0  0  0  0  0  0  0  0  0  0
    0.6881    2.5994    1.1993 H   0  0  0  0  0  0  0  0  0  0  0  0
    1.0740    2.5944    3.3076 C   0  0  0  0  0  0  0  0  0  0  0  0
    1.9841    2.1519    3.7253 H   0  0  0  0  0  0  0  0  0  0  0  0
    1.2326    3.6711    3.1963 H   0  0  0  0  0  0  0  0  0  0  0  0
    0.2478    2.4358    4.0081 H   0  0  0  0  0  0  0  0  0  0  0  0
  1  2  1  0  0  0  0
  2  3  1  0  0  0  0
  2  4  1  0  0  0  0
  2  5  1  0  0  0  0
  5  6  2  0  0  0  0
  5  7  1  0  0  0  0
  7  8  1  0  0  0  0
  7  9  1  0  0  0  0
  9 10  1  0  0  0  0
  9 11  1  0  0  0  0
  9 17  1  0  0  0  0
 11 12  1  0  0  0  0
 11 13  1  0  0  0  0
 11 14  1  0  0  0  0
 14 15  1  0  0  0  0
 14 16  2  0  0  0  0
 17 18  2  0  0  0  0
 17 19  1  0  0  0  0
 19 20  1  0  0  0  0
 19 21  1  0  0  0  0
 21 22  1  0  0  0  0
 21 23  1  0  0  0  0
 21 24  1  0  0  0  0
M  CHG  1  15  -1
M  END
$$$$

  -OEChem-01062216073D

 24 23  0     1  0  0  0  0  0999 V2000
   -2.8719   -3.4503    0.8413 H   0  0  0  0  0  0  0  0  0  0  0  0
   -2.7835   -2.4551    0.3969 C   0  0  0  0  0  0  0  0  0  0  0  0
   -3.6352   -1.8492    0.7152 H   0  0  0  0  0  0  0  0  0  0  0  0
   -2.8007   -2.5533   -0.6917 H   0  0  0  0  0  0  0  0  0  0  0  0
   -1.4864   -1.7973    0.8338 C   0  0  0  0  0  0  0  0  0  0  0  0
   -0.7369   -2.4089    1.5748 O   0  0  0  0  0  0  0  0  0  0  0  0
   -1.1960   -0.5394    0.3489 N   0  0  0  0  0  0  0  0  0  0  0  0
   -1.7778   -0.2486   -0.4313 H   0  0  0  0  0  0  0  0  0  0  0  0
    0.1186    0.1138    0.4322 C   0  0  1  0  0  0  0  0  0  0  0  0
    0.9054   -0.5941    0.1470 H   0  0  0  0  0  0  0  0  0  0  0  0
    0.0587    1.2688   -0.5952 C   0  0  0  0  0  0  0  0  0  0  0  0
   -0.8109    1.9016   -0.3939 H   0  0  0  0  0  0  0  0  0  0  0  0
    0.9576    1.8826   -0.4937 H   0  0  0  0  0  0  0  0  0  0  0  0
    0.0168    0.8089   -2.0482 C   0  0  0  0  0  0  0  0  0  0  0  0
    0.5569   -0.2743   -2.3704 O   0  5  0  0  0  0  0  0  0  0  0  0
   -0.6618    1.5257   -2.8213 O   0  0  0  0  0  0  0  0  0  0  0  0
    0.4712    0.6491    1.8505 C   0  0  0  0  0  0  0  0  0  0  0  0
    0.9082   -0.0692    2.7408 O   0  0  0  0  0  0  0  0  0  0  0  0
    0.4103    2.0091    2.1156 N   0  0  0  0  0  0  0  0  0  0  0  0
    0.1152    2.6054    1.3485 H   0  0  0  0  0  0  0  0  0  0  0  0
    0.8139    2.6166    3.3752 C   0  0  0  0  0  0  0  0  0  0  0  0
    1.8789    2.4423    3.5594 H   0  0  0  0  0  0  0  0  0  0  0  0
    0.6387    3.6960    3.3443 H   0  0  0  0  0  0  0  0  0  0  0  0
    0.2364    2.1961    4.2047 H   0  0  0  0  0  0  0  0  0  0  0  0
  1  2  1  0  0  0  0
  2  3  1  0  0  0  0
  2  4  1  0  0  0  0
  2  5  1  0  0  0  0
  5  6  2  0  0  0  0
  5  7  1  0  0  0  0
  7  8  1  0  0  0  0
  7  9  1  0  0  0  0
  9 10  1  0  0  0  0
  9 11  1  0  0  0  0
  9 17  1  0  0  0  0
 11 12  1  0  0  0  0
 11 13  1  0  0  0  0
 11 14  1  0  0  0  0
 14 15  1  0  0  0  0
 14 16  2  0  0  0  0
 17 18  2  0  0  0  0
 17 19  1  0  0  0  0
 19 20  1  0  0  0  0
 19 21  1  0  0  0  0
 21 22  1  0  0  0  0
 21 23  1  0  0  0  0
 21 24  1  0  0  0  0
M  CHG  1  15  -1
M  END
$$$$

  -OEChem-01062216073D

 24 23  0     1  0  0  0  0  0999 V2000
   -2.8530   -3.4832    0.7877 H   0  0  0  0  0  0  0  0  0  0  0  0
   -2.7623   -2.4956    0.3268 C   0  0  0  0  0  0  0  0  0  0  0  0
   -3.6579   -1.9140    0.5579 H   0  0  0  0  0  0  0  0  0  0  0  0
   -2.6854   -2.6191   -0.7567 H   0  0  0  0  0  0  0  0  0  0  0  0
   -1.5293   -1.7815    0.8516 C   0  0  0  0  0  0  0  0  0  0  0  0
   -0.8427   -2.3274    1.6977 O   0  0  0  0  0  0  0  0  0  0  0  0
   -1.2370   -0.5265    0.3625 N   0  0  0  0  0  0  0  0  0  0  0  0
   -1.7682   -0.2798   -0.4684 H   0  0  0  0  0  0  0  0  0  0  0  0
    0.0903    0.0990    0.4495 C   0  0  1  0  0  0  0  0  0  0  0  0
    0.8643   -0.6210    0.1589 H   0  0  0  0  0  0  0  0  0  0  0  0
    0.0542    1.2673   -0.5612 C   0  0  0  0  0  0  0  0  0  0  0  0
   -0.8039    1.9143   -0.3560 H   0  0  0  0  0  0  0  0  0  0  0  0
    0.9630    1.8639   -0.4456 H   0  0  0  0  0  0  0  0  0  0  0  0
    0.0000    0.8185   -2.0174 C   0  0  0  0  0  0  0  0  0  0  0  0
    0.5164   -0.2745   -2.3465 O   0  5  0  0  0  0  0  0  0  0  0  0
   -0.6841    1.5412   -2.7799 O   0  0  0  0  0  0  0  0  0  0  0  0
    0.4457    0.6180    1.8693 C   0  0  0  0  0  0  0  0  0  0  0  0
    1.1699   -0.0131    2.6303 O   0  0  0  0  0  0  0  0  0  0  0  0
    0.1153    1.9146    2.2324 N   0  0  0  0  0  0  0  0  0  0  0  0
   -0.3871    2.4620    1.5407 H   0  0  0  0  0  0  0  0  0  0  0  0
    0.5413    2.5486    3.4712 C   0  0  0  0  0  0  0  0  0  0  0  0
    1.6327    2.6245    3.5061 H   0  0  0  0  0  0  0  0  0  0  0  0
    0.1205    3.5559    3.5406 H   0  0  0  0  0  0  0  0  0  0  0  0
    0.1975    1.9702    4.3348 H   0  0  0  0  0  0  0  0  0  0  0  0
  1  2  1  0  0  0  0
  2  3  1  0  0  0  0
  2  4  1  0  0  0  0
  2  5  1  0  0  0  0
  5  6  2  0  0  0  0
  5  7  1  0  0  0  0
  7  8  1  0  0  0  0
  7  9  1  0  0  0  0
  9 10  1  0  0  0  0
  9 11  1  0  0  0  0
  9 17  1  0  0  0  0
 11 12  1  0  0  0  0
 11 13  1  0  0  0  0
 11 14  1  0  0  0  0
 14 15  1  0  0  0  0
 14 16  2  0  0  0  0
 17 18  2  0  0  0  0
 17 19  1  0  0  0  0
 19 20  1  0  0  0  0
 19 21  1  0  0  0  0
 21 22  1  0  0  0  0
 21 23  1  0  0  0  0
 21 24  1  0  0  0  0
M  CHG  1  15  -1
M  END
$$$$

  -OEChem-01062216073D

 24 23  0     1  0  0  0  0  0999 V2000
   -2.8336   -3.4990    0.7641 H   0  0  0  0  0  0  0  0  0  0  0  0
   -2.7470   -2.5136    0.2981 C   0  0  0  0  0  0  0  0  0  0  0  0
   -3.6607   -1.9476    0.4944 H   0  0  0  0  0  0  0  0  0  0  0  0
   -2.6321   -2.6442   -0.7813 H   0  0  0  0  0  0  0  0  0  0  0  0
   -1.5461   -1.7717    0.8567 C   0  0  0  0  0  0  0  0  0  0  0  0
   -0.8883   -2.2829    1.7470 O   0  0  0  0  0  0  0  0  0  0  0  0
   -1.2534   -0.5186    0.3649 N   0  0  0  0  0  0  0  0  0  0  0  0
   -1.7613   -0.2909   -0.4864 H   0  0  0  0  0  0  0  0  0  0  0  0
    0.0865    0.0788    0.4465 C   0  0  1  0  0  0  0  0  0  0  0  0
    0.8462   -0.6511    0.1429 H   0  0  0  0  0  0  0  0  0  0  0  0
    0.0662    1.2637   -0.5422 C   0  0  0  0  0  0  0  0  0  0  0  0
   -0.7747    1.9266   -0.3190 H   0  0  0  0  0  0  0  0  0  0  0  0
    0.9883    1.8389   -0.4234 H   0  0  0  0  0  0  0  0  0  0  0  0
   -0.0126    0.8341   -2.0033 C   0  0  0  0  0  0  0  0  0  0  0  0
    0.4767   -0.2665   -2.3496 O   0  5  0  0  0  0  0  0  0  0  0  0
   -0.7027    1.5711   -2.7468 O   0  0  0  0  0  0  0  0  0  0  0  0
    0.4515    0.5782    1.8673 C   0  0  0  0  0  0  0  0  0  0  0  0
    1.3763    0.0867    2.5052 O   0  0  0  0  0  0  0  0  0  0  0  0
   -0.1190    1.7458    2.3481 N   0  0  0  0  0  0  0  0  0  0  0  0
   -0.8138    2.1864    1.7539 H   0  0  0  0  0  0  0  0  0  0  0  0
    0.2717    2.3905    3.5926 C   0  0  0  0  0  0  0  0  0  0  0  0
    1.3238    2.6901    3.5535 H   0  0  0  0  0  0  0  0  0  0  0  0
   -0.3373    3.2835    3.7606 H   0  0  0  0  0  0  0  0  0  0  0  0
    0.1278    1.7093    4.4373 H   0  0  0  0  0  0  0  0  0  0  0  0
  1  2  1  0  0  0  0
  2  3  1  0  0  0  0
  2  4  1  0  0  0  0
  2  5  1  0  0  0  0
  5  6  2  0  0  0  0
  5  7  1  0  0  0  0
  7  8  1  0  0  0  0
  7  9  1  0  0  0  0
  9 10  1  0  0  0  0
  9 11  1  0  0  0  0
  9 17  1  0  0  0  0
 11 12  1  0  0  0  0
 11 13  1  0  0  0  0
 11 14  1  0  0  0  0
 14 15  1  0  0  0  0
 14 16  2  0  0  0  0
 17 18  2  0  0  0  0
 17 19  1  0  0  0  0
 19 20  1  0  0  0  0
 19 21  1  0  0  0  0
 21 22  1  0  0  0  0
 21 23  1  0  0  0  0
 21 24  1  0  0  0  0
M  CHG  1  15  -1
M  END
$$$$

  -OEChem-01062216073D

 24 23  0     1  0  0  0  0  0999 V2000
   -2.8415   -3.4805    0.7948 H   0  0  0  0  0  0  0  0  0  0  0  0
   -2.7448   -2.5062    0.3078 C   0  0  0  0  0  0  0  0  0  0  0  0
   -3.6547   -1.9286    0.4877 H   0  0  0  0  0  0  0  0  0  0  0  0
   -2.6268   -2.6609   -0.7680 H   0  0  0  0  0  0  0  0  0  0  0  0
   -1.5403   -1.7618    0.8556 C   0  0  0  0  0  0  0  0  0  0  0  0
   -0.8839   -2.2594    1.7553 O   0  0  0  0  0  0  0  0  0  0  0  0
   -1.2462   -0.5114    0.3583 N   0  0  0  0  0  0  0  0  0  0  0  0
   -1.7488   -0.2906   -0.4985 H   0  0  0  0  0  0  0  0  0  0  0  0
    0.1037    0.0656    0.4266 C   0  0  1  0  0  0  0  0  0  0  0  0
    0.8514   -0.6717    0.1108 H   0  0  0  0  0  0  0  0  0  0  0  0
    0.0884    1.2623   -0.5448 C   0  0  0  0  0  0  0  0  0  0  0  0
   -0.7364    1.9374   -0.2986 H   0  0  0  0  0  0  0  0  0  0  0  0
    1.0219    1.8203   -0.4325 H   0  0  0  0  0  0  0  0  0  0  0  0
   -0.0186    0.8480   -2.0087 C   0  0  0  0  0  0  0  0  0  0  0  0
    0.4484   -0.2576   -2.3708 O   0  5  0  0  0  0  0  0  0  0  0  0
   -0.7176    1.5952   -2.7335 O   0  0  0  0  0  0  0  0  0  0  0  0
    0.4837    0.5544    1.8446 C   0  0  0  0  0  0  0  0  0  0  0  0
    1.5501    0.2458    2.3664 O   0  0  0  0  0  0  0  0  0  0  0  0
   -0.2853    1.5337    2.4505 N   0  0  0  0  0  0  0  0  0  0  0  0
   -1.1452    1.7877    1.9757 H   0  0  0  0  0  0  0  0  0  0  0  0
    0.0328    2.1387    3.7345 C   0  0  0  0  0  0  0  0  0  0  0  0
    1.0013    2.6469    3.6877 H   0  0  0  0  0  0  0  0  0  0  0  0
   -0.7314    2.8742    4.0024 H   0  0  0  0  0  0  0  0  0  0  0  0
    0.0695    1.3748    4.5177 H   0  0  0  0  0  0  0  0  0  0  0  0
  1  2  1  0  0  0  0
  2  3  1  0  0  0  0
  2  4  1  0  0  0  0
  2  5  1  0  0  0  0
  5  6  2  0  0  0  0
  5  7  1  0  0  0  0
  7  8  1  0  0  0  0
  7  9  1  0  0  0  0
  9 10  1  0  0  0  0
  9 11  1  0  0  0  0
  9 17  1  0  0  0  0
 11 12  1  0  0  0  0
 11 13  1  0  0  0  0
 11 14  1  0  0  0  0
 14 15  1  0  0  0  0
 14 16  2  0  0  0  0
 17 18  2  0  0  0  0
 17 19  1  0  0  0  0
 19 20  1  0  0  0  0
 19 21  1  0  0  0  0
 21 22  1  0  0  0  0
 21 23  1  0  0  0  0
 21 24  1  0  0  0  0
M  CHG  1  15  -1
M  END
$$$$

  -OEChem-01062216073D

 24 23  0     1  0  0  0  0  0999 V2000
   -2.8251   -3.4672    0.8050 H   0  0  0  0  0  0  0  0  0  0  0  0
   -2.7369   -2.4923    0.3178 C   0  0  0  0  0  0  0  0  0  0  0  0
   -3.6515   -1.9222    0.4978 H   0  0  0  0  0  0  0  0  0  0  0  0
   -2.6176   -2.6462   -0.7580 H   0  0  0  0  0  0  0  0  0  0  0  0
   -1.5383   -1.7380    0.8644 C   0  0  0  0  0  0  0  0  0  0  0  0
   -0.8886   -2.2173    1.7794 O   0  0  0  0  0  0  0  0  0  0  0  0
   -1.2415   -0.4936    0.3543 N   0  0  0  0  0  0  0  0  0  0  0  0
   -1.7407   -0.2815   -0.5072 H   0  0  0  0  0  0  0  0  0  0  0  0
    0.1166    0.0671    0.4085 C   0  0  1  0  0  0  0  0  0  0  0  0
    0.8537   -0.6793    0.0894 H   0  0  0  0  0  0  0  0  0  0  0  0
    0.1040    1.2621   -0.5629 C   0  0  0  0  0  0  0  0  0  0  0  0
   -0.7086    1.9477   -0.3050 H   0  0  0  0  0  0  0  0  0  0  0  0
    1.0456    1.8086   -0.4628 H   0  0  0  0  0  0  0  0  0  0  0  0
   -0.0246    0.8436   -2.0241 C   0  0  0  0  0  0  0  0  0  0  0  0
    0.4264   -0.2693   -2.3856 O   0  5  0  0  0  0  0  0  0  0  0  0
   -0.7297    1.5904   -2.7432 O   0  0  0  0  0  0  0  0  0  0  0  0
    0.5127    0.5594    1.8197 C   0  0  0  0  0  0  0  0  0  0  0  0
    1.6622    0.4548    2.2358 O   0  0  0  0  0  0  0  0  0  0  0  0
   -0.3938    1.3075    2.5507 N   0  0  0  0  0  0  0  0  0  0  0  0
   -1.3429    1.3212    2.1921 H   0  0  0  0  0  0  0  0  0  0  0  0
   -0.1271    1.8186    3.8859 C   0  0  0  0  0  0  0  0  0  0  0  0
    0.7343    2.4941    3.8716 H   0  0  0  0  0  0  0  0  0  0  0  0
   -0.9947    2.3729    4.2554 H   0  0  0  0  0  0  0  0  0  0  0  0
    0.0791    0.9937    4.5755 H   0  0  0  0  0  0  0  0  0  0  0  0
  1  2  1  0  0  0  0
  2  3  1  0  0  0  0
  2  4  1  0  0  0  0
  2  5  1  0  0  0  0
  5  6  2  0  0  0  0
  5  7  1  0  0  0  0
  7  8  1  0  0  0  0
  7  9  1  0  0  0  0
  9 10  1  0  0  0  0
  9 11  1  0  0  0  0
  9 17  1  0  0  0  0
 11 12  1  0  0  0  0
 11 13  1  0  0  0  0
 11 14  1  0  0  0  0
 14 15  1  0  0  0  0
 14 16  2  0  0  0  0
 17 18  2  0  0  0  0
 17 19  1  0  0  0  0
 19 20  1  0  0  0  0
 19 21  1  0  0  0  0
 21 22  1  0  0  0  0
 21 23  1  0  0  0  0
 21 24  1  0  0  0  0
M  CHG  1  15  -1
M  END
$$$$

  -OEChem-01062216073D

 24 23  0     1  0  0  0  0  0999 V2000
   -2.8041   -3.4708    0.7676 H   0  0  0  0  0  0  0  0  0  0  0  0
   -2.7336   -2.4854    0.2989 C   0  0  0  0  0  0  0  0  0  0  0  0
   -3.6577   -1.9345    0.4895 H   0  0  0  0  0  0  0  0  0  0  0  0
   -2.6123   -2.6173   -0.7797 H   0  0  0  0  0  0  0  0  0  0  0  0
   -1.5480   -1.7218    0.8600 C   0  0  0  0  0  0  0  0  0  0  0  0
   -0.9181   -2.1844    1.7976 O   0  0  0  0  0  0  0  0  0  0  0  0
   -1.2456   -0.4800    0.3478 N   0  0  0  0  0  0  0  0  0  0  0  0
   -1.7380   -0.2686   -0.5180 H   0  0  0  0  0  0  0  0  0  0  0  0
    0.1167    0.0731    0.4047 C   0  0  1  0  0  0  0  0  0  0  0  0
    0.8495   -0.6784    0.0886 H   0  0  0  0  0  0  0  0  0  0  0  0
    0.1057    1.2613   -0.5743 C   0  0  0  0  0  0  0  0  0  0  0  0
   -0.7054    1.9500   -0.3195 H   0  0  0  0  0  0  0  0  0  0  0  0
    1.0482    1.8071   -0.4793 H   0  0  0  0  0  0  0  0  0  0  0  0
   -0.0235    0.8300   -2.0321 C   0  0  0  0  0  0  0  0  0  0  0  0
    0.4268   -0.2872   -2.3822 O   0  5  0  0  0  0  0  0  0  0  0  0
   -0.7336    1.5660   -2.7574 O   0  0  0  0  0  0  0  0  0  0  0  0
    0.5236    0.5695    1.8123 C   0  0  0  0  0  0  0  0  0  0  0  0
    1.7033    0.6842    2.1305 O   0  0  0  0  0  0  0  0  0  0  0  0
   -0.4492    1.0505    2.6709 N   0  0  0  0  0  0  0  0  0  0  0  0
   -1.4016    0.8140    2.4123 H   0  0  0  0  0  0  0  0  0  0  0  0
   -0.1735    1.4828    4.0320 C   0  0  0  0  0  0  0  0  0  0  0  0
    0.5503    2.3041    4.0341 H   0  0  0  0  0  0  0  0  0  0  0  0
   -1.0941    1.8339    4.5071 H   0  0  0  0  0  0  0  0  0  0  0  0
    0.2292    0.6531    4.6216 H   0  0  0  0  0  0  0  0  0  0  0  0
  1  2  1  0  0  0  0
  2  3  1  0  0  0  0
  2  4  1  0  0  0  0
  2  5  1  0  0  0  0
  5  6  2  0  0  0  0
  5  7  1  0  0  0  0
  7  8  1  0  0  0  0
  7  9  1  0  0  0  0
  9 10  1  0  0  0  0
  9 11  1  0  0  0  0
  9 17  1  0  0  0  0
 11 12  1  0  0  0  0
 11 13  1  0  0  0  0
 11 14  1  0  0  0  0
 14 15  1  0  0  0  0
 14 16  2  0  0  0  0
 17 18  2  0  0  0  0
 17 19  1  0  0  0  0
 19 20  1  0  0  0  0
 19 21  1  0  0  0  0
 21 22  1  0  0  0  0
 21 23  1  0  0  0  0
 21 24  1  0  0  0  0
M  CHG  1  15  -1
M  END
$$$$

  -OEChem-01062216073D

 24 23  0     1  0  0  0  0  0999 V2000
   -2.8364   -3.4503    0.7549 H   0  0  0  0  0  0  0  0  0  0  0  0
   -2.7360   -2.4797    0.2615 C   0  0  0  0  0  0  0  0  0  0  0  0
   -3.6614   -1.9150    0.3979 H   0  0  0  0  0  0  0  0  0  0  0  0
   -2.5721   -2.6438   -0.8069 H   0  0  0  0  0  0  0  0  0  0  0  0
   -1.5664   -1.7103    0.8474 C   0  0  0  0  0  0  0  0  0  0  0  0
   -0.9651   -2.1581    1.8110 O   0  0  0  0  0  0  0  0  0  0  0  0
   -1.2563   -0.4673    0.3438 N   0  0  0  0  0  0  0  0  0  0  0  0
   -1.7437   -0.2490   -0.5234 H   0  0  0  0  0  0  0  0  0  0  0  0
    0.1063    0.0874    0.4092 C   0  0  1  0  0  0  0  0  0  0  0  0
    0.8385   -0.6665    0.0983 H   0  0  0  0  0  0  0  0  0  0  0  0
    0.0954    1.2653   -0.5833 C   0  0  0  0  0  0  0  0  0  0  0  0
   -0.7208    1.9522   -0.3409 H   0  0  0  0  0  0  0  0  0  0  0  0
    1.0337    1.8188   -0.4913 H   0  0  0  0  0  0  0  0  0  0  0  0
   -0.0225    0.8142   -2.0366 C   0  0  0  0  0  0  0  0  0  0  0  0
    0.4362   -0.3056   -2.3685 O   0  5  0  0  0  0  0  0  0  0  0  0
   -0.7337    1.5348   -2.7762 O   0  0  0  0  0  0  0  0  0  0  0  0
    0.5238    0.5846    1.8160 C   0  0  0  0  0  0  0  0  0  0  0  0
    1.6793    0.9274    2.0492 O   0  0  0  0  0  0  0  0  0  0  0  0
   -0.4351    0.7755    2.7946 N   0  0  0  0  0  0  0  0  0  0  0  0
   -1.3050    0.2808    2.6194 H   0  0  0  0  0  0  0  0  0  0  0  0
   -0.1079    1.1383    4.1646 C   0  0  0  0  0  0  0  0  0  0  0  0
    0.4276    2.0927    4.1909 H   0  0  0  0  0  0  0  0  0  0  0  0
   -1.0240    1.2411    4.7534 H   0  0  0  0  0  0  0  0  0  0  0  0
    0.5181    0.3669    4.6243 H   0  0  0  0  0  0  0  0  0  0  0  0
  1  2  1  0  0  0  0
  2  3  1  0  0  0  0
  2  4  1  0  0  0  0
  2  5  1  0  0  0  0
  5  6  2  0  0  0  0
  5  7  1  0  0  0  0
  7  8  1  0  0  0  0
  7  9  1  0  0  0  0
  9 10  1  0  0  0  0
  9 11  1  0  0  0  0
  9 17  1  0  0  0  0
 11 12  1  0  0  0  0
 11 13  1  0  0  0  0
 11 14  1  0  0  0  0
 14 15  1  0  0  0  0
 14 16  2  0  0  0  0
 17 18  2  0  0  0  0
 17 19  1  0  0  0  0
 19 20  1  0  0  0  0
 19 21  1  0  0  0  0
 21 22  1  0  0  0  0
 21 23  1  0  0  0  0
 21 24  1  0  0  0  0
M  CHG  1  15  -1
M  END
$$$$

  -OEChem-01062216073D

 24 23  0     1  0  0  0  0  0999 V2000
   -2.8798   -3.4304    0.7118 H   0  0  0  0  0  0  0  0  0  0  0  0
   -2.7475   -2.4670    0.2120 C   0  0  0  0  0  0  0  0  0  0  0  0
   -3.6690   -1.8878    0.3079 H   0  0  0  0  0  0  0  0  0  0  0  0
   -2.5475   -2.6450   -0.8481 H   0  0  0  0  0  0  0  0  0  0  0  0
   -1.5889   -1.7068    0.8312 C   0  0  0  0  0  0  0  0  0  0  0  0
   -1.0128   -2.1616    1.8078 O   0  0  0  0  0  0  0  0  0  0  0  0
   -1.2655   -0.4597    0.3478 N   0  0  0  0  0  0  0  0  0  0  0  0
   -1.7531   -0.2228   -0.5142 H   0  0  0  0  0  0  0  0  0  0  0  0
    0.0962    0.0983    0.4217 C   0  0  1  0  0  0  0  0  0  0  0  0
    0.8269   -0.6564    0.1100 H   0  0  0  0  0  0  0  0  0  0  0  0
    0.0802    1.2678   -0.5826 C   0  0  0  0  0  0  0  0  0  0  0  0
   -0.7411    1.9518   -0.3490 H   0  0  0  0  0  0  0  0  0  0  0  0
    1.0139    1.8294   -0.4969 H   0  0  0  0  0  0  0  0  0  0  0  0
   -0.0285    0.7997   -2.0316 C   0  0  0  0  0  0  0  0  0  0  0  0
    0.4408   -0.3203   -2.3490 O   0  5  0  0  0  0  0  0  0  0  0  0
   -0.7467    1.5032   -2.7808 O   0  0  0  0  0  0  0  0  0  0  0  0
    0.5284    0.5862    1.8308 C   0  0  0  0  0  0  0  0  0  0  0  0
    1.6028    1.1556    2.0019 O   0  0  0  0  0  0  0  0  0  0  0  0
   -0.3365    0.4809    2.9052 N   0  0  0  0  0  0  0  0  0  0  0  0
   -1.0461   -0.2395    2.7751 H   0  0  0  0  0  0  0  0  0  0  0  0
    0.0523    0.8187    4.2660 C   0  0  0  0  0  0  0  0  0  0  0  0
    0.3646    1.8660    4.3271 H   0  0  0  0  0  0  0  0  0  0  0  0
   -0.7937    0.6720    4.9438 H   0  0  0  0  0  0  0  0  0  0  0  0
    0.8793    0.1820    4.5962 H   0  0  0  0  0  0  0  0  0  0  0  0
  1  2  1  0  0  0  0
  2  3  1  0  0  0  0
  2  4  1  0  0  0  0
  2  5  1  0  0  0  0
  5  6  2  0  0  0  0
  5  7  1  0  0  0  0
  7  8  1  0  0  0  0
  7  9  1  0  0  0  0
  9 10  1  0  0  0  0
  9 11  1  0  0  0  0
  9 17  1  0  0  0  0
 11 12  1  0  0  0  0
 11 13  1  0  0  0  0
 11 14  1  0  0  0  0
 14 15  1  0  0  0  0
 14 16  2  0  0  0  0
 17 18  2  0  0  0  0
 17 19  1  0  0  0  0
 19 20  1  0  0  0  0
 19 21  1  0  0  0  0
 21 22  1  0  0  0  0
 21 23  1  0  0  0  0
 21 24  1  0  0  0  0
M  CHG  1  15  -1
M  END
$$$$

  -OEChem-01062216073D

 24 23  0     1  0  0  0  0  0999 V2000
   -2.8894   -3.4289    0.6766 H   0  0  0  0  0  0  0  0  0  0  0  0
   -2.7811   -2.4376    0.2279 C   0  0  0  0  0  0  0  0  0  0  0  0
   -3.6863   -1.8582    0.4255 H   0  0  0  0  0  0  0  0  0  0  0  0
   -2.6602   -2.5525   -0.8528 H   0  0  0  0  0  0  0  0  0  0  0  0
   -1.5714   -1.7268    0.8071 C   0  0  0  0  0  0  0  0  0  0  0  0
   -0.9479   -2.2422    1.7234 O   0  0  0  0  0  0  0  0  0  0  0  0
   -1.2410   -0.4733    0.3422 N   0  0  0  0  0  0  0  0  0  0  0  0
   -1.7551   -0.1983   -0.4924 H   0  0  0  0  0  0  0  0  0  0  0  0
    0.1132    0.1037    0.4232 C   0  0  1  0  0  0  0  0  0  0  0  0
    0.8533   -0.6413    0.1107 H   0  0  0  0  0  0  0  0  0  0  0  0
    0.0796    1.2693   -0.5882 C   0  0  0  0  0  0  0  0  0  0  0  0
   -0.7536    1.9402   -0.3592 H   0  0  0  0  0  0  0  0  0  0  0  0
    1.0032    1.8479   -0.5063 H   0  0  0  0  0  0  0  0  0  0  0  0
   -0.0161    0.7954   -2.0363 C   0  0  0  0  0  0  0  0  0  0  0  0
    0.4740   -0.3169   -2.3496 O   0  5  0  0  0  0  0  0  0  0  0  0
   -0.7417    1.4861   -2.7906 O   0  0  0  0  0  0  0  0  0  0  0  0
    0.5412    0.5890    1.8379 C   0  0  0  0  0  0  0  0  0  0  0  0
    1.4820    1.3631    1.9917 O   0  0  0  0  0  0  0  0  0  0  0  0
   -0.1653    0.2014    2.9619 N   0  0  0  0  0  0  0  0  0  0  0  0
   -0.7344   -0.6346    2.8156 H   0  0  0  0  0  0  0  0  0  0  0  0
    0.2530    0.5206    4.3185 C   0  0  0  0  0  0  0  0  0  0  0  0
    0.3201    1.6048    4.4541 H   0  0  0  0  0  0  0  0  0  0  0  0
   -0.4744    0.1289    5.0354 H   0  0  0  0  0  0  0  0  0  0  0  0
    1.2297    0.0752    4.5324 H   0  0  0  0  0  0  0  0  0  0  0  0
  1  2  1  0  0  0  0
  2  3  1  0  0  0  0
  2  4  1  0  0  0  0
  2  5  1  0  0  0  0
  5  6  2  0  0  0  0
  5  7  1  0  0  0  0
  7  8  1  0  0  0  0
  7  9  1  0  0  0  0
  9 10  1  0  0  0  0
  9 11  1  0  0  0  0
  9 17  1  0  0  0  0
 11 12  1  0  0  0  0
 11 13  1  0  0  0  0
 11 14  1  0  0  0  0
 14 15  1  0  0  0  0
 14 16  2  0  0  0  0
 17 18  2  0  0  0  0
 17 19  1  0  0  0  0
 19 20  1  0  0  0  0
 19 21  1  0  0  0  0
 21 22  1  0  0  0  0
 21 23  1  0  0  0  0
 21 24  1  0  0  0  0
M  CHG  1  15  -1
M  END
$$$$

  -OEChem-01062216073D

 24 23  0     1  0  0  0  0  0999 V2000
   -2.9047   -3.4126    0.6841 H   0  0  0  0  0  0  0  0  0  0  0  0
   -2.8051   -2.4060    0.2687 C   0  0  0  0  0  0  0  0  0  0  0  0
   -3.6795   -1.8163    0.5542 H   0  0  0  0  0  0  0  0  0  0  0  0
   -2.7639   -2.4783   -0.8214 H   0  0  0  0  0  0  0  0  0  0  0  0
   -1.5418   -1.7446    0.7884 C   0  0  0  0  0  0  0  0  0  0  0  0
   -0.8617   -2.3205    1.6258 O   0  0  0  0  0  0  0  0  0  0  0  0
   -1.2144   -0.4842    0.3384 N   0  0  0  0  0  0  0  0  0  0  0  0
   -1.7626   -0.1731   -0.4607 H   0  0  0  0  0  0  0  0  0  0  0  0
    0.1296    0.1153    0.4212 C   0  0  1  0  0  0  0  0  0  0  0  0
    0.8803   -0.6199    0.1114 H   0  0  0  0  0  0  0  0  0  0  0  0
    0.0829    1.2728   -0.6005 C   0  0  0  0  0  0  0  0  0  0  0  0
   -0.7603    1.9341   -0.3808 H   0  0  0  0  0  0  0  0  0  0  0  0
    0.9981    1.8648   -0.5200 H   0  0  0  0  0  0  0  0  0  0  0  0
    0.0029    0.7881   -2.0463 C   0  0  0  0  0  0  0  0  0  0  0  0
    0.5128   -0.3179   -2.3498 O   0  5  0  0  0  0  0  0  0  0  0  0
   -0.7281    1.4630   -2.8098 O   0  0  0  0  0  0  0  0  0  0  0  0
    0.5475    0.5973    1.8421 C   0  0  0  0  0  0  0  0  0  0  0  0
    1.3001    1.5537    2.0068 O   0  0  0  0  0  0  0  0  0  0  0  0
    0.0637   -0.0325    2.9740 N   0  0  0  0  0  0  0  0  0  0  0  0
   -0.3866   -0.9334    2.7952 H   0  0  0  0  0  0  0  0  0  0  0  0
    0.5121    0.2673    4.3251 C   0  0  0  0  0  0  0  0  0  0  0  0
    0.3299    1.3198    4.5649 H   0  0  0  0  0  0  0  0  0  0  0  0
   -0.0338   -0.3496    5.0449 H   0  0  0  0  0  0  0  0  0  0  0  0
    1.5817    0.0590    4.4279 H   0  0  0  0  0  0  0  0  0  0  0  0
  1  2  1  0  0  0  0
  2  3  1  0  0  0  0
  2  4  1  0  0  0  0
  2  5  1  0  0  0  0
  5  6  2  0  0  0  0
  5  7  1  0  0  0  0
  7  8  1  0  0  0  0
  7  9  1  0  0  0  0
  9 10  1  0  0  0  0
  9 11  1  0  0  0  0
  9 17  1  0  0  0  0
 11 12  1  0  0  0  0
 11 13  1  0  0  0  0
 11 14  1  0  0  0  0
 14 15  1  0  0  0  0
 14 16  2  0  0  0  0
 17 18  2  0  0  0  0
 17 19  1  0  0  0  0
 19 20  1  0  0  0  0
 19 21  1  0  0  0  0
 21 22  1  0  0  0  0
 21 23  1  0  0  0  0
 21 24  1  0  0  0  0
M  CHG  1  15  -1
M  END
$$$$

  -OEChem-01062216073D

 24 23  0     1  0  0  0  0  0999 V2000
   -2.8929   -3.4079    0.6829 H   0  0  0  0  0  0  0  0  0  0  0  0
   -2.8152   -2.3791    0.3208 C   0  0  0  0  0  0  0  0  0  0  0  0
   -3.6646   -1.8048    0.6986 H   0  0  0  0  0  0  0  0  0  0  0  0
   -2.8486   -2.3883   -0.7720 H   0  0  0  0  0  0  0  0  0  0  0  0
   -1.5150   -1.7514    0.7902 C   0  0  0  0  0  0  0  0  0  0  0  0
   -0.7970   -2.3667    1.5663 O   0  0  0  0  0  0  0  0  0  0  0  0
   -1.1889   -0.4881    0.3457 N   0  0  0  0  0  0  0  0  0  0  0  0
   -1.7676   -0.1502   -0.4199 H   0  0  0  0  0  0  0  0  0  0  0  0
    0.1543    0.1137    0.4096 C   0  0  1  0  0  0  0  0  0  0  0  0
    0.9013   -0.6202    0.0880 H   0  0  0  0  0  0  0  0  0  0  0  0
    0.0997    1.2718   -0.6111 C   0  0  0  0  0  0  0  0  0  0  0  0
   -0.7397    1.9346   -0.3815 H   0  0  0  0  0  0  0  0  0  0  0  0
    1.0172    1.8610   -0.5380 H   0  0  0  0  0  0  0  0  0  0  0  0
    0.0044    0.7906   -2.0568 C   0  0  0  0  0  0  0  0  0  0  0  0
    0.5093   -0.3157   -2.3678 O   0  5  0  0  0  0  0  0  0  0  0  0
   -0.7247    1.4737   -2.8149 O   0  0  0  0  0  0  0  0  0  0  0  0
    0.5861    0.5847    1.8301 C   0  0  0  0  0  0  0  0  0  0  0  0
    1.1177    1.6745    2.0268 O   0  0  0  0  0  0  0  0  0  0  0  0
    0.3770   -0.2232    2.9313 N   0  0  0  0  0  0  0  0  0  0  0  0
   -0.0020   -1.1524    2.7298 H   0  0  0  0  0  0  0  0  0  0  0  0
    0.7975    0.0987    4.2857 C   0  0  0  0  0  0  0  0  0  0  0  0
    0.3183    1.0223    4.6257 H   0  0  0  0  0  0  0  0  0  0  0  0
    0.5140   -0.7090    4.9667 H   0  0  0  0  0  0  0  0  0  0  0  0
    1.8839    0.2247    4.3289 H   0  0  0  0  0  0  0  0  0  0  0  0
  1  2  1  0  0  0  0
  2  3  1  0  0  0  0
  2  4  1  0  0  0  0
  2  5  1  0  0  0  0
  5  6  2  0  0  0  0
  5  7  1  0  0  0  0
  7  8  1  0  0  0  0
  7  9  1  0  0  0  0
  9 10  1  0  0  0  0
  9 11  1  0  0  0  0
  9 17  1  0  0  0  0
 11 12  1  0  0  0  0
 11 13  1  0  0  0  0
 11 14  1  0  0  0  0
 14 15  1  0  0  0  0
 14 16  2  0  0  0  0
 17 18  2  0  0  0  0
 17 19  1  0  0  0  0
 19 20  1  0  0  0  0
 19 21  1  0  0  0  0
 21 22  1  0  0  0  0
 21 23  1  0  0  0  0
 21 24  1  0  0  0  0
M  CHG  1  15  -1
M  END
$$$$

  -OEChem-01062216073D

 24 23  0     1  0  0  0  0  0999 V2000
   -2.8650   -3.3856    0.7635 H   0  0  0  0  0  0  0  0  0  0  0  0
   -2.7960   -2.3587    0.3945 C   0  0  0  0  0  0  0  0  0  0  0  0
   -3.6303   -1.7801    0.7984 H   0  0  0  0  0  0  0  0  0  0  0  0
   -2.8660   -2.3724   -0.6965 H   0  0  0  0  0  0  0  0  0  0  0  0
   -1.4781   -1.7347    0.8170 C   0  0  0  0  0  0  0  0  0  0  0  0
   -0.7279   -2.3580    1.5558 O   0  0  0  0  0  0  0  0  0  0  0  0
   -1.1636   -0.4719    0.3631 N   0  0  0  0  0  0  0  0  0  0  0  0
   -1.7691   -0.1239   -0.3766 H   0  0  0  0  0  0  0  0  0  0  0  0
    0.1840    0.1193    0.3878 C   0  0  1  0  0  0  0  0  0  0  0  0
    0.9170   -0.6201    0.0471 H   0  0  0  0  0  0  0  0  0  0  0  0
    0.1222    1.2790   -0.6296 C   0  0  0  0  0  0  0  0  0  0  0  0
   -0.7046    1.9511   -0.3815 H   0  0  0  0  0  0  0  0  0  0  0  0
    1.0485    1.8565   -0.5713 H   0  0  0  0  0  0  0  0  0  0  0  0
   -0.0122    0.8013   -2.0735 C   0  0  0  0  0  0  0  0  0  0  0  0
    0.4709   -0.3118   -2.3954 O   0  5  0  0  0  0  0  0  0  0  0  0
   -0.7406    1.4988   -2.8191 O   0  0  0  0  0  0  0  0  0  0  0  0
    0.6471    0.5785    1.8000 C   0  0  0  0  0  0  0  0  0  0  0  0
    0.9410    1.7444    2.0521 O   0  0  0  0  0  0  0  0  0  0  0  0
    0.7402   -0.3403    2.8275 N   0  0  0  0  0  0  0  0  0  0  0  0
    0.3818   -1.2750    2.6117 H   0  0  0  0  0  0  0  0  0  0  0  0
    1.0794   -0.0075    4.2019 C   0  0  0  0  0  0  0  0  0  0  0  0
    0.3394    0.6807    4.6223 H   0  0  0  0  0  0  0  0  0  0  0  0
    1.0976   -0.9150    4.8124 H   0  0  0  0  0  0  0  0  0  0  0  0
    2.0677    0.4608    4.2491 H   0  0  0  0  0  0  0  0  0  0  0  0
  1  2  1  0  0  0  0
  2  3  1  0  0  0  0
  2  4  1  0  0  0  0
  2  5  1  0  0  0  0
  5  6  2  0  0  0  0
  5  7  1  0  0  0  0
  7  8  1  0  0  0  0
  7  9  1  0  0  0  0
  9 10  1  0  0  0  0
  9 11  1  0  0  0  0
  9 17  1  0  0  0  0
 11 12  1  0  0  0  0
 11 13  1  0  0  0  0
 11 14  1  0  0  0  0
 14 15  1  0  0  0  0
 14 16  2  0  0  0  0
 17 18  2  0  0  0  0
 17 19  1  0  0  0  0
 19 20  1  0  0  0  0
 19 21  1  0  0  0  0
 21 22  1  0  0  0  0
 21 23  1  0  0  0  0
 21 24  1  0  0  0  0
M  CHG  1  15  -1
M  END
$$$$

  -OEChem-01062216073D

 24 23  0     1  0  0  0  0  0999 V2000
   -2.8294   -3.3526    0.9103 H   0  0  0  0  0  0  0  0  0  0  0  0
   -2.7583   -2.3526    0.4736 C   0  0  0  0  0  0  0  0  0  0  0  0
   -3.5879   -1.7451    0.8435 H   0  0  0  0  0  0  0  0  0  0  0  0
   -2.8344   -2.4367   -0.6139 H   0  0  0  0  0  0  0  0  0  0  0  0
   -1.4364   -1.7071    0.8479 C   0  0  0  0  0  0  0  0  0  0  0  0
   -0.6533   -2.3092    1.5712 O   0  0  0  0  0  0  0  0  0  0  0  0
   -1.1489   -0.4471    0.3700 N   0  0  0  0  0  0  0  0  0  0  0  0
   -1.7701   -0.1108   -0.3616 H   0  0  0  0  0  0  0  0  0  0  0  0
    0.1985    0.1386    0.3672 C   0  0  1  0  0  0  0  0  0  0  0  0
    0.9269   -0.6039    0.0229 H   0  0  0  0  0  0  0  0  0  0  0  0
    0.1377    1.2955   -0.6519 C   0  0  0  0  0  0  0  0  0  0  0  0
   -0.6817    1.9747   -0.3984 H   0  0  0  0  0  0  0  0  0  0  0  0
    1.0696    1.8645   -0.5998 H   0  0  0  0  0  0  0  0  0  0  0  0
   -0.0177    0.8152   -2.0929 C   0  0  0  0  0  0  0  0  0  0  0  0
    0.4506   -0.3041   -2.4157 O   0  5  0  0  0  0  0  0  0  0  0  0
   -0.7360    1.5233   -2.8380 O   0  0  0  0  0  0  0  0  0  0  0  0
    0.6614    0.6013    1.7745 C   0  0  0  0  0  0  0  0  0  0  0  0
    0.7233    1.7854    2.0963 O   0  0  0  0  0  0  0  0  0  0  0  0
    1.0475   -0.3501    2.6991 N   0  0  0  0  0  0  0  0  0  0  0  0
    0.7526   -1.3025    2.4652 H   0  0  0  0  0  0  0  0  0  0  0  0
    1.3682   -0.0422    4.0840 C   0  0  0  0  0  0  0  0  0  0  0  0
    0.4948    0.3759    4.5943 H   0  0  0  0  0  0  0  0  0  0  0  0
    1.6760   -0.9522    4.6072 H   0  0  0  0  0  0  0  0  0  0  0  0
    2.1897    0.6793    4.1361 H   0  0  0  0  0  0  0  0  0  0  0  0
  1  2  1  0  0  0  0
  2  3  1  0  0  0  0
  2  4  1  0  0  0  0
  2  5  1  0  0  0  0
  5  6  2  0  0  0  0
  5  7  1  0  0  0  0
  7  8  1  0  0  0  0
  7  9  1  0  0  0  0
  9 10  1  0  0  0  0
  9 11  1  0  0  0  0
  9 17  1  0  0  0  0
 11 12  1  0  0  0  0
 11 13  1  0  0  0  0
 11 14  1  0  0  0  0
 14 15  1  0  0  0  0
 14 16  2  0  0  0  0
 17 18  2  0  0  0  0
 17 19  1  0  0  0  0
 19 20  1  0  0  0  0
 19 21  1  0  0  0  0
 21 22  1  0  0  0  0
 21 23  1  0  0  0  0
 21 24  1  0  0  0  0
M  CHG  1  15  -1
M  END
$$$$

  -OEChem-01062216073D

 24 23  0     1  0  0  0  0  0999 V2000
   -2.7618   -3.3607    0.9731 H   0  0  0  0  0  0  0  0  0  0  0  0
   -2.7258   -2.3617    0.5300 C   0  0  0  0  0  0  0  0  0  0  0  0
   -3.5597   -1.7717    0.9178 H   0  0  0  0  0  0  0  0  0  0  0  0
   -2.8276   -2.4536   -0.5546 H   0  0  0  0  0  0  0  0  0  0  0  0
   -1.4106   -1.6829    0.8680 C   0  0  0  0  0  0  0  0  0  0  0  0
   -0.5989   -2.2537    1.5868 O   0  0  0  0  0  0  0  0  0  0  0  0
   -1.1519   -0.4267    0.3644 N   0  0  0  0  0  0  0  0  0  0  0  0
   -1.7774   -0.1105   -0.3721 H   0  0  0  0  0  0  0  0  0  0  0  0
    0.1944    0.1548    0.3519 C   0  0  1  0  0  0  0  0  0  0  0  0
    0.9236   -0.5897    0.0135 H   0  0  0  0  0  0  0  0  0  0  0  0
    0.1484    1.3108   -0.6677 C   0  0  0  0  0  0  0  0  0  0  0  0
   -0.6671    1.9963   -0.4185 H   0  0  0  0  0  0  0  0  0  0  0  0
    1.0842    1.8723   -0.6104 H   0  0  0  0  0  0  0  0  0  0  0  0
   -0.0088    0.8302   -2.1081 C   0  0  0  0  0  0  0  0  0  0  0  0
    0.4487   -0.2949   -2.4267 O   0  5  0  0  0  0  0  0  0  0  0  0
   -0.7043    1.5511   -2.8625 O   0  0  0  0  0  0  0  0  0  0  0  0
    0.6369    0.6275    1.7593 C   0  0  0  0  0  0  0  0  0  0  0  0
    0.4775    1.7809    2.1520 O   0  0  0  0  0  0  0  0  0  0  0  0
    1.2982   -0.2700    2.5759 N   0  0  0  0  0  0  0  0  0  0  0  0
    1.1238   -1.2462    2.3272 H   0  0  0  0  0  0  0  0  0  0  0  0
    1.6590    0.0311    3.9526 C   0  0  0  0  0  0  0  0  0  0  0  0
    0.7617    0.2201    4.5504 H   0  0  0  0  0  0  0  0  0  0  0  0
    2.1991   -0.8135    4.3903 H   0  0  0  0  0  0  0  0  0  0  0  0
    2.3067    0.9126    3.9955 H   0  0  0  0  0  0  0  0  0  0  0  0
  1  2  1  0  0  0  0
  2  3  1  0  0  0  0
  2  4  1  0  0  0  0
  2  5  1  0  0  0  0
  5  6  2  0  0  0  0
  5  7  1  0  0  0  0
  7  8  1  0  0  0  0
  7  9  1  0  0  0  0
  9 10  1  0  0  0  0
  9 11  1  0  0  0  0
  9 17  1  0  0  0  0
 11 12  1  0  0  0  0
 11 13  1  0  0  0  0
 11 14  1  0  0  0  0
 14 15  1  0  0  0  0
 14 16  2  0  0  0  0
 17 18  2  0  0  0  0
 17 19  1  0  0  0  0
 19 20  1  0  0  0  0
 19 21  1  0  0  0  0
 21 22  1  0  0  0  0
 21 23  1  0  0  0  0
 21 24  1  0  0  0  0
M  CHG  1  15  -1
M  END
$$$$

  -OEChem-01062216073D

 24 23  0     1  0  0  0  0  0999 V2000
   -2.7292   -3.3725    0.9834 H   0  0  0  0  0  0  0  0  0  0  0  0
   -2.7174   -2.3664    0.5553 C   0  0  0  0  0  0  0  0  0  0  0  0
   -3.5512   -1.7945    0.9697 H   0  0  0  0  0  0  0  0  0  0  0  0
   -2.8406   -2.4434   -0.5282 H   0  0  0  0  0  0  0  0  0  0  0  0
   -1.4054   -1.6738    0.8761 C   0  0  0  0  0  0  0  0  0  0  0  0
   -0.5800   -2.2312    1.5893 O   0  0  0  0  0  0  0  0  0  0  0  0
   -1.1594   -0.4216    0.3582 N   0  0  0  0  0  0  0  0  0  0  0  0
   -1.7916   -0.1088   -0.3734 H   0  0  0  0  0  0  0  0  0  0  0  0
    0.1843    0.1617    0.3446 C   0  0  1  0  0  0  0  0  0  0  0  0
    0.9140   -0.5848    0.0117 H   0  0  0  0  0  0  0  0  0  0  0  0
    0.1490    1.3167   -0.6751 C   0  0  0  0  0  0  0  0  0  0  0  0
   -0.6671    2.0034   -0.4313 H   0  0  0  0  0  0  0  0  0  0  0  0
    1.0855    1.8764   -0.6110 H   0  0  0  0  0  0  0  0  0  0  0  0
   -0.0017    0.8362   -2.1163 C   0  0  0  0  0  0  0  0  0  0  0  0
    0.4532   -0.2911   -2.4313 O   0  5  0  0  0  0  0  0  0  0  0  0
   -0.6759    1.5667   -2.8805 O   0  0  0  0  0  0  0  0  0  0  0  0
    0.6166    0.6470    1.7492 C   0  0  0  0  0  0  0  0  0  0  0  0
    0.2223    1.7088    2.2261 O   0  0  0  0  0  0  0  0  0  0  0  0
    1.5351   -0.1057    2.4572 N   0  0  0  0  0  0  0  0  0  0  0  0
    1.5933   -1.0765    2.1536 H   0  0  0  0  0  0  0  0  0  0  0  0
    1.9224    0.2078    3.8242 C   0  0  0  0  0  0  0  0  0  0  0  0
    1.0549    0.1519    4.4894 H   0  0  0  0  0  0  0  0  0  0  0  0
    2.6760   -0.5047    4.1722 H   0  0  0  0  0  0  0  0  0  0  0  0
    2.3489    1.2145    3.8803 H   0  0  0  0  0  0  0  0  0  0  0  0
  1  2  1  0  0  0  0
  2  3  1  0  0  0  0
  2  4  1  0  0  0  0
  2  5  1  0  0  0  0
  5  6  2  0  0  0  0
  5  7  1  0  0  0  0
  7  8  1  0  0  0  0
  7  9  1  0  0  0  0
  9 10  1  0  0  0  0
  9 11  1  0  0  0  0
  9 17  1  0  0  0  0
 11 12  1  0  0  0  0
 11 13  1  0  0  0  0
 11 14  1  0  0  0  0
 14 15  1  0  0  0  0
 14 16  2  0  0  0  0
 17 18  2  0  0  0  0
 17 19  1  0  0  0  0
 19 20  1  0  0  0  0
 19 21  1  0  0  0  0
 21 22  1  0  0  0  0
 21 23  1  0  0  0  0
 21 24  1  0  0  0  0
M  CHG  1  15  -1
M  END
$$$$

  -OEChem-01062216073D

 24 23  0     1  0  0  0  0  0999 V2000
   -2.7539   -3.3753    1.0050 H   0  0  0  0  0  0  0  0  0  0  0  0
   -2.7350   -2.3752    0.5633 C   0  0  0  0  0  0  0  0  0  0  0  0
   -3.5612   -1.7901    0.9745 H   0  0  0  0  0  0  0  0  0  0  0  0
   -2.8647   -2.4656   -0.5184 H   0  0  0  0  0  0  0  0  0  0  0  0
   -1.4150   -1.6905    0.8684 C   0  0  0  0  0  0  0  0  0  0  0  0
   -0.5858   -2.2526    1.5721 O   0  0  0  0  0  0  0  0  0  0  0  0
   -1.1676   -0.4401    0.3478 N   0  0  0  0  0  0  0  0  0  0  0  0
   -1.8118   -0.1131   -0.3663 H   0  0  0  0  0  0  0  0  0  0  0  0
    0.1695    0.1585    0.3462 C   0  0  1  0  0  0  0  0  0  0  0  0
    0.9054   -0.5854    0.0219 H   0  0  0  0  0  0  0  0  0  0  0  0
    0.1433    1.3164   -0.6693 C   0  0  0  0  0  0  0  0  0  0  0  0
   -0.6798    1.9974   -0.4334 H   0  0  0  0  0  0  0  0  0  0  0  0
    1.0759    1.8808   -0.5889 H   0  0  0  0  0  0  0  0  0  0  0  0
    0.0164    0.8441   -2.1150 C   0  0  0  0  0  0  0  0  0  0  0  0
    0.4817   -0.2789   -2.4295 O   0  5  0  0  0  0  0  0  0  0  0  0
   -0.6348    1.5845   -2.8895 O   0  0  0  0  0  0  0  0  0  0  0  0
    0.5919    0.6618    1.7464 C   0  0  0  0  0  0  0  0  0  0  0  0
   -0.0124    1.5648    2.3206 O   0  0  0  0  0  0  0  0  0  0  0  0
    1.7227    0.1305    2.3398 N   0  0  0  0  0  0  0  0  0  0  0  0
    2.0563   -0.7383    1.9312 H   0  0  0  0  0  0  0  0  0  0  0  0
    2.1402    0.4665    3.6924 C   0  0  0  0  0  0  0  0  0  0  0  0
    1.3743    0.1648    4.4139 H   0  0  0  0  0  0  0  0  0  0  0  0
    3.0727   -0.0511    3.9358 H   0  0  0  0  0  0  0  0  0  0  0  0
    2.3105    1.5440    3.7847 H   0  0  0  0  0  0  0  0  0  0  0  0
  1  2  1  0  0  0  0
  2  3  1  0  0  0  0
  2  4  1  0  0  0  0
  2  5  1  0  0  0  0
  5  6  2  0  0  0  0
  5  7  1  0  0  0  0
  7  8  1  0  0  0  0
  7  9  1  0  0  0  0
  9 10  1  0  0  0  0
  9 11  1  0  0  0  0
  9 17  1  0  0  0  0
 11 12  1  0  0  0  0
 11 13  1  0  0  0  0
 11 14  1  0  0  0  0
 14 15  1  0  0  0  0
 14 16  2  0  0  0  0
 17 18  2  0  0  0  0
 17 19  1  0  0  0  0
 19 20  1  0  0  0  0
 19 21  1  0  0  0  0
 21 22  1  0  0  0  0
 21 23  1  0  0  0  0
 21 24  1  0  0  0  0
M  CHG  1  15  -1
M  END
$$$$

  -OEChem-01062216073D

 24 23  0     1  0  0  0  0  0999 V2000
   -2.7834   -3.3839    1.0095 H   0  0  0  0  0  0  0  0  0  0  0  0
   -2.7545   -2.3890    0.5566 C   0  0  0  0  0  0  0  0  0  0  0  0
   -3.5754   -1.7920    0.9612 H   0  0  0  0  0  0  0  0  0  0  0  0
   -2.8846   -2.4899   -0.5241 H   0  0  0  0  0  0  0  0  0  0  0  0
   -1.4281   -1.7135    0.8556 C   0  0  0  0  0  0  0  0  0  0  0  0
   -0.5984   -2.2858    1.5497 O   0  0  0  0  0  0  0  0  0  0  0  0
   -1.1770   -0.4627    0.3379 N   0  0  0  0  0  0  0  0  0  0  0  0
   -1.8290   -0.1201   -0.3609 H   0  0  0  0  0  0  0  0  0  0  0  0
    0.1539    0.1500    0.3568 C   0  0  1  0  0  0  0  0  0  0  0  0
    0.8987   -0.5900    0.0434 H   0  0  0  0  0  0  0  0  0  0  0  0
    0.1354    1.3124   -0.6534 C   0  0  0  0  0  0  0  0  0  0  0  0
   -0.6968    1.9854   -0.4260 H   0  0  0  0  0  0  0  0  0  0  0  0
    1.0618    1.8838   -0.5558 H   0  0  0  0  0  0  0  0  0  0  0  0
    0.0360    0.8508   -2.1046 C   0  0  0  0  0  0  0  0  0  0  0  0
    0.5149   -0.2659   -2.4203 O   0  5  0  0  0  0  0  0  0  0  0  0
   -0.5961    1.5995   -2.8870 O   0  0  0  0  0  0  0  0  0  0  0  0
    0.5612    0.6658    1.7567 C   0  0  0  0  0  0  0  0  0  0  0  0
   -0.1854    1.3734    2.4296 O   0  0  0  0  0  0  0  0  0  0  0  0
    1.8332    0.3980    2.2306 N   0  0  0  0  0  0  0  0  0  0  0  0
    2.3705   -0.2843    1.7041 H   0  0  0  0  0  0  0  0  0  0  0  0
    2.2921    0.7843    3.5561 C   0  0  0  0  0  0  0  0  0  0  0  0
    1.6876    0.2954    4.3268 H   0  0  0  0  0  0  0  0  0  0  0  0
    3.3361    0.4881    3.6924 H   0  0  0  0  0  0  0  0  0  0  0  0
    2.2225    1.8693    3.6848 H   0  0  0  0  0  0  0  0  0  0  0  0
  1  2  1  0  0  0  0
  2  3  1  0  0  0  0
  2  4  1  0  0  0  0
  2  5  1  0  0  0  0
  5  6  2  0  0  0  0
  5  7  1  0  0  0  0
  7  8  1  0  0  0  0
  7  9  1  0  0  0  0
  9 10  1  0  0  0  0
  9 11  1  0  0  0  0
  9 17  1  0  0  0  0
 11 12  1  0  0  0  0
 11 13  1  0  0  0  0
 11 14  1  0  0  0  0
 14 15  1  0  0  0  0
 14 16  2  0  0  0  0
 17 18  2  0  0  0  0
 17 19  1  0  0  0  0
 19 20  1  0  0  0  0
 19 21  1  0  0  0  0
 21 22  1  0  0  0  0
 21 23  1  0  0  0  0
 21 24  1  0  0  0  0
M  CHG  1  15  -1
M  END
$$$$

  -OEChem-01062216073D

 24 23  0     1  0  0  0  0  0999 V2000
   -2.8126   -3.3960    1.0049 H   0  0  0  0  0  0  0  0  0  0  0  0
   -2.7729   -2.4049    0.5450 C   0  0  0  0  0  0  0  0  0  0  0  0
   -3.5853   -1.7955    0.9481 H   0  0  0  0  0  0  0  0  0  0  0  0
   -2.9069   -2.5113   -0.5345 H   0  0  0  0  0  0  0  0  0  0  0  0
   -1.4378   -1.7434    0.8359 C   0  0  0  0  0  0  0  0  0  0  0  0
   -0.6042   -2.3331    1.5101 O   0  0  0  0  0  0  0  0  0  0  0  0
   -1.1832   -0.4891    0.3279 N   0  0  0  0  0  0  0  0  0  0  0  0
   -1.8417   -0.1287   -0.3552 H   0  0  0  0  0  0  0  0  0  0  0  0
    0.1426    0.1341    0.3718 C   0  0  1  0  0  0  0  0  0  0  0  0
    0.8966   -0.5993    0.0653 H   0  0  0  0  0  0  0  0  0  0  0  0
    0.1291    1.3067   -0.6269 C   0  0  0  0  0  0  0  0  0  0  0  0
   -0.7117    1.9703   -0.4039 H   0  0  0  0  0  0  0  0  0  0  0  0
    1.0491    1.8852   -0.5113 H   0  0  0  0  0  0  0  0  0  0  0  0
    0.0547    0.8640   -2.0848 C   0  0  0  0  0  0  0  0  0  0  0  0
    0.5472   -0.2441   -2.4084 O   0  5  0  0  0  0  0  0  0  0  0  0
   -0.5640    1.6231   -2.8676 O   0  0  0  0  0  0  0  0  0  0  0  0
    0.5346    0.6534    1.7748 C   0  0  0  0  0  0  0  0  0  0  0  0
   -0.2888    1.1448    2.5439 O   0  0  0  0  0  0  0  0  0  0  0  0
    1.8717    0.6734    2.1309 N   0  0  0  0  0  0  0  0  0  0  0  0
    2.5188    0.2238    1.4902 H   0  0  0  0  0  0  0  0  0  0  0  0
    2.3571    1.1410    3.4200 C   0  0  0  0  0  0  0  0  0  0  0  0
    1.9374    0.5343    4.2288 H   0  0  0  0  0  0  0  0  0  0  0  0
    3.4477    1.0667    3.4592 H   0  0  0  0  0  0  0  0  0  0  0  0
    2.0759    2.1872    3.5774 H   0  0  0  0  0  0  0  0  0  0  0  0
  1  2  1  0  0  0  0
  2  3  1  0  0  0  0
  2  4  1  0  0  0  0
  2  5  1  0  0  0  0
  5  6  2  0  0  0  0
  5  7  1  0  0  0  0
  7  8  1  0  0  0  0
  7  9  1  0  0  0  0
  9 10  1  0  0  0  0
  9 11  1  0  0  0  0
  9 17  1  0  0  0  0
 11 12  1  0  0  0  0
 11 13  1  0  0  0  0
 11 14  1  0  0  0  0
 14 15  1  0  0  0  0
 14 16  2  0  0  0  0
 17 18  2  0  0  0  0
 17 19  1  0  0  0  0
 19 20  1  0  0  0  0
 19 21  1  0  0  0  0
 21 22  1  0  0  0  0
 21 23  1  0  0  0  0
 21 24  1  0  0  0  0
M  CHG  1  15  -1
M  END
$$$$

  -OEChem-01062216073D

 24 23  0     1  0  0  0  0  0999 V2000
   -2.8238   -3.4170    0.9609 H   0  0  0  0  0  0  0  0  0  0  0  0
   -2.7836   -2.4146    0.5263 C   0  0  0  0  0  0  0  0  0  0  0  0
   -3.5899   -1.8121    0.9516 H   0  0  0  0  0  0  0  0  0  0  0  0
   -2.9275   -2.4929   -0.5543 H   0  0  0  0  0  0  0  0  0  0  0  0
   -1.4431   -1.7667    0.8232 C   0  0  0  0  0  0  0  0  0  0  0  0
   -0.6095   -2.3761    1.4791 O   0  0  0  0  0  0  0  0  0  0  0  0
   -1.1817   -0.5097    0.3249 N   0  0  0  0  0  0  0  0  0  0  0  0
   -1.8388   -0.1407   -0.3545 H   0  0  0  0  0  0  0  0  0  0  0  0
    0.1418    0.1175    0.3879 C   0  0  1  0  0  0  0  0  0  0  0  0
    0.9038   -0.6081    0.0820 H   0  0  0  0  0  0  0  0  0  0  0  0
    0.1188    1.2985   -0.6027 C   0  0  0  0  0  0  0  0  0  0  0  0
   -0.7304    1.9501   -0.3762 H   0  0  0  0  0  0  0  0  0  0  0  0
    1.0311    1.8881   -0.4826 H   0  0  0  0  0  0  0  0  0  0  0  0
    0.0535    0.8702   -2.0651 C   0  0  0  0  0  0  0  0  0  0  0  0
    0.5582   -0.2286   -2.3994 O   0  5  0  0  0  0  0  0  0  0  0  0
   -0.5647    1.6356   -2.8421 O   0  0  0  0  0  0  0  0  0  0  0  0
    0.5274    0.6373    1.7942 C   0  0  0  0  0  0  0  0  0  0  0  0
   -0.3112    0.9067    2.6514 O   0  0  0  0  0  0  0  0  0  0  0  0
    1.8511    0.9539    2.0458 N   0  0  0  0  0  0  0  0  0  0  0  0
    2.5184    0.7418    1.3102 H   0  0  0  0  0  0  0  0  0  0  0  0
    2.3281    1.5041    3.3055 C   0  0  0  0  0  0  0  0  0  0  0  0
    2.0951    0.8245    4.1315 H   0  0  0  0  0  0  0  0  0  0  0  0
    3.4124    1.6437    3.2670 H   0  0  0  0  0  0  0  0  0  0  0  0
    1.8602    2.4743    3.5007 H   0  0  0  0  0  0  0  0  0  0  0  0
  1  2  1  0  0  0  0
  2  3  1  0  0  0  0
  2  4  1  0  0  0  0
  2  5  1  0  0  0  0
  5  6  2  0  0  0  0
  5  7  1  0  0  0  0
  7  8  1  0  0  0  0
  7  9  1  0  0  0  0
  9 10  1  0  0  0  0
  9 11  1  0  0  0  0
  9 17  1  0  0  0  0
 11 12  1  0  0  0  0
 11 13  1  0  0  0  0
 11 14  1  0  0  0  0
 14 15  1  0  0  0  0
 14 16  2  0  0  0  0
 17 18  2  0  0  0  0
 17 19  1  0  0  0  0
 19 20  1  0  0  0  0
 19 21  1  0  0  0  0
 21 22  1  0  0  0  0
 21 23  1  0  0  0  0
 21 24  1  0  0  0  0
M  CHG  1  15  -1
M  END
$$$$

  -OEChem-01062216073D

 24 23  0     1  0  0  0  0  0999 V2000
   -2.8851   -3.3822    1.0135 H   0  0  0  0  0  0  0  0  0  0  0  0
   -2.8265   -2.3649    0.6168 C   0  0  0  0  0  0  0  0  0  0  0  0
   -3.4818   -1.7184    1.2055 H   0  0  0  0  0  0  0  0  0  0  0  0
   -3.1667   -2.3696   -0.4217 H   0  0  0  0  0  0  0  0  0  0  0  0
   -1.3987   -1.8544    0.6901 C   0  0  0  0  0  0  0  0  0  0  0  0
   -0.5114   -2.6004    1.0802 O   0  0  0  0  0  0  0  0  0  0  0  0
   -1.1203   -0.5806    0.2440 N   0  0  0  0  0  0  0  0  0  0  0  0
   -1.8802   -0.0491   -0.1666 H   0  0  0  0  0  0  0  0  0  0  0  0
    0.1922    0.0675    0.3471 C   0  0  1  0  0  0  0  0  0  0  0  0
    0.9290   -0.5220   -0.2091 H   0  0  0  0  0  0  0  0  0  0  0  0
    0.0287    1.4592   -0.3023 C   0  0  0  0  0  0  0  0  0  0  0  0
   -0.8092    1.9844    0.1658 H   0  0  0  0  0  0  0  0  0  0  0  0
    0.9288    2.0528   -0.1292 H   0  0  0  0  0  0  0  0  0  0  0  0
   -0.1802    1.4181   -1.8124 C   0  0  0  0  0  0  0  0  0  0  0  0
    0.3161    0.4734   -2.4713 O   0  5  0  0  0  0  0  0  0  0  0  0
   -0.8886    2.3315   -2.2981 O   0  0  0  0  0  0  0  0  0  0  0  0
    0.7260    0.2327    1.7958 C   0  0  0  0  0  0  0  0  0  0  0  0
    0.0162    0.0638    2.7849 O   0  0  0  0  0  0  0  0  0  0  0  0
    1.9605    0.8308    1.9873 N   0  0  0  0  0  0  0  0  0  0  0  0
    2.4909    1.0565    1.1511 H   0  0  0  0  0  0  0  0  0  0  0  0
    2.4952    1.1969    3.2904 C   0  0  0  0  0  0  0  0  0  0  0  0
    2.5451    0.3199    3.9439 H   0  0  0  0  0  0  0  0  0  0  0  0
    3.5047    1.6035    3.1805 H   0  0  0  0  0  0  0  0  0  0  0  0
    1.8640    1.9563    3.7629 H   0  0  0  0  0  0  0  0  0  0  0  0
  1  2  1  0  0  0  0
  2  3  1  0  0  0  0
  2  4  1  0  0  0  0
  2  5  1  0  0  0  0
  5  6  2  0  0  0  0
  5  7  1  0  0  0  0
  7  8  1  0  0  0  0
  7  9  1  0  0  0  0
  9 10  1  0  0  0  0
  9 11  1  0  0  0  0
  9 17  1  0  0  0  0
 11 12  1  0  0  0  0
 11 13  1  0  0  0  0
 11 14  1  0  0  0  0
 14 15  1  0  0  0  0
 14 16  2  0  0  0  0
 17 18  2  0  0  0  0
 17 19  1  0  0  0  0
 19 20  1  0  0  0  0
 19 21  1  0  0  0  0
 21 22  1  0  0  0  0
 21 23  1  0  0  0  0
 21 24  1  0  0  0  0
M  CHG  1  15  -1
M  END
$$$$

  -OEChem-01062216073D

 24 23  0     1  0  0  0  0  0999 V2000
   -2.8840   -3.3698    1.0314 H   0  0  0  0  0  0  0  0  0  0  0  0
   -2.8211   -2.3548    0.6296 C   0  0  0  0  0  0  0  0  0  0  0  0
   -3.4562   -1.6986    1.2296 H   0  0  0  0  0  0  0  0  0  0  0  0
   -3.1828   -2.3588   -0.4017 H   0  0  0  0  0  0  0  0  0  0  0  0
   -1.3854   -1.8626    0.6714 C   0  0  0  0  0  0  0  0  0  0  0  0
   -0.4969   -2.6333    1.0060 O   0  0  0  0  0  0  0  0  0  0  0  0
   -1.1047   -0.5851    0.2352 N   0  0  0  0  0  0  0  0  0  0  0  0
   -1.8731   -0.0415   -0.1420 H   0  0  0  0  0  0  0  0  0  0  0  0
    0.2064    0.0683    0.3421 C   0  0  1  0  0  0  0  0  0  0  0  0
    0.9476   -0.5123   -0.2175 H   0  0  0  0  0  0  0  0  0  0  0  0
    0.0161    1.4558   -0.3164 C   0  0  0  0  0  0  0  0  0  0  0  0
   -0.8264    1.9712    0.1542 H   0  0  0  0  0  0  0  0  0  0  0  0
    0.9061    2.0678   -0.1605 H   0  0  0  0  0  0  0  0  0  0  0  0
   -0.1969    1.4061   -1.8258 C   0  0  0  0  0  0  0  0  0  0  0  0
    0.3120    0.4696   -2.4861 O   0  5  0  0  0  0  0  0  0  0  0  0
   -0.9208    2.3089   -2.3087 O   0  0  0  0  0  0  0  0  0  0  0  0
    0.7467    0.2319    1.7940 C   0  0  0  0  0  0  0  0  0  0  0  0
    0.1334   -0.1675    2.7805 O   0  0  0  0  0  0  0  0  0  0  0  0
    1.8063    1.0940    2.0293 N   0  0  0  0  0  0  0  0  0  0  0  0
    2.2373    1.5156    1.2120 H   0  0  0  0  0  0  0  0  0  0  0  0
    2.2751    1.4737    3.3542 C   0  0  0  0  0  0  0  0  0  0  0  0
    2.5429    0.5851    3.9349 H   0  0  0  0  0  0  0  0  0  0  0  0
    3.1606    2.1105    3.2701 H   0  0  0  0  0  0  0  0  0  0  0  0
    1.4981    2.0280    3.8902 H   0  0  0  0  0  0  0  0  0  0  0  0
  1  2  1  0  0  0  0
  2  3  1  0  0  0  0
  2  4  1  0  0  0  0
  2  5  1  0  0  0  0
  5  6  2  0  0  0  0
  5  7  1  0  0  0  0
  7  8  1  0  0  0  0
  7  9  1  0  0  0  0
  9 10  1  0  0  0  0
  9 11  1  0  0  0  0
  9 17  1  0  0  0  0
 11 12  1  0  0  0  0
 11 13  1  0  0  0  0
 11 14  1  0  0  0  0
 14 15  1  0  0  0  0
 14 16  2  0  0  0  0
 17 18  2  0  0  0  0
 17 19  1  0  0  0  0
 19 20  1  0  0  0  0
 19 21  1  0  0  0  0
 21 22  1  0  0  0  0
 21 23  1  0  0  0  0
 21 24  1  0  0  0  0
M  CHG  1  15  -1
M  END
$$$$

  -OEChem-01062216073D

 24 23  0     1  0  0  0  0  0999 V2000
   -2.8887   -3.3579    1.0398 H   0  0  0  0  0  0  0  0  0  0  0  0
   -2.8181   -2.3429    0.6393 C   0  0  0  0  0  0  0  0  0  0  0  0
   -3.4388   -1.6806    1.2476 H   0  0  0  0  0  0  0  0  0  0  0  0
   -3.1914   -2.3405   -0.3879 H   0  0  0  0  0  0  0  0  0  0  0  0
   -1.3760   -1.8683    0.6653 C   0  0  0  0  0  0  0  0  0  0  0  0
   -0.4929   -2.6611    0.9570 O   0  0  0  0  0  0  0  0  0  0  0  0
   -1.0911   -0.5889    0.2355 N   0  0  0  0  0  0  0  0  0  0  0  0
   -1.8631   -0.0464   -0.1356 H   0  0  0  0  0  0  0  0  0  0  0  0
    0.2152    0.0772    0.3411 C   0  0  1  0  0  0  0  0  0  0  0  0
    0.9619   -0.4988   -0.2163 H   0  0  0  0  0  0  0  0  0  0  0  0
    0.0028    1.4540   -0.3375 C   0  0  0  0  0  0  0  0  0  0  0  0
   -0.8440    1.9665    0.1288 H   0  0  0  0  0  0  0  0  0  0  0  0
    0.8866    2.0788   -0.2010 H   0  0  0  0  0  0  0  0  0  0  0  0
   -0.2091    1.3849   -1.8461 C   0  0  0  0  0  0  0  0  0  0  0  0
    0.3126    0.4512   -2.4995 O   0  5  0  0  0  0  0  0  0  0  0  0
   -0.9463    2.2739   -2.3345 O   0  0  0  0  0  0  0  0  0  0  0  0
    0.7620    0.2484    1.7945 C   0  0  0  0  0  0  0  0  0  0  0  0
    0.3239   -0.3786    2.7540 O   0  0  0  0  0  0  0  0  0  0  0  0
    1.5843    1.3225    2.1008 N   0  0  0  0  0  0  0  0  0  0  0  0
    1.8627    1.9149    1.3247 H   0  0  0  0  0  0  0  0  0  0  0  0
    2.0010    1.6824    3.4488 C   0  0  0  0  0  0  0  0  0  0  0  0
    2.5050    0.8392    3.9319 H   0  0  0  0  0  0  0  0  0  0  0  0
    2.6968    2.5258    3.4131 H   0  0  0  0  0  0  0  0  0  0  0  0
    1.1347    1.9719    4.0521 H   0  0  0  0  0  0  0  0  0  0  0  0
  1  2  1  0  0  0  0
  2  3  1  0  0  0  0
  2  4  1  0  0  0  0
  2  5  1  0  0  0  0
  5  6  2  0  0  0  0
  5  7  1  0  0  0  0
  7  8  1  0  0  0  0
  7  9  1  0  0  0  0
  9 10  1  0  0  0  0
  9 11  1  0  0  0  0
  9 17  1  0  0  0  0
 11 12  1  0  0  0  0
 11 13  1  0  0  0  0
 11 14  1  0  0  0  0
 14 15  1  0  0  0  0
 14 16  2  0  0  0  0
 17 18  2  0  0  0  0
 17 19  1  0  0  0  0
 19 20  1  0  0  0  0
 19 21  1  0  0  0  0
 21 22  1  0  0  0  0
 21 23  1  0  0  0  0
 21 24  1  0  0  0  0
M  CHG  1  15  -1
M  END
$$$$

  -OEChem-01062216073D

 24 23  0     1  0  0  0  0  0999 V2000
   -2.9088   -3.3545    1.0137 H   0  0  0  0  0  0  0  0  0  0  0  0
   -2.8253   -2.3351    0.6273 C   0  0  0  0  0  0  0  0  0  0  0  0
   -3.4508   -1.6764    1.2343 H   0  0  0  0  0  0  0  0  0  0  0  0
   -3.1824   -2.3177   -0.4053 H   0  0  0  0  0  0  0  0  0  0  0  0
   -1.3807   -1.8705    0.6808 C   0  0  0  0  0  0  0  0  0  0  0  0
   -0.5133   -2.6743    0.9834 O   0  0  0  0  0  0  0  0  0  0  0  0
   -1.0855   -0.5938    0.2491 N   0  0  0  0  0  0  0  0  0  0  0  0
   -1.8460   -0.0745   -0.1758 H   0  0  0  0  0  0  0  0  0  0  0  0
    0.2134    0.0893    0.3514 C   0  0  1  0  0  0  0  0  0  0  0  0
    0.9684   -0.4868   -0.1949 H   0  0  0  0  0  0  0  0  0  0  0  0
   -0.0066    1.4530   -0.3516 C   0  0  0  0  0  0  0  0  0  0  0  0
   -0.8565    1.9713    0.1025 H   0  0  0  0  0  0  0  0  0  0  0  0
    0.8784    2.0791   -0.2256 H   0  0  0  0  0  0  0  0  0  0  0  0
   -0.2085    1.3598   -1.8603 C   0  0  0  0  0  0  0  0  0  0  0  0
    0.3232    0.4225   -2.4994 O   0  5  0  0  0  0  0  0  0  0  0  0
   -0.9583    2.2313   -2.3610 O   0  0  0  0  0  0  0  0  0  0  0  0
    0.7560    0.2799    1.8058 C   0  0  0  0  0  0  0  0  0  0  0  0
    0.6035   -0.5433    2.7001 O   0  0  0  0  0  0  0  0  0  0  0  0
    1.2929    1.4976    2.1978 N   0  0  0  0  0  0  0  0  0  0  0  0
    1.3405    2.2206    1.4867 H   0  0  0  0  0  0  0  0  0  0  0  0
    1.7055    1.8158    3.5577 C   0  0  0  0  0  0  0  0  0  0  0  0
    2.4585    1.1015    3.9063 H   0  0  0  0  0  0  0  0  0  0  0  0
    2.1395    2.8193    3.5926 H   0  0  0  0  0  0  0  0  0  0  0  0
    0.8461    1.7849    4.2350 H   0  0  0  0  0  0  0  0  0  0  0  0
  1  2  1  0  0  0  0
  2  3  1  0  0  0  0
  2  4  1  0  0  0  0
  2  5  1  0  0  0  0
  5  6  2  0  0  0  0
  5  7  1  0  0  0  0
  7  8  1  0  0  0  0
  7  9  1  0  0  0  0
  9 10  1  0  0  0  0
  9 11  1  0  0  0  0
  9 17  1  0  0  0  0
 11 12  1  0  0  0  0
 11 13  1  0  0  0  0
 11 14  1  0  0  0  0
 14 15  1  0  0  0  0
 14 16  2  0  0  0  0
 17 18  2  0  0  0  0
 17 19  1  0  0  0  0
 19 20  1  0  0  0  0
 19 21  1  0  0  0  0
 21 22  1  0  0  0  0
 21 23  1  0  0  0  0
 21 24  1  0  0  0  0
M  CHG  1  15  -1
M  END
$$$$

  -OEChem-01062216073D

 24 23  0     1  0  0  0  0  0999 V2000
   -2.9798   -3.3844    0.8406 H   0  0  0  0  0  0  0  0  0  0  0  0
   -2.8599   -2.3680    0.4554 C   0  0  0  0  0  0  0  0  0  0  0  0
   -3.6083   -1.7236    0.9226 H   0  0  0  0  0  0  0  0  0  0  0  0
   -3.0219   -2.3796   -0.6254 H   0  0  0  0  0  0  0  0  0  0  0  0
   -1.4659   -1.8495    0.7627 C   0  0  0  0  0  0  0  0  0  0  0  0
   -0.6782   -2.5943    1.3173 O   0  0  0  0  0  0  0  0  0  0  0  0
   -1.1344   -0.5850    0.3217 N   0  0  0  0  0  0  0  0  0  0  0  0
   -1.7915   -0.1765   -0.3365 H   0  0  0  0  0  0  0  0  0  0  0  0
    0.1660    0.0985    0.4288 C   0  0  1  0  0  0  0  0  0  0  0  0
    0.9260   -0.4896   -0.0975 H   0  0  0  0  0  0  0  0  0  0  0  0
   -0.0449    1.4476   -0.3023 C   0  0  0  0  0  0  0  0  0  0  0  0
   -0.9021    1.9745    0.1277 H   0  0  0  0  0  0  0  0  0  0  0  0
    0.8410    2.0733   -0.1710 H   0  0  0  0  0  0  0  0  0  0  0  0
   -0.2283    1.3179   -1.8103 C   0  0  0  0  0  0  0  0  0  0  0  0
    0.3111    0.3652   -2.4189 O   0  5  0  0  0  0  0  0  0  0  0  0
   -1.0016    2.1535   -2.3346 O   0  0  0  0  0  0  0  0  0  0  0  0
    0.7030    0.3194    1.8786 C   0  0  0  0  0  0  0  0  0  0  0  0
    1.0240   -0.5934    2.6277 O   0  0  0  0  0  0  0  0  0  0  0  0
    0.9444    1.6034    2.3459 N   0  0  0  0  0  0  0  0  0  0  0  0
    0.7137    2.3648    1.7149 H   0  0  0  0  0  0  0  0  0  0  0  0
    1.5116    1.9098    3.6515 C   0  0  0  0  0  0  0  0  0  0  0  0
    2.5133    1.4781    3.7438 H   0  0  0  0  0  0  0  0  0  0  0  0
    1.5877    2.9931    3.7825 H   0  0  0  0  0  0  0  0  0  0  0  0
    0.8768    1.5083    4.4480 H   0  0  0  0  0  0  0  0  0  0  0  0
  1  2  1  0  0  0  0
  2  3  1  0  0  0  0
  2  4  1  0  0  0  0
  2  5  1  0  0  0  0
  5  6  2  0  0  0  0
  5  7  1  0  0  0  0
  7  8  1  0  0  0  0
  7  9  1  0  0  0  0
  9 10  1  0  0  0  0
  9 11  1  0  0  0  0
  9 17  1  0  0  0  0
 11 12  1  0  0  0  0
 11 13  1  0  0  0  0
 11 14  1  0  0  0  0
 14 15  1  0  0  0  0
 14 16  2  0  0  0  0
 17 18  2  0  0  0  0
 17 19  1  0  0  0  0
 19 20  1  0  0  0  0
 19 21  1  0  0  0  0
 21 22  1  0  0  0  0
 21 23  1  0  0  0  0
 21 24  1  0  0  0  0
M  CHG  1  15  -1
M  END
$$$$

  -OEChem-01062216073D

 24 23  0     1  0  0  0  0  0999 V2000
   -2.9730   -3.4264    0.7372 H   0  0  0  0  0  0  0  0  0  0  0  0
   -2.8456   -2.4212    0.3261 C   0  0  0  0  0  0  0  0  0  0  0  0
   -3.6925   -1.8034    0.6340 H   0  0  0  0  0  0  0  0  0  0  0  0
   -2.8291   -2.4869   -0.7649 H   0  0  0  0  0  0  0  0  0  0  0  0
   -1.5488   -1.8085    0.8252 C   0  0  0  0  0  0  0  0  0  0  0  0
   -0.8663   -2.4410    1.6100 O   0  0  0  0  0  0  0  0  0  0  0  0
   -1.2051   -0.5545    0.3668 N   0  0  0  0  0  0  0  0  0  0  0  0
   -1.7692   -0.2353   -0.4168 H   0  0  0  0  0  0  0  0  0  0  0  0
    0.1137    0.0919    0.4704 C   0  0  1  0  0  0  0  0  0  0  0  0
    0.8587   -0.5172   -0.0539 H   0  0  0  0  0  0  0  0  0  0  0  0
   -0.0574    1.4467   -0.2564 C   0  0  0  0  0  0  0  0  0  0  0  0
   -0.9039    1.9944    0.1687 H   0  0  0  0  0  0  0  0  0  0  0  0
    0.8447    2.0473   -0.1122 H   0  0  0  0  0  0  0  0  0  0  0  0
   -0.2474    1.3151   -1.7636 C   0  0  0  0  0  0  0  0  0  0  0  0
    0.2632    0.3422   -2.3657 O   0  5  0  0  0  0  0  0  0  0  0  0
   -1.0135    2.1560   -2.2897 O   0  0  0  0  0  0  0  0  0  0  0  0
    0.6485    0.3005    1.9179 C   0  0  0  0  0  0  0  0  0  0  0  0
    1.3162   -0.5502    2.4938 O   0  0  0  0  0  0  0  0  0  0  0  0
    0.6278    1.5638    2.4905 N   0  0  0  0  0  0  0  0  0  0  0  0
    0.1831    2.2971    1.9470 H   0  0  0  0  0  0  0  0  0  0  0  0
    1.2770    1.9043    3.7483 C   0  0  0  0  0  0  0  0  0  0  0  0
    2.3609    1.7746    3.6664 H   0  0  0  0  0  0  0  0  0  0  0  0
    1.0708    2.9471    4.0065 H   0  0  0  0  0  0  0  0  0  0  0  0
    0.9030    1.2673    4.5565 H   0  0  0  0  0  0  0  0  0  0  0  0
  1  2  1  0  0  0  0
  2  3  1  0  0  0  0
  2  4  1  0  0  0  0
  2  5  1  0  0  0  0
  5  6  2  0  0  0  0
  5  7  1  0  0  0  0
  7  8  1  0  0  0  0
  7  9  1  0  0  0  0
  9 10  1  0  0  0  0
  9 11  1  0  0  0  0
  9 17  1  0  0  0  0
 11 12  1  0  0  0  0
 11 13  1  0  0  0  0
 11 14  1  0  0  0  0
 14 15  1  0  0  0  0
 14 16  2  0  0  0  0
 17 18  2  0  0  0  0
 17 19  1  0  0  0  0
 19 20  1  0  0  0  0
 19 21  1  0  0  0  0
 21 22  1  0  0  0  0
 21 23  1  0  0  0  0
 21 24  1  0  0  0  0
M  CHG  1  15  -1
M  END
$$$$

  -OEChem-01062216073D

 24 23  0     1  0  0  0  0  0999 V2000
   -2.9636   -3.4392    0.7419 H   0  0  0  0  0  0  0  0  0  0  0  0
   -2.8343   -2.4470    0.3010 C   0  0  0  0  0  0  0  0  0  0  0  0
   -3.7024   -1.8326    0.5518 H   0  0  0  0  0  0  0  0  0  0  0  0
   -2.7716   -2.5505   -0.7855 H   0  0  0  0  0  0  0  0  0  0  0  0
   -1.5689   -1.7963    0.8312 C   0  0  0  0  0  0  0  0  0  0  0  0
   -0.9071   -2.3857    1.6669 O   0  0  0  0  0  0  0  0  0  0  0  0
   -1.2310   -0.5439    0.3657 N   0  0  0  0  0  0  0  0  0  0  0  0
   -1.7714   -0.2474   -0.4436 H   0  0  0  0  0  0  0  0  0  0  0  0
    0.1001    0.0748    0.4635 C   0  0  1  0  0  0  0  0  0  0  0  0
    0.8309   -0.5433   -0.0703 H   0  0  0  0  0  0  0  0  0  0  0  0
   -0.0417    1.4443   -0.2384 C   0  0  0  0  0  0  0  0  0  0  0  0
   -0.8740    2.0050    0.1970 H   0  0  0  0  0  0  0  0  0  0  0  0
    0.8741    2.0207   -0.0819 H   0  0  0  0  0  0  0  0  0  0  0  0
   -0.2467    1.3378   -1.7456 C   0  0  0  0  0  0  0  0  0  0  0  0
    0.2348    0.3597   -2.3639 O   0  5  0  0  0  0  0  0  0  0  0  0
   -1.0036    2.1981   -2.2537 O   0  0  0  0  0  0  0  0  0  0  0  0
    0.6342    0.2593    1.9107 C   0  0  0  0  0  0  0  0  0  0  0  0
    1.4994   -0.4766    2.3729 O   0  0  0  0  0  0  0  0  0  0  0  0
    0.3578    1.4280    2.6032 N   0  0  0  0  0  0  0  0  0  0  0  0
   -0.2578    2.0896    2.1410 H   0  0  0  0  0  0  0  0  0  0  0  0
    0.9830    1.7964    3.8647 C   0  0  0  0  0  0  0  0  0  0  0  0
    2.0630    1.9183    3.7342 H   0  0  0  0  0  0  0  0  0  0  0  0
    0.5686    2.7415    4.2272 H   0  0  0  0  0  0  0  0  0  0  0  0
    0.8009    1.0262    4.6211 H   0  0  0  0  0  0  0  0  0  0  0  0
  1  2  1  0  0  0  0
  2  3  1  0  0  0  0
  2  4  1  0  0  0  0
  2  5  1  0  0  0  0
  5  6  2  0  0  0  0
  5  7  1  0  0  0  0
  7  8  1  0  0  0  0
  7  9  1  0  0  0  0
  9 10  1  0  0  0  0
  9 11  1  0  0  0  0
  9 17  1  0  0  0  0
 11 12  1  0  0  0  0
 11 13  1  0  0  0  0
 11 14  1  0  0  0  0
 14 15  1  0  0  0  0
 14 16  2  0  0  0  0
 17 18  2  0  0  0  0
 17 19  1  0  0  0  0
 19 20  1  0  0  0  0
 19 21  1  0  0  0  0
 21 22  1  0  0  0  0
 21 23  1  0  0  0  0
 21 24  1  0  0  0  0
M  CHG  1  15  -1
M  END
$$$$

  -OEChem-01062216073D

 24 23  0     1  0  0  0  0  0999 V2000
   -2.9535   -3.4313    0.7758 H   0  0  0  0  0  0  0  0  0  0  0  0
   -2.8263   -2.4470    0.3165 C   0  0  0  0  0  0  0  0  0  0  0  0
   -3.6957   -1.8298    0.5558 H   0  0  0  0  0  0  0  0  0  0  0  0
   -2.7639   -2.5707   -0.7678 H   0  0  0  0  0  0  0  0  0  0  0  0
   -1.5615   -1.7843    0.8330 C   0  0  0  0  0  0  0  0  0  0  0  0
   -0.8913   -2.3573    1.6745 O   0  0  0  0  0  0  0  0  0  0  0  0
   -1.2292   -0.5344    0.3574 N   0  0  0  0  0  0  0  0  0  0  0  0
   -1.7684   -0.2461   -0.4562 H   0  0  0  0  0  0  0  0  0  0  0  0
    0.1119    0.0646    0.4355 C   0  0  1  0  0  0  0  0  0  0  0  0
    0.8276   -0.5593   -0.1120 H   0  0  0  0  0  0  0  0  0  0  0  0
   -0.0179    1.4440   -0.2447 C   0  0  0  0  0  0  0  0  0  0  0  0
   -0.8314    2.0148    0.2124 H   0  0  0  0  0  0  0  0  0  0  0  0
    0.9101    2.0020   -0.0945 H   0  0  0  0  0  0  0  0  0  0  0  0
   -0.2525    1.3549   -1.7490 C   0  0  0  0  0  0  0  0  0  0  0  0
    0.2009    0.3737   -2.3841 O   0  5  0  0  0  0  0  0  0  0  0  0
   -1.0146    2.2243   -2.2338 O   0  0  0  0  0  0  0  0  0  0  0  0
    0.6584    0.2348    1.8765 C   0  0  0  0  0  0  0  0  0  0  0  0
    1.6736   -0.3460    2.2467 O   0  0  0  0  0  0  0  0  0  0  0  0
    0.1572    1.2435    2.6830 N   0  0  0  0  0  0  0  0  0  0  0  0
   -0.6349    1.7619    2.3177 H   0  0  0  0  0  0  0  0  0  0  0  0
    0.6949    1.5828    3.9916 C   0  0  0  0  0  0  0  0  0  0  0  0
    1.7320    1.9219    3.9023 H   0  0  0  0  0  0  0  0  0  0  0  0
    0.1050    2.3856    4.4433 H   0  0  0  0  0  0  0  0  0  0  0  0
    0.6611    0.7128    4.6552 H   0  0  0  0  0  0  0  0  0  0  0  0
  1  2  1  0  0  0  0
  2  3  1  0  0  0  0
  2  4  1  0  0  0  0
  2  5  1  0  0  0  0
  5  6  2  0  0  0  0
  5  7  1  0  0  0  0
  7  8  1  0  0  0  0
  7  9  1  0  0  0  0
  9 10  1  0  0  0  0
  9 11  1  0  0  0  0
  9 17  1  0  0  0  0
 11 12  1  0  0  0  0
 11 13  1  0  0  0  0
 11 14  1  0  0  0  0
 14 15  1  0  0  0  0
 14 16  2  0  0  0  0
 17 18  2  0  0  0  0
 17 19  1  0  0  0  0
 19 20  1  0  0  0  0
 19 21  1  0  0  0  0
 21 22  1  0  0  0  0
 21 23  1  0  0  0  0
 21 24  1  0  0  0  0
M  CHG  1  15  -1
M  END
$$$$

  -OEChem-01062216073D

 24 23  0     1  0  0  0  0  0999 V2000
   -2.9265   -3.4210    0.8074 H   0  0  0  0  0  0  0  0  0  0  0  0
   -2.8140   -2.4356    0.3467 C   0  0  0  0  0  0  0  0  0  0  0  0
   -3.6840   -1.8251    0.6001 H   0  0  0  0  0  0  0  0  0  0  0  0
   -2.7681   -2.5579   -0.7386 H   0  0  0  0  0  0  0  0  0  0  0  0
   -1.5464   -1.7636    0.8438 C   0  0  0  0  0  0  0  0  0  0  0  0
   -0.8679   -2.3212    1.6897 O   0  0  0  0  0  0  0  0  0  0  0  0
   -1.2184   -0.5189    0.3517 N   0  0  0  0  0  0  0  0  0  0  0  0
   -1.7607   -0.2401   -0.4636 H   0  0  0  0  0  0  0  0  0  0  0  0
    0.1299    0.0668    0.4059 C   0  0  1  0  0  0  0  0  0  0  0  0
    0.8327   -0.5637   -0.1508 H   0  0  0  0  0  0  0  0  0  0  0  0
    0.0037    1.4492   -0.2647 C   0  0  0  0  0  0  0  0  0  0  0  0
   -0.7918    2.0289    0.2126 H   0  0  0  0  0  0  0  0  0  0  0  0
    0.9419    1.9944   -0.1305 H   0  0  0  0  0  0  0  0  0  0  0  0
   -0.2608    1.3649   -1.7647 C   0  0  0  0  0  0  0  0  0  0  0  0
    0.1699    0.3787   -2.4084 O   0  5  0  0  0  0  0  0  0  0  0  0
   -1.0292    2.2375   -2.2335 O   0  0  0  0  0  0  0  0  0  0  0  0
    0.6906    0.2367    1.8392 C   0  0  0  0  0  0  0  0  0  0  0  0
    1.8180   -0.1484    2.1334 O   0  0  0  0  0  0  0  0  0  0  0  0
    0.0070    1.0318    2.7433 N   0  0  0  0  0  0  0  0  0  0  0  0
   -0.9285    1.3130    2.4692 H   0  0  0  0  0  0  0  0  0  0  0  0
    0.4580    1.2790    4.1040 C   0  0  0  0  0  0  0  0  0  0  0  0
    1.4318    1.7790    4.0994 H   0  0  0  0  0  0  0  0  0  0  0  0
   -0.2576    1.9215    4.6252 H   0  0  0  0  0  0  0  0  0  0  0  0
    0.5446    0.3364    4.6541 H   0  0  0  0  0  0  0  0  0  0  0  0
  1  2  1  0  0  0  0
  2  3  1  0  0  0  0
  2  4  1  0  0  0  0
  2  5  1  0  0  0  0
  5  6  2  0  0  0  0
  5  7  1  0  0  0  0
  7  8  1  0  0  0  0
  7  9  1  0  0  0  0
  9 10  1  0  0  0  0
  9 11  1  0  0  0  0
  9 17  1  0  0  0  0
 11 12  1  0  0  0  0
 11 13  1  0  0  0  0
 11 14  1  0  0  0  0
 14 15  1  0  0  0  0
 14 16  2  0  0  0  0
 17 18  2  0  0  0  0
 17 19  1  0  0  0  0
 19 20  1  0  0  0  0
 19 21  1  0  0  0  0
 21 22  1  0  0  0  0
 21 23  1  0  0  0  0
 21 24  1  0  0  0  0
M  CHG  1  15  -1
M  END
$$$$

  -OEChem-01062216073D

 24 23  0     1  0  0  0  0  0999 V2000
   -2.9324   -3.4031    0.8230 H   0  0  0  0  0  0  0  0  0  0  0  0
   -2.8126   -2.4239    0.3510 C   0  0  0  0  0  0  0  0  0  0  0  0
   -3.6791   -1.8046    0.5953 H   0  0  0  0  0  0  0  0  0  0  0  0
   -2.7654   -2.5594   -0.7327 H   0  0  0  0  0  0  0  0  0  0  0  0
   -1.5418   -1.7538    0.8418 C   0  0  0  0  0  0  0  0  0  0  0  0
   -0.8642   -2.3041    1.6939 O   0  0  0  0  0  0  0  0  0  0  0  0
   -1.2104   -0.5128    0.3434 N   0  0  0  0  0  0  0  0  0  0  0  0
   -1.7506   -0.2354   -0.4743 H   0  0  0  0  0  0  0  0  0  0  0  0
    0.1415    0.0671    0.3936 C   0  0  1  0  0  0  0  0  0  0  0  0
    0.8418   -0.5639   -0.1653 H   0  0  0  0  0  0  0  0  0  0  0  0
    0.0110    1.4504   -0.2715 C   0  0  0  0  0  0  0  0  0  0  0  0
   -0.7804    2.0280    0.2150 H   0  0  0  0  0  0  0  0  0  0  0  0
    0.9497    1.9960   -0.1427 H   0  0  0  0  0  0  0  0  0  0  0  0
   -0.2638    1.3670   -1.7699 C   0  0  0  0  0  0  0  0  0  0  0  0
    0.1633    0.3804   -2.4161 O   0  5  0  0  0  0  0  0  0  0  0  0
   -1.0442    2.2327   -2.2319 O   0  0  0  0  0  0  0  0  0  0  0  0
    0.7082    0.2428    1.8229 C   0  0  0  0  0  0  0  0  0  0  0  0
    1.9022    0.0833    2.0584 O   0  0  0  0  0  0  0  0  0  0  0  0
   -0.1020    0.7752    2.8105 N   0  0  0  0  0  0  0  0  0  0  0  0
   -1.0923    0.8004    2.5919 H   0  0  0  0  0  0  0  0  0  0  0  0
    0.3234    0.9421    4.1910 C   0  0  0  0  0  0  0  0  0  0  0  0
    1.1898    1.6088    4.2461 H   0  0  0  0  0  0  0  0  0  0  0  0
   -0.4867    1.3791    4.7821 H   0  0  0  0  0  0  0  0  0  0  0  0
    0.5914   -0.0256    4.6272 H   0  0  0  0  0  0  0  0  0  0  0  0
  1  2  1  0  0  0  0
  2  3  1  0  0  0  0
  2  4  1  0  0  0  0
  2  5  1  0  0  0  0
  5  6  2  0  0  0  0
  5  7  1  0  0  0  0
  7  8  1  0  0  0  0
  7  9  1  0  0  0  0
  9 10  1  0  0  0  0
  9 11  1  0  0  0  0
  9 17  1  0  0  0  0
 11 12  1  0  0  0  0
 11 13  1  0  0  0  0
 11 14  1  0  0  0  0
 14 15  1  0  0  0  0
 14 16  2  0  0  0  0
 17 18  2  0  0  0  0
 17 19  1  0  0  0  0
 19 20  1  0  0  0  0
 19 21  1  0  0  0  0
 21 22  1  0  0  0  0
 21 23  1  0  0  0  0
 21 24  1  0  0  0  0
M  CHG  1  15  -1
M  END
$$$$

  -OEChem-01062216073D

 24 23  0     1  0  0  0  0  0999 V2000
   -2.9514   -3.3948    0.7905 H   0  0  0  0  0  0  0  0  0  0  0  0
   -2.8204   -2.4198    0.3128 C   0  0  0  0  0  0  0  0  0  0  0  0
   -3.6958   -1.8010    0.5248 H   0  0  0  0  0  0  0  0  0  0  0  0
   -2.7403   -2.5657   -0.7678 H   0  0  0  0  0  0  0  0  0  0  0  0
   -1.5664   -1.7416    0.8343 C   0  0  0  0  0  0  0  0  0  0  0  0
   -0.9121   -2.2809    1.7116 O   0  0  0  0  0  0  0  0  0  0  0  0
   -1.2239   -0.5023    0.3401 N   0  0  0  0  0  0  0  0  0  0  0  0
   -1.7550   -0.2212   -0.4825 H   0  0  0  0  0  0  0  0  0  0  0  0
    0.1304    0.0741    0.4007 C   0  0  1  0  0  0  0  0  0  0  0  0
    0.8301   -0.5618   -0.1530 H   0  0  0  0  0  0  0  0  0  0  0  0
    0.0031    1.4520   -0.2759 C   0  0  0  0  0  0  0  0  0  0  0  0
   -0.7922    2.0322    0.2013 H   0  0  0  0  0  0  0  0  0  0  0  0
    0.9399    2.0008   -0.1459 H   0  0  0  0  0  0  0  0  0  0  0  0
   -0.2594    1.3536   -1.7761 C   0  0  0  0  0  0  0  0  0  0  0  0
    0.1755    0.3610   -2.4086 O   0  5  0  0  0  0  0  0  0  0  0  0
   -1.0410    2.2100   -2.2533 O   0  0  0  0  0  0  0  0  0  0  0  0
    0.7075    0.2577    1.8265 C   0  0  0  0  0  0  0  0  0  0  0  0
    1.9183    0.3416    2.0098 O   0  0  0  0  0  0  0  0  0  0  0  0
   -0.1452    0.4974    2.8896 N   0  0  0  0  0  0  0  0  0  0  0  0
   -1.1098    0.2319    2.7184 H   0  0  0  0  0  0  0  0  0  0  0  0
    0.3153    0.5932    4.2659 C   0  0  0  0  0  0  0  0  0  0  0  0
    1.0276    1.4175    4.3751 H   0  0  0  0  0  0  0  0  0  0  0  0
   -0.5320    0.7796    4.9321 H   0  0  0  0  0  0  0  0  0  0  0  0
    0.8007   -0.3392    4.5715 H   0  0  0  0  0  0  0  0  0  0  0  0
  1  2  1  0  0  0  0
  2  3  1  0  0  0  0
  2  4  1  0  0  0  0
  2  5  1  0  0  0  0
  5  6  2  0  0  0  0
  5  7  1  0  0  0  0
  7  8  1  0  0  0  0
  7  9  1  0  0  0  0
  9 10  1  0  0  0  0
  9 11  1  0  0  0  0
  9 17  1  0  0  0  0
 11 12  1  0  0  0  0
 11 13  1  0  0  0  0
 11 14  1  0  0  0  0
 14 15  1  0  0  0  0
 14 16  2  0  0  0  0
 17 18  2  0  0  0  0
 17 19  1  0  0  0  0
 19 20  1  0  0  0  0
 19 21  1  0  0  0  0
 21 22  1  0  0  0  0
 21 23  1  0  0  0  0
 21 24  1  0  0  0  0
M  CHG  1  15  -1
M  END
$$$$

  -OEChem-01062216073D

 24 23  0     1  0  0  0  0  0999 V2000
   -2.9929   -3.3901    0.7066 H   0  0  0  0  0  0  0  0  0  0  0  0
   -2.8511   -2.4037    0.2566 C   0  0  0  0  0  0  0  0  0  0  0  0
   -3.7210   -1.7824    0.4833 H   0  0  0  0  0  0  0  0  0  0  0  0
   -2.7696   -2.5202   -0.8275 H   0  0  0  0  0  0  0  0  0  0  0  0
   -1.5925   -1.7522    0.8004 C   0  0  0  0  0  0  0  0  0  0  0  0
   -0.9625   -2.3067    1.6865 O   0  0  0  0  0  0  0  0  0  0  0  0
   -1.2284   -0.5098    0.3318 N   0  0  0  0  0  0  0  0  0  0  0  0
   -1.7577   -0.2015   -0.4823 H   0  0  0  0  0  0  0  0  0  0  0  0
    0.1243    0.0718    0.4155 C   0  0  1  0  0  0  0  0  0  0  0  0
    0.8296   -0.5591   -0.1364 H   0  0  0  0  0  0  0  0  0  0  0  0
   -0.0119    1.4474   -0.2674 C   0  0  0  0  0  0  0  0  0  0  0  0
   -0.8200    2.0185    0.1993 H   0  0  0  0  0  0  0  0  0  0  0  0
    0.9150    2.0104   -0.1297 H   0  0  0  0  0  0  0  0  0  0  0  0
   -0.2537    1.3412   -1.7708 C   0  0  0  0  0  0  0  0  0  0  0  0
    0.2023    0.3522   -2.3944 O   0  5  0  0  0  0  0  0  0  0  0  0
   -1.0448    2.1821   -2.2599 O   0  0  0  0  0  0  0  0  0  0  0  0
    0.7092    0.2528    1.8422 C   0  0  0  0  0  0  0  0  0  0  0  0
    1.8773    0.5976    1.9983 O   0  0  0  0  0  0  0  0  0  0  0  0
   -0.1084    0.1764    2.9557 N   0  0  0  0  0  0  0  0  0  0  0  0
   -0.9407   -0.3881    2.7993 H   0  0  0  0  0  0  0  0  0  0  0  0
    0.4043    0.2679    4.3141 C   0  0  0  0  0  0  0  0  0  0  0  0
    0.9054    1.2286    4.4705 H   0  0  0  0  0  0  0  0  0  0  0  0
   -0.4185    0.1888    5.0306 H   0  0  0  0  0  0  0  0  0  0  0  0
    1.1164   -0.5403    4.5090 H   0  0  0  0  0  0  0  0  0  0  0  0
  1  2  1  0  0  0  0
  2  3  1  0  0  0  0
  2  4  1  0  0  0  0
  2  5  1  0  0  0  0
  5  6  2  0  0  0  0
  5  7  1  0  0  0  0
  7  8  1  0  0  0  0
  7  9  1  0  0  0  0
  9 10  1  0  0  0  0
  9 11  1  0  0  0  0
  9 17  1  0  0  0  0
 11 12  1  0  0  0  0
 11 13  1  0  0  0  0
 11 14  1  0  0  0  0
 14 15  1  0  0  0  0
 14 16  2  0  0  0  0
 17 18  2  0  0  0  0
 17 19  1  0  0  0  0
 19 20  1  0  0  0  0
 19 21  1  0  0  0  0
 21 22  1  0  0  0  0
 21 23  1  0  0  0  0
 21 24  1  0  0  0  0
M  CHG  1  15  -1
M  END
$$$$

  -OEChem-01062216073D

 24 23  0     1  0  0  0  0  0999 V2000
   -3.0318   -3.3797    0.6452 H   0  0  0  0  0  0  0  0  0  0  0  0
   -2.8839   -2.3791    0.2296 C   0  0  0  0  0  0  0  0  0  0  0  0
   -3.7360   -1.7520    0.5033 H   0  0  0  0  0  0  0  0  0  0  0  0
   -2.8330   -2.4551   -0.8598 H   0  0  0  0  0  0  0  0  0  0  0  0
   -1.5998   -1.7709    0.7642 C   0  0  0  0  0  0  0  0  0  0  0  0
   -0.9539   -2.3786    1.6038 O   0  0  0  0  0  0  0  0  0  0  0  0
   -1.2201   -0.5228    0.3220 N   0  0  0  0  0  0  0  0  0  0  0  0
   -1.7635   -0.1777   -0.4674 H   0  0  0  0  0  0  0  0  0  0  0  0
    0.1255    0.0748    0.4283 C   0  0  1  0  0  0  0  0  0  0  0  0
    0.8416   -0.5472   -0.1196 H   0  0  0  0  0  0  0  0  0  0  0  0
   -0.0289    1.4453   -0.2648 C   0  0  0  0  0  0  0  0  0  0  0  0
   -0.8534    2.0035    0.1890 H   0  0  0  0  0  0  0  0  0  0  0  0
    0.8844    2.0290   -0.1223 H   0  0  0  0  0  0  0  0  0  0  0  0
   -0.2476    1.3276   -1.7712 C   0  0  0  0  0  0  0  0  0  0  0  0
    0.2367    0.3454   -2.3844 O   0  5  0  0  0  0  0  0  0  0  0  0
   -1.0527    2.1472   -2.2734 O   0  0  0  0  0  0  0  0  0  0  0  0
    0.7117    0.2584    1.8582 C   0  0  0  0  0  0  0  0  0  0  0  0
    1.7904    0.8217    2.0225 O   0  0  0  0  0  0  0  0  0  0  0  0
    0.0055   -0.1216    2.9852 N   0  0  0  0  0  0  0  0  0  0  0  0
   -0.6897   -0.8440    2.7938 H   0  0  0  0  0  0  0  0  0  0  0  0
    0.5661   -0.0613    4.3267 C   0  0  0  0  0  0  0  0  0  0  0  0
    0.8477    0.9661    4.5791 H   0  0  0  0  0  0  0  0  0  0  0  0
   -0.1732   -0.4046    5.0562 H   0  0  0  0  0  0  0  0  0  0  0  0
    1.4516   -0.7007    4.3998 H   0  0  0  0  0  0  0  0  0  0  0  0
  1  2  1  0  0  0  0
  2  3  1  0  0  0  0
  2  4  1  0  0  0  0
  2  5  1  0  0  0  0
  5  6  2  0  0  0  0
  5  7  1  0  0  0  0
  7  8  1  0  0  0  0
  7  9  1  0  0  0  0
  9 10  1  0  0  0  0
  9 11  1  0  0  0  0
  9 17  1  0  0  0  0
 11 12  1  0  0  0  0
 11 13  1  0  0  0  0
 11 14  1  0  0  0  0
 14 15  1  0  0  0  0
 14 16  2  0  0  0  0
 17 18  2  0  0  0  0
 17 19  1  0  0  0  0
 19 20  1  0  0  0  0
 19 21  1  0  0  0  0
 21 22  1  0  0  0  0
 21 23  1  0  0  0  0
 21 24  1  0  0  0  0
M  CHG  1  15  -1
M  END
$$$$

  -OEChem-01062216073D

 24 23  0     1  0  0  0  0  0999 V2000
   -3.0487   -3.3737    0.5855 H   0  0  0  0  0  0  0  0  0  0  0  0
   -2.9137   -2.3439    0.2436 C   0  0  0  0  0  0  0  0  0  0  0  0
   -3.7304   -1.7312    0.6330 H   0  0  0  0  0  0  0  0  0  0  0  0
   -2.9472   -2.3295   -0.8491 H   0  0  0  0  0  0  0  0  0  0  0  0
   -1.5817   -1.7976    0.7254 C   0  0  0  0  0  0  0  0  0  0  0  0
   -0.8952   -2.4761    1.4743 O   0  0  0  0  0  0  0  0  0  0  0  0
   -1.1936   -0.5425    0.3094 N   0  0  0  0  0  0  0  0  0  0  0  0
   -1.7682   -0.1503   -0.4343 H   0  0  0  0  0  0  0  0  0  0  0  0
    0.1413    0.0768    0.4330 C   0  0  1  0  0  0  0  0  0  0  0  0
    0.8710   -0.5320   -0.1115 H   0  0  0  0  0  0  0  0  0  0  0  0
   -0.0374    1.4411   -0.2700 C   0  0  0  0  0  0  0  0  0  0  0  0
   -0.8772    1.9839    0.1739 H   0  0  0  0  0  0  0  0  0  0  0  0
    0.8607    2.0469   -0.1256 H   0  0  0  0  0  0  0  0  0  0  0  0
   -0.2369    1.3136   -1.7785 C   0  0  0  0  0  0  0  0  0  0  0  0
    0.2766    0.3414   -2.3838 O   0  5  0  0  0  0  0  0  0  0  0  0
   -1.0608    2.1091   -2.2894 O   0  0  0  0  0  0  0  0  0  0  0  0
    0.7197    0.2591    1.8699 C   0  0  0  0  0  0  0  0  0  0  0  0
    1.6594    1.0220    2.0782 O   0  0  0  0  0  0  0  0  0  0  0  0
    0.1861   -0.3952    2.9650 N   0  0  0  0  0  0  0  0  0  0  0  0
   -0.3952   -1.1998    2.7225 H   0  0  0  0  0  0  0  0  0  0  0  0
    0.7798   -0.3551    4.2928 C   0  0  0  0  0  0  0  0  0  0  0  0
    0.8230    0.6744    4.6624 H   0  0  0  0  0  0  0  0  0  0  0  0
    0.1775   -0.9460    4.9890 H   0  0  0  0  0  0  0  0  0  0  0  0
    1.7934   -0.7679    4.2713 H   0  0  0  0  0  0  0  0  0  0  0  0
  1  2  1  0  0  0  0
  2  3  1  0  0  0  0
  2  4  1  0  0  0  0
  2  5  1  0  0  0  0
  5  6  2  0  0  0  0
  5  7  1  0  0  0  0
  7  8  1  0  0  0  0
  7  9  1  0  0  0  0
  9 10  1  0  0  0  0
  9 11  1  0  0  0  0
  9 17  1  0  0  0  0
 11 12  1  0  0  0  0
 11 13  1  0  0  0  0
 11 14  1  0  0  0  0
 14 15  1  0  0  0  0
 14 16  2  0  0  0  0
 17 18  2  0  0  0  0
 17 19  1  0  0  0  0
 19 20  1  0  0  0  0
 19 21  1  0  0  0  0
 21 22  1  0  0  0  0
 21 23  1  0  0  0  0
 21 24  1  0  0  0  0
M  CHG  1  15  -1
M  END
$$$$

  -OEChem-01062216073D

 24 23  0     1  0  0  0  0  0999 V2000
   -3.0716   -3.3520    0.6076 H   0  0  0  0  0  0  0  0  0  0  0  0
   -2.9289   -2.3188    0.2793 C   0  0  0  0  0  0  0  0  0  0  0  0
   -3.7087   -1.6952    0.7236 H   0  0  0  0  0  0  0  0  0  0  0  0
   -3.0194   -2.2801   -0.8095 H   0  0  0  0  0  0  0  0  0  0  0  0
   -1.5603   -1.8151    0.7017 C   0  0  0  0  0  0  0  0  0  0  0  0
   -0.8368   -2.5458    1.3619 O   0  0  0  0  0  0  0  0  0  0  0  0
   -1.1729   -0.5531    0.3051 N   0  0  0  0  0  0  0  0  0  0  0  0
   -1.7811   -0.1220   -0.3881 H   0  0  0  0  0  0  0  0  0  0  0  0
    0.1560    0.0786    0.4289 C   0  0  1  0  0  0  0  0  0  0  0  0
    0.8881   -0.5233   -0.1198 H   0  0  0  0  0  0  0  0  0  0  0  0
   -0.0353    1.4411   -0.2775 C   0  0  0  0  0  0  0  0  0  0  0  0
   -0.8789    1.9782    0.1659 H   0  0  0  0  0  0  0  0  0  0  0  0
    0.8578    2.0549   -0.1361 H   0  0  0  0  0  0  0  0  0  0  0  0
   -0.2323    1.3118   -1.7862 C   0  0  0  0  0  0  0  0  0  0  0  0
    0.2910    0.3448   -2.3915 O   0  5  0  0  0  0  0  0  0  0  0  0
   -1.0622    2.1009   -2.2978 O   0  0  0  0  0  0  0  0  0  0  0  0
    0.7380    0.2478    1.8683 C   0  0  0  0  0  0  0  0  0  0  0  0
    1.4926    1.1760    2.1466 O   0  0  0  0  0  0  0  0  0  0  0  0
    0.4352   -0.6288    2.8932 N   0  0  0  0  0  0  0  0  0  0  0  0
   -0.0512   -1.4802    2.6035 H   0  0  0  0  0  0  0  0  0  0  0  0
    1.0417   -0.5857    4.2150 C   0  0  0  0  0  0  0  0  0  0  0  0
    0.8374    0.3745    4.6991 H   0  0  0  0  0  0  0  0  0  0  0  0
    0.6291   -1.3823    4.8410 H   0  0  0  0  0  0  0  0  0  0  0  0
    2.1251   -0.7244    4.1431 H   0  0  0  0  0  0  0  0  0  0  0  0
  1  2  1  0  0  0  0
  2  3  1  0  0  0  0
  2  4  1  0  0  0  0
  2  5  1  0  0  0  0
  5  6  2  0  0  0  0
  5  7  1  0  0  0  0
  7  8  1  0  0  0  0
  7  9  1  0  0  0  0
  9 10  1  0  0  0  0
  9 11  1  0  0  0  0
  9 17  1  0  0  0  0
 11 12  1  0  0  0  0
 11 13  1  0  0  0  0
 11 14  1  0  0  0  0
 14 15  1  0  0  0  0
 14 16  2  0  0  0  0
 17 18  2  0  0  0  0
 17 19  1  0  0  0  0
 19 20  1  0  0  0  0
 19 21  1  0  0  0  0
 21 22  1  0  0  0  0
 21 23  1  0  0  0  0
 21 24  1  0  0  0  0
M  CHG  1  15  -1
M  END
$$$$

  -OEChem-01062216073D

 24 23  0     1  0  0  0  0  0999 V2000
   -3.0598   -3.3333    0.6889 H   0  0  0  0  0  0  0  0  0  0  0  0
   -2.9189   -2.3023    0.3528 C   0  0  0  0  0  0  0  0  0  0  0  0
   -3.6639   -1.6673    0.8386 H   0  0  0  0  0  0  0  0  0  0  0  0
   -3.0665   -2.2615   -0.7297 H   0  0  0  0  0  0  0  0  0  0  0  0
   -1.5221   -1.8203    0.7013 C   0  0  0  0  0  0  0  0  0  0  0  0
   -0.7630   -2.5785    1.2866 O   0  0  0  0  0  0  0  0  0  0  0  0
   -1.1482   -0.5519    0.3114 N   0  0  0  0  0  0  0  0  0  0  0  0
   -1.7930   -0.0941   -0.3292 H   0  0  0  0  0  0  0  0  0  0  0  0
    0.1798    0.0846    0.4080 C   0  0  1  0  0  0  0  0  0  0  0  0
    0.9013   -0.5137   -0.1584 H   0  0  0  0  0  0  0  0  0  0  0  0
   -0.0184    1.4485   -0.2928 C   0  0  0  0  0  0  0  0  0  0  0  0
   -0.8521    1.9884    0.1659 H   0  0  0  0  0  0  0  0  0  0  0  0
    0.8804    2.0566   -0.1643 H   0  0  0  0  0  0  0  0  0  0  0  0
   -0.2407    1.3244   -1.7984 C   0  0  0  0  0  0  0  0  0  0  0  0
    0.2697    0.3572   -2.4145 O   0  5  0  0  0  0  0  0  0  0  0  0
   -1.0679    2.1241   -2.2977 O   0  0  0  0  0  0  0  0  0  0  0  0
    0.7853    0.2317    1.8397 C   0  0  0  0  0  0  0  0  0  0  0  0
    1.3116    1.2758    2.2161 O   0  0  0  0  0  0  0  0  0  0  0  0
    0.7550   -0.8055    2.7517 N   0  0  0  0  0  0  0  0  0  0  0  0
    0.3257   -1.6740    2.4230 H   0  0  0  0  0  0  0  0  0  0  0  0
    1.3047   -0.7478    4.0972 C   0  0  0  0  0  0  0  0  0  0  0  0
    0.8233    0.0489    4.6732 H   0  0  0  0  0  0  0  0  0  0  0  0
    1.1340   -1.6983    4.6109 H   0  0  0  0  0  0  0  0  0  0  0  0
    2.3828   -0.5610    4.0620 H   0  0  0  0  0  0  0  0  0  0  0  0
  1  2  1  0  0  0  0
  2  3  1  0  0  0  0
  2  4  1  0  0  0  0
  2  5  1  0  0  0  0
  5  6  2  0  0  0  0
  5  7  1  0  0  0  0
  7  8  1  0  0  0  0
  7  9  1  0  0  0  0
  9 10  1  0  0  0  0
  9 11  1  0  0  0  0
  9 17  1  0  0  0  0
 11 12  1  0  0  0  0
 11 13  1  0  0  0  0
 11 14  1  0  0  0  0
 14 15  1  0  0  0  0
 14 16  2  0  0  0  0
 17 18  2  0  0  0  0
 17 19  1  0  0  0  0
 19 20  1  0  0  0  0
 19 21  1  0  0  0  0
 21 22  1  0  0  0  0
 21 23  1  0  0  0  0
 21 24  1  0  0  0  0
M  CHG  1  15  -1
M  END
$$$$

  -OEChem-01062216073D

 24 23  0     1  0  0  0  0  0999 V2000
   -3.0093   -3.3305    0.7669 H   0  0  0  0  0  0  0  0  0  0  0  0
   -2.8850   -2.2997    0.4239 C   0  0  0  0  0  0  0  0  0  0  0  0
   -3.6252   -1.6695    0.9231 H   0  0  0  0  0  0  0  0  0  0  0  0
   -3.0570   -2.2649   -0.6552 H   0  0  0  0  0  0  0  0  0  0  0  0
   -1.4849   -1.8032    0.7385 C   0  0  0  0  0  0  0  0  0  0  0  0
   -0.7030   -2.5514    1.3070 O   0  0  0  0  0  0  0  0  0  0  0  0
   -1.1291   -0.5354    0.3311 N   0  0  0  0  0  0  0  0  0  0  0  0
   -1.7927   -0.0805   -0.2918 H   0  0  0  0  0  0  0  0  0  0  0  0
    0.2029    0.0943    0.3851 C   0  0  1  0  0  0  0  0  0  0  0  0
    0.9059   -0.5088   -0.1991 H   0  0  0  0  0  0  0  0  0  0  0  0
    0.0045    1.4597   -0.3104 C   0  0  0  0  0  0  0  0  0  0  0  0
   -0.8114    2.0091    0.1685 H   0  0  0  0  0  0  0  0  0  0  0  0
    0.9148    2.0547   -0.2005 H   0  0  0  0  0  0  0  0  0  0  0  0
   -0.2587    1.3382   -1.8094 C   0  0  0  0  0  0  0  0  0  0  0  0
    0.2233    0.3633   -2.4366 O   0  5  0  0  0  0  0  0  0  0  0  0
   -1.0802    2.1537   -2.2920 O   0  0  0  0  0  0  0  0  0  0  0  0
    0.8373    0.2326    1.8026 C   0  0  0  0  0  0  0  0  0  0  0  0
    1.1427    1.3243    2.2766 O   0  0  0  0  0  0  0  0  0  0  0  0
    1.0892   -0.8810    2.5804 N   0  0  0  0  0  0  0  0  0  0  0  0
    0.6767   -1.7520    2.2348 H   0  0  0  0  0  0  0  0  0  0  0  0
    1.5745   -0.8288    3.9509 C   0  0  0  0  0  0  0  0  0  0  0  0
    0.8642   -0.2928    4.5883 H   0  0  0  0  0  0  0  0  0  0  0  0
    1.6970   -1.8429    4.3423 H   0  0  0  0  0  0  0  0  0  0  0  0
    2.5442   -0.3226    3.9946 H   0  0  0  0  0  0  0  0  0  0  0  0
  1  2  1  0  0  0  0
  2  3  1  0  0  0  0
  2  4  1  0  0  0  0
  2  5  1  0  0  0  0
  5  6  2  0  0  0  0
  5  7  1  0  0  0  0
  7  8  1  0  0  0  0
  7  9  1  0  0  0  0
  9 10  1  0  0  0  0
  9 11  1  0  0  0  0
  9 17  1  0  0  0  0
 11 12  1  0  0  0  0
 11 13  1  0  0  0  0
 11 14  1  0  0  0  0
 14 15  1  0  0  0  0
 14 16  2  0  0  0  0
 17 18  2  0  0  0  0
 17 19  1  0  0  0  0
 19 20  1  0  0  0  0
 19 21  1  0  0  0  0
 21 22  1  0  0  0  0
 21 23  1  0  0  0  0
 21 24  1  0  0  0  0
M  CHG  1  15  -1
M  END
$$$$

  -OEChem-01062216073D

 24 23  0     1  0  0  0  0  0999 V2000
   -2.9200   -3.3407    0.8745 H   0  0  0  0  0  0  0  0  0  0  0  0
   -2.8302   -2.3149    0.5066 C   0  0  0  0  0  0  0  0  0  0  0  0
   -3.5719   -1.6919    1.0124 H   0  0  0  0  0  0  0  0  0  0  0  0
   -3.0313   -2.3073   -0.5680 H   0  0  0  0  0  0  0  0  0  0  0  0
   -1.4353   -1.7784    0.7741 C   0  0  0  0  0  0  0  0  0  0  0  0
   -0.6162   -2.4936    1.3343 O   0  0  0  0  0  0  0  0  0  0  0  0
   -1.1171   -0.5109    0.3367 N   0  0  0  0  0  0  0  0  0  0  0  0
   -1.7968   -0.0729   -0.2805 H   0  0  0  0  0  0  0  0  0  0  0  0
    0.2127    0.1191    0.3640 C   0  0  1  0  0  0  0  0  0  0  0  0
    0.9123   -0.4882   -0.2206 H   0  0  0  0  0  0  0  0  0  0  0  0
    0.0220    1.4828   -0.3343 C   0  0  0  0  0  0  0  0  0  0  0  0
   -0.7863    2.0405    0.1483 H   0  0  0  0  0  0  0  0  0  0  0  0
    0.9389    2.0684   -0.2288 H   0  0  0  0  0  0  0  0  0  0  0  0
   -0.2582    1.3568   -1.8299 C   0  0  0  0  0  0  0  0  0  0  0  0
    0.2074    0.3730   -2.4557 O   0  5  0  0  0  0  0  0  0  0  0  0
   -1.0635    2.1872   -2.3143 O   0  0  0  0  0  0  0  0  0  0  0  0
    0.8371    0.2606    1.7817 C   0  0  0  0  0  0  0  0  0  0  0  0
    0.9223    1.3441    2.3552 O   0  0  0  0  0  0  0  0  0  0  0  0
    1.3567   -0.8505    2.4180 N   0  0  0  0  0  0  0  0  0  0  0  0
    1.0104   -1.7372    2.0415 H   0  0  0  0  0  0  0  0  0  0  0  0
    1.8382   -0.8310    3.7907 C   0  0  0  0  0  0  0  0  0  0  0  0
    1.0334   -0.5416    4.4739 H   0  0  0  0  0  0  0  0  0  0  0  0
    2.1964   -1.8247    4.0749 H   0  0  0  0  0  0  0  0  0  0  0  0
    2.6662   -0.1228    3.8964 H   0  0  0  0  0  0  0  0  0  0  0  0
  1  2  1  0  0  0  0
  2  3  1  0  0  0  0
  2  4  1  0  0  0  0
  2  5  1  0  0  0  0
  5  6  2  0  0  0  0
  5  7  1  0  0  0  0
  7  8  1  0  0  0  0
  7  9  1  0  0  0  0
  9 10  1  0  0  0  0
  9 11  1  0  0  0  0
  9 17  1  0  0  0  0
 11 12  1  0  0  0  0
 11 13  1  0  0  0  0
 11 14  1  0  0  0  0
 14 15  1  0  0  0  0
 14 16  2  0  0  0  0
 17 18  2  0  0  0  0
 17 19  1  0  0  0  0
 19 20  1  0  0  0  0
 19 21  1  0  0  0  0
 21 22  1  0  0  0  0
 21 23  1  0  0  0  0
 21 24  1  0  0  0  0
M  CHG  1  15  -1
M  END
$$$$

  -OEChem-01062216073D

 24 23  0     1  0  0  0  0  0999 V2000
   -2.8355   -3.3543    0.9582 H   0  0  0  0  0  0  0  0  0  0  0  0
   -2.7818   -2.3343    0.5675 C   0  0  0  0  0  0  0  0  0  0  0  0
   -3.5325   -1.7220    1.0731 H   0  0  0  0  0  0  0  0  0  0  0  0
   -3.0007   -2.3548   -0.5033 H   0  0  0  0  0  0  0  0  0  0  0  0
   -1.3988   -1.7530    0.8002 C   0  0  0  0  0  0  0  0  0  0  0  0
   -0.5459   -2.4303    1.3591 O   0  0  0  0  0  0  0  0  0  0  0  0
   -1.1182   -0.4870    0.3344 N   0  0  0  0  0  0  0  0  0  0  0  0
   -1.8069   -0.0688   -0.2860 H   0  0  0  0  0  0  0  0  0  0  0  0
    0.2089    0.1413    0.3480 C   0  0  1  0  0  0  0  0  0  0  0  0
    0.9090   -0.4705   -0.2310 H   0  0  0  0  0  0  0  0  0  0  0  0
    0.0337    1.5047   -0.3520 C   0  0  0  0  0  0  0  0  0  0  0  0
   -0.7701    2.0704    0.1286 H   0  0  0  0  0  0  0  0  0  0  0  0
    0.9562    2.0807   -0.2444 H   0  0  0  0  0  0  0  0  0  0  0  0
   -0.2507    1.3772   -1.8467 C   0  0  0  0  0  0  0  0  0  0  0  0
    0.2026    0.3852   -2.4690 O   0  5  0  0  0  0  0  0  0  0  0  0
   -1.0340    2.2238   -2.3387 O   0  0  0  0  0  0  0  0  0  0  0  0
    0.8096    0.2871    1.7718 C   0  0  0  0  0  0  0  0  0  0  0  0
    0.6812    1.3130    2.4360 O   0  0  0  0  0  0  0  0  0  0  0  0
    1.5835   -0.7387    2.2811 N   0  0  0  0  0  0  0  0  0  0  0  0
    1.3675   -1.6444    1.8606 H   0  0  0  0  0  0  0  0  0  0  0  0
    2.0962   -0.7321    3.6427 C   0  0  0  0  0  0  0  0  0  0  0  0
    1.2713   -0.6959    4.3615 H   0  0  0  0  0  0  0  0  0  0  0  0
    2.6798   -1.6389    3.8266 H   0  0  0  0  0  0  0  0  0  0  0  0
    2.7458    0.1342    3.8036 H   0  0  0  0  0  0  0  0  0  0  0  0
  1  2  1  0  0  0  0
  2  3  1  0  0  0  0
  2  4  1  0  0  0  0
  2  5  1  0  0  0  0
  5  6  2  0  0  0  0
  5  7  1  0  0  0  0
  7  8  1  0  0  0  0
  7  9  1  0  0  0  0
  9 10  1  0  0  0  0
  9 11  1  0  0  0  0
  9 17  1  0  0  0  0
 11 12  1  0  0  0  0
 11 13  1  0  0  0  0
 11 14  1  0  0  0  0
 14 15  1  0  0  0  0
 14 16  2  0  0  0  0
 17 18  2  0  0  0  0
 17 19  1  0  0  0  0
 19 20  1  0  0  0  0
 19 21  1  0  0  0  0
 21 22  1  0  0  0  0
 21 23  1  0  0  0  0
 21 24  1  0  0  0  0
M  CHG  1  15  -1
M  END
$$$$

  -OEChem-01062216073D

 24 23  0     1  0  0  0  0  0999 V2000
   -2.7961   -3.3607    1.0107 H   0  0  0  0  0  0  0  0  0  0  0  0
   -2.7616   -2.3459    0.6052 C   0  0  0  0  0  0  0  0  0  0  0  0
   -3.5148   -1.7372    1.1116 H   0  0  0  0  0  0  0  0  0  0  0  0
   -2.9927   -2.3846   -0.4625 H   0  0  0  0  0  0  0  0  0  0  0  0
   -1.3843   -1.7421    0.8136 C   0  0  0  0  0  0  0  0  0  0  0  0
   -0.5132   -2.3974    1.3706 O   0  0  0  0  0  0  0  0  0  0  0  0
   -1.1249   -0.4790    0.3293 N   0  0  0  0  0  0  0  0  0  0  0  0
   -1.8229   -0.0693   -0.2855 H   0  0  0  0  0  0  0  0  0  0  0  0
    0.1989    0.1522    0.3370 C   0  0  1  0  0  0  0  0  0  0  0  0
    0.8991   -0.4635   -0.2376 H   0  0  0  0  0  0  0  0  0  0  0  0
    0.0375    1.5163   -0.3627 C   0  0  0  0  0  0  0  0  0  0  0  0
   -0.7644    2.0875    0.1146 H   0  0  0  0  0  0  0  0  0  0  0  0
    0.9640    2.0850   -0.2495 H   0  0  0  0  0  0  0  0  0  0  0  0
   -0.2438    1.3920   -1.8580 C   0  0  0  0  0  0  0  0  0  0  0  0
    0.2031    0.3960   -2.4787 O   0  5  0  0  0  0  0  0  0  0  0  0
   -1.0048    2.2547   -2.3569 O   0  0  0  0  0  0  0  0  0  0  0  0
    0.7865    0.3091    1.7626 C   0  0  0  0  0  0  0  0  0  0  0  0
    0.4319    1.2129    2.5163 O   0  0  0  0  0  0  0  0  0  0  0  0
    1.7977   -0.5421    2.1694 N   0  0  0  0  0  0  0  0  0  0  0  0
    1.8309   -1.4166    1.6493 H   0  0  0  0  0  0  0  0  0  0  0  0
    2.3257   -0.5376    3.5252 C   0  0  0  0  0  0  0  0  0  0  0  0
    1.5328   -0.7655    4.2447 H   0  0  0  0  0  0  0  0  0  0  0  0
    3.1125   -1.2911    3.6230 H   0  0  0  0  0  0  0  0  0  0  0  0
    2.7538    0.4407    3.7663 H   0  0  0  0  0  0  0  0  0  0  0  0
  1  2  1  0  0  0  0
  2  3  1  0  0  0  0
  2  4  1  0  0  0  0
  2  5  1  0  0  0  0
  5  6  2  0  0  0  0
  5  7  1  0  0  0  0
  7  8  1  0  0  0  0
  7  9  1  0  0  0  0
  9 10  1  0  0  0  0
  9 11  1  0  0  0  0
  9 17  1  0  0  0  0
 11 12  1  0  0  0  0
 11 13  1  0  0  0  0
 11 14  1  0  0  0  0
 14 15  1  0  0  0  0
 14 16  2  0  0  0  0
 17 18  2  0  0  0  0
 17 19  1  0  0  0  0
 19 20  1  0  0  0  0
 19 21  1  0  0  0  0
 21 22  1  0  0  0  0
 21 23  1  0  0  0  0
 21 24  1  0  0  0  0
M  CHG  1  15  -1
M  END
$$$$

  -OEChem-01062216073D

 24 23  0     1  0  0  0  0  0999 V2000
   -2.8005   -3.3625    1.0391 H   0  0  0  0  0  0  0  0  0  0  0  0
   -2.7680   -2.3531    0.6201 C   0  0  0  0  0  0  0  0  0  0  0  0
   -3.5162   -1.7367    1.1244 H   0  0  0  0  0  0  0  0  0  0  0  0
   -3.0072   -2.4053   -0.4452 H   0  0  0  0  0  0  0  0  0  0  0  0
   -1.3884   -1.7487    0.8111 C   0  0  0  0  0  0  0  0  0  0  0  0
   -0.5135   -2.3993    1.3667 O   0  0  0  0  0  0  0  0  0  0  0  0
   -1.1329   -0.4884    0.3185 N   0  0  0  0  0  0  0  0  0  0  0  0
   -1.8400   -0.0718   -0.2802 H   0  0  0  0  0  0  0  0  0  0  0  0
    0.1864    0.1508    0.3353 C   0  0  1  0  0  0  0  0  0  0  0  0
    0.8919   -0.4669   -0.2304 H   0  0  0  0  0  0  0  0  0  0  0  0
    0.0348    1.5157   -0.3627 C   0  0  0  0  0  0  0  0  0  0  0  0
   -0.7724    2.0854    0.1077 H   0  0  0  0  0  0  0  0  0  0  0  0
    0.9600    2.0838   -0.2374 H   0  0  0  0  0  0  0  0  0  0  0  0
   -0.2301    1.3971   -1.8610 C   0  0  0  0  0  0  0  0  0  0  0  0
    0.2223    0.4022   -2.4795 O   0  5  0  0  0  0  0  0  0  0  0  0
   -0.9708    2.2717   -2.3695 O   0  0  0  0  0  0  0  0  0  0  0  0
    0.7613    0.3250    1.7626 C   0  0  0  0  0  0  0  0  0  0  0  0
    0.2162    1.0473    2.5945 O   0  0  0  0  0  0  0  0  0  0  0  0
    1.9621   -0.2809    2.0861 N   0  0  0  0  0  0  0  0  0  0  0  0
    2.2571   -1.0173    1.4514 H   0  0  0  0  0  0  0  0  0  0  0  0
    2.5178   -0.2628    3.4304 C   0  0  0  0  0  0  0  0  0  0  0  0
    1.8322   -0.7470    4.1331 H   0  0  0  0  0  0  0  0  0  0  0  0
    3.4715   -0.7980    3.4489 H   0  0  0  0  0  0  0  0  0  0  0  0
    2.6942    0.7668    3.7581 H   0  0  0  0  0  0  0  0  0  0  0  0
  1  2  1  0  0  0  0
  2  3  1  0  0  0  0
  2  4  1  0  0  0  0
  2  5  1  0  0  0  0
  5  6  2  0  0  0  0
  5  7  1  0  0  0  0
  7  8  1  0  0  0  0
  7  9  1  0  0  0  0
  9 10  1  0  0  0  0
  9 11  1  0  0  0  0
  9 17  1  0  0  0  0
 11 12  1  0  0  0  0
 11 13  1  0  0  0  0
 11 14  1  0  0  0  0
 14 15  1  0  0  0  0
 14 16  2  0  0  0  0
 17 18  2  0  0  0  0
 17 19  1  0  0  0  0
 19 20  1  0  0  0  0
 19 21  1  0  0  0  0
 21 22  1  0  0  0  0
 21 23  1  0  0  0  0
 21 24  1  0  0  0  0
M  CHG  1  15  -1
M  END
$$$$

  -OEChem-01062216073D

 24 23  0     1  0  0  0  0  0999 V2000
   -2.8239   -3.3726    1.0323 H   0  0  0  0  0  0  0  0  0  0  0  0
   -2.7878   -2.3629    0.6143 C   0  0  0  0  0  0  0  0  0  0  0  0
   -3.5294   -1.7427    1.1237 H   0  0  0  0  0  0  0  0  0  0  0  0
   -3.0333   -2.4124   -0.4496 H   0  0  0  0  0  0  0  0  0  0  0  0
   -1.4035   -1.7671    0.7980 C   0  0  0  0  0  0  0  0  0  0  0  0
   -0.5282   -2.4269    1.3411 O   0  0  0  0  0  0  0  0  0  0  0  0
   -1.1444   -0.5070    0.3067 N   0  0  0  0  0  0  0  0  0  0  0  0
   -1.8599   -0.0728   -0.2683 H   0  0  0  0  0  0  0  0  0  0  0  0
    0.1718    0.1378    0.3439 C   0  0  1  0  0  0  0  0  0  0  0  0
    0.8847   -0.4812   -0.2110 H   0  0  0  0  0  0  0  0  0  0  0  0
    0.0323    1.5058   -0.3495 C   0  0  0  0  0  0  0  0  0  0  0  0
   -0.7820    2.0724    0.1118 H   0  0  0  0  0  0  0  0  0  0  0  0
    0.9556    2.0731   -0.2071 H   0  0  0  0  0  0  0  0  0  0  0  0
   -0.2081    1.3985   -1.8525 C   0  0  0  0  0  0  0  0  0  0  0  0
    0.2535    0.4082   -2.4710 O   0  5  0  0  0  0  0  0  0  0  0  0
   -0.9284    2.2854   -2.3688 O   0  0  0  0  0  0  0  0  0  0  0  0
    0.7316    0.3231    1.7749 C   0  0  0  0  0  0  0  0  0  0  0  0
    0.0608    0.8329    2.6700 O   0  0  0  0  0  0  0  0  0  0  0  0
    2.0537    0.0037    2.0295 N   0  0  0  0  0  0  0  0  0  0  0  0
    2.5345   -0.5162    1.3019 H   0  0  0  0  0  0  0  0  0  0  0  0
    2.6542    0.0813    3.3523 C   0  0  0  0  0  0  0  0  0  0  0  0
    2.1397   -0.5923    4.0451 H   0  0  0  0  0  0  0  0  0  0  0  0
    3.7078   -0.2082    3.3027 H   0  0  0  0  0  0  0  0  0  0  0  0
    2.5951    1.1032    3.7403 H   0  0  0  0  0  0  0  0  0  0  0  0
  1  2  1  0  0  0  0
  2  3  1  0  0  0  0
  2  4  1  0  0  0  0
  2  5  1  0  0  0  0
  5  6  2  0  0  0  0
  5  7  1  0  0  0  0
  7  8  1  0  0  0  0
  7  9  1  0  0  0  0
  9 10  1  0  0  0  0
  9 11  1  0  0  0  0
  9 17  1  0  0  0  0
 11 12  1  0  0  0  0
 11 13  1  0  0  0  0
 11 14  1  0  0  0  0
 14 15  1  0  0  0  0
 14 16  2  0  0  0  0
 17 18  2  0  0  0  0
 17 19  1  0  0  0  0
 19 20  1  0  0  0  0
 19 21  1  0  0  0  0
 21 22  1  0  0  0  0
 21 23  1  0  0  0  0
 21 24  1  0  0  0  0
M  CHG  1  15  -1
M  END
$$$$

  -OEChem-01062216073D

 24 23  0     1  0  0  0  0  0999 V2000
   -2.8519   -3.3904    0.9950 H   0  0  0  0  0  0  0  0  0  0  0  0
   -2.8111   -2.3711    0.6015 C   0  0  0  0  0  0  0  0  0  0  0  0
   -3.5292   -1.7532    1.1460 H   0  0  0  0  0  0  0  0  0  0  0  0
   -3.0846   -2.3899   -0.4565 H   0  0  0  0  0  0  0  0  0  0  0  0
   -1.4135   -1.8006    0.7645 C   0  0  0  0  0  0  0  0  0  0  0  0
   -0.5369   -2.4849    1.2740 O   0  0  0  0  0  0  0  0  0  0  0  0
   -1.1451   -0.5371    0.2867 N   0  0  0  0  0  0  0  0  0  0  0  0
   -1.8718   -0.0713   -0.2472 H   0  0  0  0  0  0  0  0  0  0  0  0
    0.1686    0.1106    0.3528 C   0  0  1  0  0  0  0  0  0  0  0  0
    0.8922   -0.5008   -0.1971 H   0  0  0  0  0  0  0  0  0  0  0  0
    0.0300    1.4871   -0.3245 C   0  0  0  0  0  0  0  0  0  0  0  0
   -0.7947    2.0408    0.1342 H   0  0  0  0  0  0  0  0  0  0  0  0
    0.9466    2.0597   -0.1618 H   0  0  0  0  0  0  0  0  0  0  0  0
   -0.1893    1.4043   -1.8318 C   0  0  0  0  0  0  0  0  0  0  0  0
    0.2862    0.4278   -2.4610 O   0  5  0  0  0  0  0  0  0  0  0  0
   -0.8977    2.3034   -2.3436 O   0  0  0  0  0  0  0  0  0  0  0  0
    0.7123    0.2946    1.7904 C   0  0  0  0  0  0  0  0  0  0  0  0
   -0.0229    0.5852    2.7318 O   0  0  0  0  0  0  0  0  0  0  0  0
    2.0808    0.2834    1.9956 N   0  0  0  0  0  0  0  0  0  0  0  0
    2.6573    0.0230    1.2015 H   0  0  0  0  0  0  0  0  0  0  0  0
    2.7040    0.4720    3.2966 C   0  0  0  0  0  0  0  0  0  0  0  0
    2.3528   -0.2879    4.0022 H   0  0  0  0  0  0  0  0  0  0  0  0
    3.7910    0.3867    3.2074 H   0  0  0  0  0  0  0  0  0  0  0  0
    2.4657    1.4637    3.6944 H   0  0  0  0  0  0  0  0  0  0  0  0
  1  2  1  0  0  0  0
  2  3  1  0  0  0  0
  2  4  1  0  0  0  0
  2  5  1  0  0  0  0
  5  6  2  0  0  0  0
  5  7  1  0  0  0  0
  7  8  1  0  0  0  0
  7  9  1  0  0  0  0
  9 10  1  0  0  0  0
  9 11  1  0  0  0  0
  9 17  1  0  0  0  0
 11 12  1  0  0  0  0
 11 13  1  0  0  0  0
 11 14  1  0  0  0  0
 14 15  1  0  0  0  0
 14 16  2  0  0  0  0
 17 18  2  0  0  0  0
 17 19  1  0  0  0  0
 19 20  1  0  0  0  0
 19 21  1  0  0  0  0
 21 22  1  0  0  0  0
 21 23  1  0  0  0  0
 21 24  1  0  0  0  0
M  CHG  1  15  -1
M  END
$$$$

  -OEChem-01062216073D

 24 23  0     1  0  0  0  0  0999 V2000
   -2.8800   -3.3896    0.9968 H   0  0  0  0  0  0  0  0  0  0  0  0
   -2.8276   -2.3707    0.6039 C   0  0  0  0  0  0  0  0  0  0  0  0
   -3.5115   -1.7369    1.1735 H   0  0  0  0  0  0  0  0  0  0  0  0
   -3.1366   -2.3792   -0.4443 H   0  0  0  0  0  0  0  0  0  0  0  0
   -1.4118   -1.8351    0.7212 C   0  0  0  0  0  0  0  0  0  0  0  0
   -0.5302   -2.5529    1.1725 O   0  0  0  0  0  0  0  0  0  0  0  0
   -1.1354   -0.5659    0.2623 N   0  0  0  0  0  0  0  0  0  0  0  0
   -1.8794   -0.0610   -0.2075 H   0  0  0  0  0  0  0  0  0  0  0  0
    0.1778    0.0809    0.3526 C   0  0  1  0  0  0  0  0  0  0  0  0
    0.9090   -0.5192   -0.1996 H   0  0  0  0  0  0  0  0  0  0  0  0
    0.0342    1.4689   -0.3029 C   0  0  0  0  0  0  0  0  0  0  0  0
   -0.7966    2.0089    0.1608 H   0  0  0  0  0  0  0  0  0  0  0  0
    0.9447    2.0469   -0.1273 H   0  0  0  0  0  0  0  0  0  0  0  0
   -0.1746    1.4154   -1.8127 C   0  0  0  0  0  0  0  0  0  0  0  0
    0.3104    0.4560   -2.4598 O   0  5  0  0  0  0  0  0  0  0  0  0
   -0.8787    2.3260   -2.3097 O   0  0  0  0  0  0  0  0  0  0  0  0
    0.7117    0.2528    1.7967 C   0  0  0  0  0  0  0  0  0  0  0  0
   -0.0364    0.3113    2.7703 O   0  0  0  0  0  0  0  0  0  0  0  0
    2.0509    0.5526    1.9788 N   0  0  0  0  0  0  0  0  0  0  0  0
    2.6339    0.5600    1.1474 H   0  0  0  0  0  0  0  0  0  0  0  0
    2.6459    0.8595    3.2705 C   0  0  0  0  0  0  0  0  0  0  0  0
    2.4963    0.0283    3.9671 H   0  0  0  0  0  0  0  0  0  0  0  0
    3.7210    1.0276    3.1580 H   0  0  0  0  0  0  0  0  0  0  0  0
    2.1956    1.7634    3.6933 H   0  0  0  0  0  0  0  0  0  0  0  0
  1  2  1  0  0  0  0
  2  3  1  0  0  0  0
  2  4  1  0  0  0  0
  2  5  1  0  0  0  0
  5  6  2  0  0  0  0
  5  7  1  0  0  0  0
  7  8  1  0  0  0  0
  7  9  1  0  0  0  0
  9 10  1  0  0  0  0
  9 11  1  0  0  0  0
  9 17  1  0  0  0  0
 11 12  1  0  0  0  0
 11 13  1  0  0  0  0
 11 14  1  0  0  0  0
 14 15  1  0  0  0  0
 14 16  2  0  0  0  0
 17 18  2  0  0  0  0
 17 19  1  0  0  0  0
 19 20  1  0  0  0  0
 19 21  1  0  0  0  0
 21 22  1  0  0  0  0
 21 23  1  0  0  0  0
 21 24  1  0  0  0  0
M  CHG  1  15  -1
M  END
$$$$

  -OEChem-01062216073D

 24 23  0     1  0  0  0  0  0999 V2000
   -2.9157   -3.3589    1.0176 H   0  0  0  0  0  0  0  0  0  0  0  0
   -2.8468   -2.3230    0.6748 C   0  0  0  0  0  0  0  0  0  0  0  0
   -3.3786   -1.6821    1.3822 H   0  0  0  0  0  0  0  0  0  0  0  0
   -3.3193   -2.2426   -0.3071 H   0  0  0  0  0  0  0  0  0  0  0  0
   -1.3928   -1.8952    0.5853 C   0  0  0  0  0  0  0  0  0  0  0  0
   -0.5106   -2.7229    0.7654 O   0  0  0  0  0  0  0  0  0  0  0  0
   -1.0965   -0.6123    0.1753 N   0  0  0  0  0  0  0  0  0  0  0  0
   -1.8835   -0.0099   -0.0409 H   0  0  0  0  0  0  0  0  0  0  0  0
    0.2153    0.0367    0.3152 C   0  0  1  0  0  0  0  0  0  0  0  0
    0.8927   -0.3732   -0.4414 H   0  0  0  0  0  0  0  0  0  0  0  0
   -0.0356    1.5380    0.0473 C   0  0  0  0  0  0  0  0  0  0  0  0
   -0.8296    1.8995    0.7072 H   0  0  0  0  0  0  0  0  0  0  0  0
    0.8672    2.1087    0.2750 H   0  0  0  0  0  0  0  0  0  0  0  0
   -0.3936    1.8579   -1.4002 C   0  0  0  0  0  0  0  0  0  0  0  0
    0.0506    1.1230   -2.3146 O   0  5  0  0  0  0  0  0  0  0  0  0
   -1.1653    2.8300   -1.5778 O   0  0  0  0  0  0  0  0  0  0  0  0
    0.9189   -0.1250    1.6921 C   0  0  0  0  0  0  0  0  0  0  0  0
    0.3181   -0.4848    2.7020 O   0  0  0  0  0  0  0  0  0  0  0  0
    2.1602    0.4630    1.8744 N   0  0  0  0  0  0  0  0  0  0  0  0
    2.5896    0.8812    1.0545 H   0  0  0  0  0  0  0  0  0  0  0  0
    2.8263    0.5798    3.1634 C   0  0  0  0  0  0  0  0  0  0  0  0
    2.9437   -0.4065    3.6240 H   0  0  0  0  0  0  0  0  0  0  0  0
    3.8192    1.0204    3.0341 H   0  0  0  0  0  0  0  0  0  0  0  0
    2.2466    1.2196    3.8364 H   0  0  0  0  0  0  0  0  0  0  0  0
  1  2  1  0  0  0  0
  2  3  1  0  0  0  0
  2  4  1  0  0  0  0
  2  5  1  0  0  0  0
  5  6  2  0  0  0  0
  5  7  1  0  0  0  0
  7  8  1  0  0  0  0
  7  9  1  0  0  0  0
  9 10  1  0  0  0  0
  9 11  1  0  0  0  0
  9 17  1  0  0  0  0
 11 12  1  0  0  0  0
 11 13  1  0  0  0  0
 11 14  1  0  0  0  0
 14 15  1  0  0  0  0
 14 16  2  0  0  0  0
 17 18  2  0  0  0  0
 17 19  1  0  0  0  0
 19 20  1  0  0  0  0
 19 21  1  0  0  0  0
 21 22  1  0  0  0  0
 21 23  1  0  0  0  0
 21 24  1  0  0  0  0
M  CHG  1  15  -1
M  END
$$$$

  -OEChem-01062216073D

 24 23  0     1  0  0  0  0  0999 V2000
   -2.9098   -3.3426    1.0370 H   0  0  0  0  0  0  0  0  0  0  0  0
   -2.8367   -2.3056    0.6985 C   0  0  0  0  0  0  0  0  0  0  0  0
   -3.3306   -1.6614    1.4300 H   0  0  0  0  0  0  0  0  0  0  0  0
   -3.3446   -2.2099   -0.2644 H   0  0  0  0  0  0  0  0  0  0  0  0
   -1.3799   -1.9020    0.5576 C   0  0  0  0  0  0  0  0  0  0  0  0
   -0.5095   -2.7540    0.6645 O   0  0  0  0  0  0  0  0  0  0  0  0
   -1.0779   -0.6159    0.1616 N   0  0  0  0  0  0  0  0  0  0  0  0
   -1.8673   -0.0068   -0.0248 H   0  0  0  0  0  0  0  0  0  0  0  0
    0.2328    0.0371    0.3096 C   0  0  1  0  0  0  0  0  0  0  0  0
    0.9143   -0.3619   -0.4489 H   0  0  0  0  0  0  0  0  0  0  0  0
   -0.0501    1.5347    0.0332 C   0  0  0  0  0  0  0  0  0  0  0  0
   -0.8517    1.8830    0.6914 H   0  0  0  0  0  0  0  0  0  0  0  0
    0.8370    2.1314    0.2514 H   0  0  0  0  0  0  0  0  0  0  0  0
   -0.4105    1.8447   -1.4160 C   0  0  0  0  0  0  0  0  0  0  0  0
    0.0499    1.1200   -2.3297 O   0  5  0  0  0  0  0  0  0  0  0  0
   -1.1998    2.8026   -1.5937 O   0  0  0  0  0  0  0  0  0  0  0  0
    0.9475   -0.1242    1.6876 C   0  0  0  0  0  0  0  0  0  0  0  0
    0.4425   -0.7163    2.6375 O   0  0  0  0  0  0  0  0  0  0  0  0
    2.0159    0.7059    1.9907 N   0  0  0  0  0  0  0  0  0  0  0  0
    2.3457    1.3087    1.2428 H   0  0  0  0  0  0  0  0  0  0  0  0
    2.6102    0.8310    3.3142 C   0  0  0  0  0  0  0  0  0  0  0  0
    2.9561   -0.1440    3.6725 H   0  0  0  0  0  0  0  0  0  0  0  0
    3.4677    1.5092    3.2772 H   0  0  0  0  0  0  0  0  0  0  0  0
    1.8802    1.2322    4.0246 H   0  0  0  0  0  0  0  0  0  0  0  0
  1  2  1  0  0  0  0
  2  3  1  0  0  0  0
  2  4  1  0  0  0  0
  2  5  1  0  0  0  0
  5  6  2  0  0  0  0
  5  7  1  0  0  0  0
  7  8  1  0  0  0  0
  7  9  1  0  0  0  0
  9 10  1  0  0  0  0
  9 11  1  0  0  0  0
  9 17  1  0  0  0  0
 11 12  1  0  0  0  0
 11 13  1  0  0  0  0
 11 14  1  0  0  0  0
 14 15  1  0  0  0  0
 14 16  2  0  0  0  0
 17 18  2  0  0  0  0
 17 19  1  0  0  0  0
 19 20  1  0  0  0  0
 19 21  1  0  0  0  0
 21 22  1  0  0  0  0
 21 23  1  0  0  0  0
 21 24  1  0  0  0  0
M  CHG  1  15  -1
M  END
$$$$

  -OEChem-01062216073D

 24 23  0     1  0  0  0  0  0999 V2000
   -2.9179   -3.3248    1.0493 H   0  0  0  0  0  0  0  0  0  0  0  0
   -2.8338   -2.2893    0.7084 C   0  0  0  0  0  0  0  0  0  0  0  0
   -3.3155   -1.6380    1.4417 H   0  0  0  0  0  0  0  0  0  0  0  0
   -3.3462   -2.1891   -0.2516 H   0  0  0  0  0  0  0  0  0  0  0  0
   -1.3729   -1.9046    0.5574 C   0  0  0  0  0  0  0  0  0  0  0  0
   -0.5193   -2.7761    0.6249 O   0  0  0  0  0  0  0  0  0  0  0  0
   -1.0626   -0.6187    0.1659 N   0  0  0  0  0  0  0  0  0  0  0  0
   -1.8539   -0.0161   -0.0329 H   0  0  0  0  0  0  0  0  0  0  0  0
    0.2396    0.0537    0.3182 C   0  0  1  0  0  0  0  0  0  0  0  0
    0.9315   -0.3438   -0.4319 H   0  0  0  0  0  0  0  0  0  0  0  0
   -0.0736    1.5406    0.0075 C   0  0  0  0  0  0  0  0  0  0  0  0
   -0.8841    1.8892    0.6548 H   0  0  0  0  0  0  0  0  0  0  0  0
    0.8012    2.1603    0.2080 H   0  0  0  0  0  0  0  0  0  0  0  0
   -0.4263    1.8170   -1.4505 C   0  0  0  0  0  0  0  0  0  0  0  0
    0.0560    1.0889   -2.3494 O   0  5  0  0  0  0  0  0  0  0  0  0
   -1.2352    2.7546   -1.6473 O   0  0  0  0  0  0  0  0  0  0  0  0
    0.9583   -0.0860    1.7019 C   0  0  0  0  0  0  0  0  0  0  0  0
    0.6453   -0.9139    2.5503 O   0  0  0  0  0  0  0  0  0  0  0  0
    1.7900    0.9296    2.1505 N   0  0  0  0  0  0  0  0  0  0  0  0
    1.9743    1.6852    1.4980 H   0  0  0  0  0  0  0  0  0  0  0  0
    2.3623    0.9971    3.4884 C   0  0  0  0  0  0  0  0  0  0  0  0
    2.9648    0.1060    3.6923 H   0  0  0  0  0  0  0  0  0  0  0  0
    3.0062    1.8770    3.5766 H   0  0  0  0  0  0  0  0  0  0  0  0
    1.5703    1.0706    4.2406 H   0  0  0  0  0  0  0  0  0  0  0  0
  1  2  1  0  0  0  0
  2  3  1  0  0  0  0
  2  4  1  0  0  0  0
  2  5  1  0  0  0  0
  5  6  2  0  0  0  0
  5  7  1  0  0  0  0
  7  8  1  0  0  0  0
  7  9  1  0  0  0  0
  9 10  1  0  0  0  0
  9 11  1  0  0  0  0
  9 17  1  0  0  0  0
 11 12  1  0  0  0  0
 11 13  1  0  0  0  0
 11 14  1  0  0  0  0
 14 15  1  0  0  0  0
 14 16  2  0  0  0  0
 17 18  2  0  0  0  0
 17 19  1  0  0  0  0
 19 20  1  0  0  0  0
 19 21  1  0  0  0  0
 21 22  1  0  0  0  0
 21 23  1  0  0  0  0
 21 24  1  0  0  0  0
M  CHG  1  15  -1
M  END
$$$$

  -OEChem-01062216073D

 24 23  0     1  0  0  0  0  0999 V2000
   -3.0250   -3.2988    0.9712 H   0  0  0  0  0  0  0  0  0  0  0  0
   -2.8863   -2.2793    0.6009 C   0  0  0  0  0  0  0  0  0  0  0  0
   -3.4522   -1.5948    1.2375 H   0  0  0  0  0  0  0  0  0  0  0  0
   -3.2706   -2.2183   -0.4204 H   0  0  0  0  0  0  0  0  0  0  0  0
   -1.4137   -1.9081    0.6222 C   0  0  0  0  0  0  0  0  0  0  0  0
   -0.5965   -2.7873    0.8331 O   0  0  0  0  0  0  0  0  0  0  0  0
   -1.0611   -0.6320    0.2330 N   0  0  0  0  0  0  0  0  0  0  0  0
   -1.8188   -0.0713   -0.1438 H   0  0  0  0  0  0  0  0  0  0  0  0
    0.2321    0.0632    0.3769 C   0  0  1  0  0  0  0  0  0  0  0  0
    0.9315   -0.3398   -0.3635 H   0  0  0  0  0  0  0  0  0  0  0  0
   -0.1039    1.5364    0.0261 C   0  0  0  0  0  0  0  0  0  0  0  0
   -0.9196    1.8927    0.6625 H   0  0  0  0  0  0  0  0  0  0  0  0
    0.7662    2.1698    0.2055 H   0  0  0  0  0  0  0  0  0  0  0  0
   -0.4536    1.7683   -1.4400 C   0  0  0  0  0  0  0  0  0  0  0  0
    0.0435    1.0263   -2.3184 O   0  5  0  0  0  0  0  0  0  0  0  0
   -1.2954    2.6708   -1.6596 O   0  0  0  0  0  0  0  0  0  0  0  0
    0.9610   -0.0368    1.7598 C   0  0  0  0  0  0  0  0  0  0  0  0
    1.0452   -1.0604    2.4241 O   0  0  0  0  0  0  0  0  0  0  0  0
    1.5155    1.0948    2.3413 N   0  0  0  0  0  0  0  0  0  0  0  0
    1.4122    1.9644    1.8280 H   0  0  0  0  0  0  0  0  0  0  0  0
    2.1606    1.1193    3.6469 C   0  0  0  0  0  0  0  0  0  0  0  0
    3.0066    0.4248    3.6697 H   0  0  0  0  0  0  0  0  0  0  0  0
    2.5338    2.1250    3.8611 H   0  0  0  0  0  0  0  0  0  0  0  0
    1.4491    0.8392    4.4302 H   0  0  0  0  0  0  0  0  0  0  0  0
  1  2  1  0  0  0  0
  2  3  1  0  0  0  0
  2  4  1  0  0  0  0
  2  5  1  0  0  0  0
  5  6  2  0  0  0  0
  5  7  1  0  0  0  0
  7  8  1  0  0  0  0
  7  9  1  0  0  0  0
  9 10  1  0  0  0  0
  9 11  1  0  0  0  0
  9 17  1  0  0  0  0
 11 12  1  0  0  0  0
 11 13  1  0  0  0  0
 11 14  1  0  0  0  0
 14 15  1  0  0  0  0
 14 16  2  0  0  0  0
 17 18  2  0  0  0  0
 17 19  1  0  0  0  0
 19 20  1  0  0  0  0
 19 21  1  0  0  0  0
 21 22  1  0  0  0  0
 21 23  1  0  0  0  0
 21 24  1  0  0  0  0
M  CHG  1  15  -1
M  END
$$$$

  -OEChem-01062216073D

 24 23  0     1  0  0  0  0  0999 V2000
   -3.1065   -3.3573    0.6942 H   0  0  0  0  0  0  0  0  0  0  0  0
   -2.9106   -2.3620    0.2855 C   0  0  0  0  0  0  0  0  0  0  0  0
   -3.7377   -1.7005    0.5549 H   0  0  0  0  0  0  0  0  0  0  0  0
   -2.8518   -2.4348   -0.8035 H   0  0  0  0  0  0  0  0  0  0  0  0
   -1.6067   -1.8121    0.8378 C   0  0  0  0  0  0  0  0  0  0  0  0
   -1.0029   -2.4762    1.6588 O   0  0  0  0  0  0  0  0  0  0  0  0
   -1.2005   -0.5668    0.4049 N   0  0  0  0  0  0  0  0  0  0  0  0
   -1.7638   -0.2037   -0.3606 H   0  0  0  0  0  0  0  0  0  0  0  0
    0.1238    0.0745    0.5154 C   0  0  1  0  0  0  0  0  0  0  0  0
    0.7996   -0.3854   -0.2140 H   0  0  0  0  0  0  0  0  0  0  0  0
   -0.1435    1.5483    0.1183 C   0  0  0  0  0  0  0  0  0  0  0  0
   -0.9405    1.9652    0.7411 H   0  0  0  0  0  0  0  0  0  0  0  0
    0.7605    2.1409    0.2776 H   0  0  0  0  0  0  0  0  0  0  0  0
   -0.4941    1.7272   -1.3552 C   0  0  0  0  0  0  0  0  0  0  0  0
   -0.0365    0.9179   -2.1959 O   0  5  0  0  0  0  0  0  0  0  0  0
   -1.3111    2.6404   -1.6175 O   0  0  0  0  0  0  0  0  0  0  0  0
    0.8625   -0.0192    1.8867 C   0  0  0  0  0  0  0  0  0  0  0  0
    1.4658   -1.0311    2.2233 O   0  0  0  0  0  0  0  0  0  0  0  0
    1.1937    1.1350    2.5823 N   0  0  0  0  0  0  0  0  0  0  0  0
    0.8035    2.0023    2.2270 H   0  0  0  0  0  0  0  0  0  0  0  0
    2.0884    1.1765    3.7303 C   0  0  0  0  0  0  0  0  0  0  0  0
    3.0963    0.8627    3.4406 H   0  0  0  0  0  0  0  0  0  0  0  0
    2.1427    2.1945    4.1269 H   0  0  0  0  0  0  0  0  0  0  0  0
    1.7243    0.5148    4.5229 H   0  0  0  0  0  0  0  0  0  0  0  0
  1  2  1  0  0  0  0
  2  3  1  0  0  0  0
  2  4  1  0  0  0  0
  2  5  1  0  0  0  0
  5  6  2  0  0  0  0
  5  7  1  0  0  0  0
  7  8  1  0  0  0  0
  7  9  1  0  0  0  0
  9 10  1  0  0  0  0
  9 11  1  0  0  0  0
  9 17  1  0  0  0  0
 11 12  1  0  0  0  0
 11 13  1  0  0  0  0
 11 14  1  0  0  0  0
 14 15  1  0  0  0  0
 14 16  2  0  0  0  0
 17 18  2  0  0  0  0
 17 19  1  0  0  0  0
 19 20  1  0  0  0  0
 19 21  1  0  0  0  0
 21 22  1  0  0  0  0
 21 23  1  0  0  0  0
 21 24  1  0  0  0  0
M  CHG  1  15  -1
M  END
$$$$

  -OEChem-01062216073D

 24 23  0     1  0  0  0  0  0999 V2000
   -3.0719   -3.3791    0.7047 H   0  0  0  0  0  0  0  0  0  0  0  0
   -2.8987   -2.3825    0.2893 C   0  0  0  0  0  0  0  0  0  0  0  0
   -3.7436   -1.7396    0.5483 H   0  0  0  0  0  0  0  0  0  0  0  0
   -2.8315   -2.4622   -0.7989 H   0  0  0  0  0  0  0  0  0  0  0  0
   -1.6126   -1.7960    0.8447 C   0  0  0  0  0  0  0  0  0  0  0  0
   -1.0064   -2.4197    1.6964 O   0  0  0  0  0  0  0  0  0  0  0  0
   -1.2210   -0.5525    0.3957 N   0  0  0  0  0  0  0  0  0  0  0  0
   -1.7733   -0.2096   -0.3873 H   0  0  0  0  0  0  0  0  0  0  0  0
    0.1129    0.0666    0.4925 C   0  0  1  0  0  0  0  0  0  0  0  0
    0.7758   -0.4016   -0.2434 H   0  0  0  0  0  0  0  0  0  0  0  0
   -0.1208    1.5489    0.1138 C   0  0  0  0  0  0  0  0  0  0  0  0
   -0.9060    1.9781    0.7436 H   0  0  0  0  0  0  0  0  0  0  0  0
    0.7995    2.1138    0.2829 H   0  0  0  0  0  0  0  0  0  0  0  0
   -0.4832    1.7484   -1.3541 C   0  0  0  0  0  0  0  0  0  0  0  0
   -0.0553    0.9343   -2.2061 O   0  5  0  0  0  0  0  0  0  0  0  0
   -1.2845    2.6800   -1.5998 O   0  0  0  0  0  0  0  0  0  0  0  0
    0.8435   -0.0504    1.8619 C   0  0  0  0  0  0  0  0  0  0  0  0
    1.6199   -0.9730    2.0863 O   0  0  0  0  0  0  0  0  0  0  0  0
    0.9213    1.0467    2.7065 N   0  0  0  0  0  0  0  0  0  0  0  0
    0.3761    1.8605    2.4395 H   0  0  0  0  0  0  0  0  0  0  0  0
    1.7666    1.1109    3.8894 C   0  0  0  0  0  0  0  0  0  0  0  0
    2.8222    1.0392    3.6088 H   0  0  0  0  0  0  0  0  0  0  0  0
    1.6095    2.0592    4.4115 H   0  0  0  0  0  0  0  0  0  0  0  0
    1.5252    0.2934    4.5764 H   0  0  0  0  0  0  0  0  0  0  0  0
  1  2  1  0  0  0  0
  2  3  1  0  0  0  0
  2  4  1  0  0  0  0
  2  5  1  0  0  0  0
  5  6  2  0  0  0  0
  5  7  1  0  0  0  0
  7  8  1  0  0  0  0
  7  9  1  0  0  0  0
  9 10  1  0  0  0  0
  9 11  1  0  0  0  0
  9 17  1  0  0  0  0
 11 12  1  0  0  0  0
 11 13  1  0  0  0  0
 11 14  1  0  0  0  0
 14 15  1  0  0  0  0
 14 16  2  0  0  0  0
 17 18  2  0  0  0  0
 17 19  1  0  0  0  0
 19 20  1  0  0  0  0
 19 21  1  0  0  0  0
 21 22  1  0  0  0  0
 21 23  1  0  0  0  0
 21 24  1  0  0  0  0
M  CHG  1  15  -1
M  END
$$$$

  -OEChem-01062216073D

 24 23  0     1  0  0  0  0  0999 V2000
   -3.0473   -3.3837    0.7412 H   0  0  0  0  0  0  0  0  0  0  0  0
   -2.8915   -2.3867    0.3198 C   0  0  0  0  0  0  0  0  0  0  0  0
   -3.7299   -1.7468    0.6056 H   0  0  0  0  0  0  0  0  0  0  0  0
   -2.8588   -2.4673   -0.7699 H   0  0  0  0  0  0  0  0  0  0  0  0
   -1.5905   -1.7947    0.8333 C   0  0  0  0  0  0  0  0  0  0  0  0
   -0.9521   -2.4133    1.6662 O   0  0  0  0  0  0  0  0  0  0  0  0
   -1.2120   -0.5514    0.3728 N   0  0  0  0  0  0  0  0  0  0  0  0
   -1.7763   -0.2067   -0.4012 H   0  0  0  0  0  0  0  0  0  0  0  0
    0.1265    0.0583    0.4522 C   0  0  1  0  0  0  0  0  0  0  0  0
    0.7789   -0.4068   -0.2954 H   0  0  0  0  0  0  0  0  0  0  0  0
   -0.0948    1.5473    0.1026 C   0  0  0  0  0  0  0  0  0  0  0  0
   -0.8669    1.9745    0.7492 H   0  0  0  0  0  0  0  0  0  0  0  0
    0.8346    2.0968    0.2752 H   0  0  0  0  0  0  0  0  0  0  0  0
   -0.4812    1.7745   -1.3550 C   0  0  0  0  0  0  0  0  0  0  0  0
   -0.0789    0.9686   -2.2273 O   0  5  0  0  0  0  0  0  0  0  0  0
   -1.2839    2.7129   -1.5700 O   0  0  0  0  0  0  0  0  0  0  0  0
    0.8578   -0.0716    1.8165 C   0  0  0  0  0  0  0  0  0  0  0  0
    1.7819   -0.8652    1.9636 O   0  0  0  0  0  0  0  0  0  0  0  0
    0.6881    0.9015    2.7886 N   0  0  0  0  0  0  0  0  0  0  0  0
   -0.0266    1.5992    2.6084 H   0  0  0  0  0  0  0  0  0  0  0  0
    1.4379    0.9498    4.0341 C   0  0  0  0  0  0  0  0  0  0  0  0
    2.5074    1.0674    3.8325 H   0  0  0  0  0  0  0  0  0  0  0  0
    1.1039    1.7974    4.6397 H   0  0  0  0  0  0  0  0  0  0  0  0
    1.2831    0.0305    4.6080 H   0  0  0  0  0  0  0  0  0  0  0  0
  1  2  1  0  0  0  0
  2  3  1  0  0  0  0
  2  4  1  0  0  0  0
  2  5  1  0  0  0  0
  5  6  2  0  0  0  0
  5  7  1  0  0  0  0
  7  8  1  0  0  0  0
  7  9  1  0  0  0  0
  9 10  1  0  0  0  0
  9 11  1  0  0  0  0
  9 17  1  0  0  0  0
 11 12  1  0  0  0  0
 11 13  1  0  0  0  0
 11 14  1  0  0  0  0
 14 15  1  0  0  0  0
 14 16  2  0  0  0  0
 17 18  2  0  0  0  0
 17 19  1  0  0  0  0
 19 20  1  0  0  0  0
 19 21  1  0  0  0  0
 21 22  1  0  0  0  0
 21 23  1  0  0  0  0
 21 24  1  0  0  0  0
M  CHG  1  15  -1
M  END
$$$$

  -OEChem-01062216073D

 24 23  0     1  0  0  0  0  0999 V2000
   -3.0416   -3.3673    0.7952 H   0  0  0  0  0  0  0  0  0  0  0  0
   -2.8830   -2.3835    0.3449 C   0  0  0  0  0  0  0  0  0  0  0  0
   -3.7136   -1.7298    0.6221 H   0  0  0  0  0  0  0  0  0  0  0  0
   -2.8631   -2.4935   -0.7424 H   0  0  0  0  0  0  0  0  0  0  0  0
   -1.5720   -1.7881    0.8276 C   0  0  0  0  0  0  0  0  0  0  0  0
   -0.9061   -2.4069    1.6396 O   0  0  0  0  0  0  0  0  0  0  0  0
   -1.2032   -0.5456    0.3577 N   0  0  0  0  0  0  0  0  0  0  0  0
   -1.7766   -0.2008   -0.4099 H   0  0  0  0  0  0  0  0  0  0  0  0
    0.1387    0.0571    0.4211 C   0  0  1  0  0  0  0  0  0  0  0  0
    0.7812   -0.4073   -0.3354 H   0  0  0  0  0  0  0  0  0  0  0  0
   -0.0751    1.5502    0.0920 C   0  0  0  0  0  0  0  0  0  0  0  0
   -0.8327    1.9776    0.7552 H   0  0  0  0  0  0  0  0  0  0  0  0
    0.8614    2.0891    0.2587 H   0  0  0  0  0  0  0  0  0  0  0  0
   -0.4826    1.7924   -1.3576 C   0  0  0  0  0  0  0  0  0  0  0  0
   -0.1000    0.9903   -2.2425 O   0  5  0  0  0  0  0  0  0  0  0  0
   -1.2902    2.7315   -1.5513 O   0  0  0  0  0  0  0  0  0  0  0  0
    0.8750   -0.0792    1.7793 C   0  0  0  0  0  0  0  0  0  0  0  0
    1.9286   -0.7025    1.8671 O   0  0  0  0  0  0  0  0  0  0  0  0
    0.4873    0.7061    2.8522 N   0  0  0  0  0  0  0  0  0  0  0  0
   -0.3799    1.2210    2.7415 H   0  0  0  0  0  0  0  0  0  0  0  0
    1.1583    0.7031    4.1427 C   0  0  0  0  0  0  0  0  0  0  0  0
    2.1979    1.0281    4.0336 H   0  0  0  0  0  0  0  0  0  0  0  0
    0.6523    1.3870    4.8303 H   0  0  0  0  0  0  0  0  0  0  0  0
    1.1438   -0.3013    4.5778 H   0  0  0  0  0  0  0  0  0  0  0  0
  1  2  1  0  0  0  0
  2  3  1  0  0  0  0
  2  4  1  0  0  0  0
  2  5  1  0  0  0  0
  5  6  2  0  0  0  0
  5  7  1  0  0  0  0
  7  8  1  0  0  0  0
  7  9  1  0  0  0  0
  9 10  1  0  0  0  0
  9 11  1  0  0  0  0
  9 17  1  0  0  0  0
 11 12  1  0  0  0  0
 11 13  1  0  0  0  0
 11 14  1  0  0  0  0
 14 15  1  0  0  0  0
 14 16  2  0  0  0  0
 17 18  2  0  0  0  0
 17 19  1  0  0  0  0
 19 20  1  0  0  0  0
 19 21  1  0  0  0  0
 21 22  1  0  0  0  0
 21 23  1  0  0  0  0
 21 24  1  0  0  0  0
M  CHG  1  15  -1
M  END
$$$$

  -OEChem-01062216073D

 24 23  0     1  0  0  0  0  0999 V2000
   -2.9930   -3.3821    0.7816 H   0  0  0  0  0  0  0  0  0  0  0  0
   -2.8729   -2.3736    0.3762 C   0  0  0  0  0  0  0  0  0  0  0  0
   -3.7016   -1.7519    0.7238 H   0  0  0  0  0  0  0  0  0  0  0  0
   -2.9009   -2.4282   -0.7152 H   0  0  0  0  0  0  0  0  0  0  0  0
   -1.5519   -1.7778    0.8296 C   0  0  0  0  0  0  0  0  0  0  0  0
   -0.8682   -2.3934    1.6297 O   0  0  0  0  0  0  0  0  0  0  0  0
   -1.1872   -0.5394    0.3459 N   0  0  0  0  0  0  0  0  0  0  0  0
   -1.7687   -0.1946   -0.4158 H   0  0  0  0  0  0  0  0  0  0  0  0
    0.1561    0.0626    0.3961 C   0  0  1  0  0  0  0  0  0  0  0  0
    0.7941   -0.4027   -0.3637 H   0  0  0  0  0  0  0  0  0  0  0  0
   -0.0600    1.5550    0.0749 C   0  0  0  0  0  0  0  0  0  0  0  0
   -0.8081    1.9806    0.7501 H   0  0  0  0  0  0  0  0  0  0  0  0
    0.8787    2.0924    0.2336 H   0  0  0  0  0  0  0  0  0  0  0  0
   -0.4839    1.7991   -1.3699 C   0  0  0  0  0  0  0  0  0  0  0  0
   -0.1113    0.9975   -2.2600 O   0  5  0  0  0  0  0  0  0  0  0  0
   -1.3016    2.7317   -1.5526 O   0  0  0  0  0  0  0  0  0  0  0  0
    0.8963   -0.0640    1.7511 C   0  0  0  0  0  0  0  0  0  0  0  0
    2.0508   -0.4773    1.8057 O   0  0  0  0  0  0  0  0  0  0  0  0
    0.3308    0.4858    2.8889 N   0  0  0  0  0  0  0  0  0  0  0  0
   -0.6464    0.7467    2.8098 H   0  0  0  0  0  0  0  0  0  0  0  0
    0.9324    0.3854    4.2092 C   0  0  0  0  0  0  0  0  0  0  0  0
    1.9308    0.8346    4.2104 H   0  0  0  0  0  0  0  0  0  0  0  0
    0.3162    0.9129    4.9431 H   0  0  0  0  0  0  0  0  0  0  0  0
    1.0143   -0.6638    4.5110 H   0  0  0  0  0  0  0  0  0  0  0  0
  1  2  1  0  0  0  0
  2  3  1  0  0  0  0
  2  4  1  0  0  0  0
  2  5  1  0  0  0  0
  5  6  2  0  0  0  0
  5  7  1  0  0  0  0
  7  8  1  0  0  0  0
  7  9  1  0  0  0  0
  9 10  1  0  0  0  0
  9 11  1  0  0  0  0
  9 17  1  0  0  0  0
 11 12  1  0  0  0  0
 11 13  1  0  0  0  0
 11 14  1  0  0  0  0
 14 15  1  0  0  0  0
 14 16  2  0  0  0  0
 17 18  2  0  0  0  0
 17 19  1  0  0  0  0
 19 20  1  0  0  0  0
 19 21  1  0  0  0  0
 21 22  1  0  0  0  0
 21 23  1  0  0  0  0
 21 24  1  0  0  0  0
M  CHG  1  15  -1
M  END
$$$$

  -OEChem-01062216073D

 24 23  0     1  0  0  0  0  0999 V2000
   -3.0364   -3.3482    0.8125 H   0  0  0  0  0  0  0  0  0  0  0  0
   -2.8854   -2.3619    0.3649 C   0  0  0  0  0  0  0  0  0  0  0  0
   -3.7055   -1.7066    0.6688 H   0  0  0  0  0  0  0  0  0  0  0  0
   -2.8961   -2.4643   -0.7233 H   0  0  0  0  0  0  0  0  0  0  0  0
   -1.5591   -1.7756    0.8157 C   0  0  0  0  0  0  0  0  0  0  0  0
   -0.8768   -2.3948    1.6147 O   0  0  0  0  0  0  0  0  0  0  0  0
   -1.1857   -0.5391    0.3340 N   0  0  0  0  0  0  0  0  0  0  0  0
   -1.7645   -0.1871   -0.4270 H   0  0  0  0  0  0  0  0  0  0  0  0
    0.1588    0.0624    0.3926 C   0  0  1  0  0  0  0  0  0  0  0  0
    0.8002   -0.4009   -0.3654 H   0  0  0  0  0  0  0  0  0  0  0  0
   -0.0601    1.5545    0.0753 C   0  0  0  0  0  0  0  0  0  0  0  0
   -0.8093    1.9763    0.7517 H   0  0  0  0  0  0  0  0  0  0  0  0
    0.8770    2.0941    0.2372 H   0  0  0  0  0  0  0  0  0  0  0  0
   -0.4791    1.7990   -1.3713 C   0  0  0  0  0  0  0  0  0  0  0  0
   -0.0994    0.9986   -2.2599 O   0  5  0  0  0  0  0  0  0  0  0  0
   -1.3061    2.7229   -1.5565 O   0  0  0  0  0  0  0  0  0  0  0  0
    0.9005   -0.0549    1.7475 C   0  0  0  0  0  0  0  0  0  0  0  0
    2.1166   -0.2184    1.7867 O   0  0  0  0  0  0  0  0  0  0  0  0
    0.2231    0.2108    2.9248 N   0  0  0  0  0  0  0  0  0  0  0  0
   -0.7879    0.1742    2.8485 H   0  0  0  0  0  0  0  0  0  0  0  0
    0.8282    0.0506    4.2375 C   0  0  0  0  0  0  0  0  0  0  0  0
    1.7051    0.6984    4.3369 H   0  0  0  0  0  0  0  0  0  0  0  0
    0.1100    0.3217    5.0166 H   0  0  0  0  0  0  0  0  0  0  0  0
    1.1345   -0.9891    4.3911 H   0  0  0  0  0  0  0  0  0  0  0  0
  1  2  1  0  0  0  0
  2  3  1  0  0  0  0
  2  4  1  0  0  0  0
  2  5  1  0  0  0  0
  5  6  2  0  0  0  0
  5  7  1  0  0  0  0
  7  8  1  0  0  0  0
  7  9  1  0  0  0  0
  9 10  1  0  0  0  0
  9 11  1  0  0  0  0
  9 17  1  0  0  0  0
 11 12  1  0  0  0  0
 11 13  1  0  0  0  0
 11 14  1  0  0  0  0
 14 15  1  0  0  0  0
 14 16  2  0  0  0  0
 17 18  2  0  0  0  0
 17 19  1  0  0  0  0
 19 20  1  0  0  0  0
 19 21  1  0  0  0  0
 21 22  1  0  0  0  0
 21 23  1  0  0  0  0
 21 24  1  0  0  0  0
M  CHG  1  15  -1
M  END
$$$$

  -OEChem-01062216073D

 24 23  0     1  0  0  0  0  0999 V2000
   -3.0828   -3.3463    0.6994 H   0  0  0  0  0  0  0  0  0  0  0  0
   -2.9254   -2.3403    0.3007 C   0  0  0  0  0  0  0  0  0  0  0  0
   -3.7438   -1.6963    0.6318 H   0  0  0  0  0  0  0  0  0  0  0  0
   -2.9314   -2.3900   -0.7913 H   0  0  0  0  0  0  0  0  0  0  0  0
   -1.5989   -1.7820    0.7837 C   0  0  0  0  0  0  0  0  0  0  0  0
   -0.9441   -2.4173    1.5932 O   0  0  0  0  0  0  0  0  0  0  0  0
   -1.1964   -0.5472    0.3242 N   0  0  0  0  0  0  0  0  0  0  0  0
   -1.7668   -0.1704   -0.4314 H   0  0  0  0  0  0  0  0  0  0  0  0
    0.1502    0.0500    0.4087 C   0  0  1  0  0  0  0  0  0  0  0  0
    0.7976   -0.4107   -0.3455 H   0  0  0  0  0  0  0  0  0  0  0  0
   -0.0734    1.5409    0.0888 C   0  0  0  0  0  0  0  0  0  0  0  0
   -0.8351    1.9571    0.7549 H   0  0  0  0  0  0  0  0  0  0  0  0
    0.8567    2.0881    0.2640 H   0  0  0  0  0  0  0  0  0  0  0  0
   -0.4706    1.7820   -1.3649 C   0  0  0  0  0  0  0  0  0  0  0  0
   -0.0710    0.9839   -2.2471 O   0  5  0  0  0  0  0  0  0  0  0  0
   -1.3082    2.6937   -1.5628 O   0  0  0  0  0  0  0  0  0  0  0  0
    0.8987   -0.0622    1.7633 C   0  0  0  0  0  0  0  0  0  0  0  0
    2.1206    0.0497    1.8068 O   0  0  0  0  0  0  0  0  0  0  0  0
    0.1956   -0.1076    2.9542 N   0  0  0  0  0  0  0  0  0  0  0  0
   -0.7458   -0.4769    2.8506 H   0  0  0  0  0  0  0  0  0  0  0  0
    0.8487   -0.2645    4.2446 C   0  0  0  0  0  0  0  0  0  0  0  0
    1.5501    0.5571    4.4221 H   0  0  0  0  0  0  0  0  0  0  0  0
    0.1025   -0.2578    5.0442 H   0  0  0  0  0  0  0  0  0  0  0  0
    1.3947   -1.2125    4.2833 H   0  0  0  0  0  0  0  0  0  0  0  0
  1  2  1  0  0  0  0
  2  3  1  0  0  0  0
  2  4  1  0  0  0  0
  2  5  1  0  0  0  0
  5  6  2  0  0  0  0
  5  7  1  0  0  0  0
  7  8  1  0  0  0  0
  7  9  1  0  0  0  0
  9 10  1  0  0  0  0
  9 11  1  0  0  0  0
  9 17  1  0  0  0  0
 11 12  1  0  0  0  0
 11 13  1  0  0  0  0
 11 14  1  0  0  0  0
 14 15  1  0  0  0  0
 14 16  2  0  0  0  0
 17 18  2  0  0  0  0
 17 19  1  0  0  0  0
 19 20  1  0  0  0  0
 19 21  1  0  0  0  0
 21 22  1  0  0  0  0
 21 23  1  0  0  0  0
 21 24  1  0  0  0  0
M  CHG  1  15  -1
M  END
$$$$

  -OEChem-01062216073D

 24 23  0     1  0  0  0  0  0999 V2000
   -3.1682   -3.3055    0.6583 H   0  0  0  0  0  0  0  0  0  0  0  0
   -2.9709   -2.3093    0.2528 C   0  0  0  0  0  0  0  0  0  0  0  0
   -3.7652   -1.6321    0.5768 H   0  0  0  0  0  0  0  0  0  0  0  0
   -2.9753   -2.3667   -0.8388 H   0  0  0  0  0  0  0  0  0  0  0  0
   -1.6252   -1.7992    0.7366 C   0  0  0  0  0  0  0  0  0  0  0  0
   -0.9735   -2.4840    1.5082 O   0  0  0  0  0  0  0  0  0  0  0  0
   -1.1962   -0.5619    0.3084 N   0  0  0  0  0  0  0  0  0  0  0  0
   -1.7717   -0.1461   -0.4224 H   0  0  0  0  0  0  0  0  0  0  0  0
    0.1468    0.0427    0.4248 C   0  0  1  0  0  0  0  0  0  0  0  0
    0.8065   -0.4090   -0.3238 H   0  0  0  0  0  0  0  0  0  0  0  0
   -0.0952    1.5313    0.0990 C   0  0  0  0  0  0  0  0  0  0  0  0
   -0.8762    1.9348    0.7504 H   0  0  0  0  0  0  0  0  0  0  0  0
    0.8210    2.0963    0.2904 H   0  0  0  0  0  0  0  0  0  0  0  0
   -0.4662    1.7673   -1.3629 C   0  0  0  0  0  0  0  0  0  0  0  0
   -0.0351    0.9767   -2.2373 O   0  5  0  0  0  0  0  0  0  0  0  0
   -1.3211    2.6594   -1.5761 O   0  0  0  0  0  0  0  0  0  0  0  0
    0.8987   -0.0632    1.7823 C   0  0  0  0  0  0  0  0  0  0  0  0
    2.0719    0.2908    1.8625 O   0  0  0  0  0  0  0  0  0  0  0  0
    0.2493   -0.4235    2.9494 N   0  0  0  0  0  0  0  0  0  0  0  0
   -0.5684   -1.0092    2.7801 H   0  0  0  0  0  0  0  0  0  0  0  0
    0.9480   -0.5970    4.2140 C   0  0  0  0  0  0  0  0  0  0  0  0
    1.4327    0.3371    4.5155 H   0  0  0  0  0  0  0  0  0  0  0  0
    0.2395   -0.8851    4.9960 H   0  0  0  0  0  0  0  0  0  0  0  0
    1.7083   -1.3796    4.1262 H   0  0  0  0  0  0  0  0  0  0  0  0
  1  2  1  0  0  0  0
  2  3  1  0  0  0  0
  2  4  1  0  0  0  0
  2  5  1  0  0  0  0
  5  6  2  0  0  0  0
  5  7  1  0  0  0  0
  7  8  1  0  0  0  0
  7  9  1  0  0  0  0
  9 10  1  0  0  0  0
  9 11  1  0  0  0  0
  9 17  1  0  0  0  0
 11 12  1  0  0  0  0
 11 13  1  0  0  0  0
 11 14  1  0  0  0  0
 14 15  1  0  0  0  0
 14 16  2  0  0  0  0
 17 18  2  0  0  0  0
 17 19  1  0  0  0  0
 19 20  1  0  0  0  0
 19 21  1  0  0  0  0
 21 22  1  0  0  0  0
 21 23  1  0  0  0  0
 21 24  1  0  0  0  0
M  CHG  1  15  -1
M  END
$$$$

  -OEChem-01062216073D

 24 23  0     1  0  0  0  0  0999 V2000
   -3.2042   -3.2946    0.5639 H   0  0  0  0  0  0  0  0  0  0  0  0
   -3.0100   -2.2688    0.2386 C   0  0  0  0  0  0  0  0  0  0  0  0
   -3.7671   -1.6108    0.6724 H   0  0  0  0  0  0  0  0  0  0  0  0
   -3.0834   -2.2260   -0.8512 H   0  0  0  0  0  0  0  0  0  0  0  0
   -1.6267   -1.8268    0.6806 C   0  0  0  0  0  0  0  0  0  0  0  0
   -0.9538   -2.5850    1.3608 O   0  0  0  0  0  0  0  0  0  0  0  0
   -1.1794   -0.5844    0.2865 N   0  0  0  0  0  0  0  0  0  0  0  0
   -1.7767   -0.1182   -0.3945 H   0  0  0  0  0  0  0  0  0  0  0  0
    0.1554    0.0344    0.4336 C   0  0  1  0  0  0  0  0  0  0  0  0
    0.8299   -0.4037   -0.3096 H   0  0  0  0  0  0  0  0  0  0  0  0
   -0.1140    1.5195    0.1019 C   0  0  0  0  0  0  0  0  0  0  0  0
   -0.9147    1.9064    0.7392 H   0  0  0  0  0  0  0  0  0  0  0  0
    0.7839    2.1081    0.3070 H   0  0  0  0  0  0  0  0  0  0  0  0
   -0.4612    1.7499   -1.3669 C   0  0  0  0  0  0  0  0  0  0  0  0
    0.0044    0.9715   -2.2343 O   0  5  0  0  0  0  0  0  0  0  0  0
   -1.3400    2.6154   -1.5927 O   0  0  0  0  0  0  0  0  0  0  0  0
    0.9044   -0.0682    1.7972 C   0  0  0  0  0  0  0  0  0  0  0  0
    1.9879    0.4906    1.9457 O   0  0  0  0  0  0  0  0  0  0  0  0
    0.3750   -0.7195    2.8962 N   0  0  0  0  0  0  0  0  0  0  0  0
   -0.3428   -1.4055    2.6575 H   0  0  0  0  0  0  0  0  0  0  0  0
    1.1077   -0.9104    4.1391 C   0  0  0  0  0  0  0  0  0  0  0  0
    1.3909    0.0552    4.5700 H   0  0  0  0  0  0  0  0  0  0  0  0
    0.4818   -1.4398    4.8635 H   0  0  0  0  0  0  0  0  0  0  0  0
    2.0130   -1.4999    3.9629 H   0  0  0  0  0  0  0  0  0  0  0  0
  1  2  1  0  0  0  0
  2  3  1  0  0  0  0
  2  4  1  0  0  0  0
  2  5  1  0  0  0  0
  5  6  2  0  0  0  0
  5  7  1  0  0  0  0
  7  8  1  0  0  0  0
  7  9  1  0  0  0  0
  9 10  1  0  0  0  0
  9 11  1  0  0  0  0
  9 17  1  0  0  0  0
 11 12  1  0  0  0  0
 11 13  1  0  0  0  0
 11 14  1  0  0  0  0
 14 15  1  0  0  0  0
 14 16  2  0  0  0  0
 17 18  2  0  0  0  0
 17 19  1  0  0  0  0
 19 20  1  0  0  0  0
 19 21  1  0  0  0  0
 21 22  1  0  0  0  0
 21 23  1  0  0  0  0
 21 24  1  0  0  0  0
M  CHG  1  15  -1
M  END
$$$$

  -OEChem-01062216073D

 24 23  0     1  0  0  0  0  0999 V2000
   -3.2479   -3.2617    0.5616 H   0  0  0  0  0  0  0  0  0  0  0  0
   -3.0355   -2.2354    0.2490 C   0  0  0  0  0  0  0  0  0  0  0  0
   -3.7523   -1.5646    0.7293 H   0  0  0  0  0  0  0  0  0  0  0  0
   -3.1549   -2.1659   -0.8354 H   0  0  0  0  0  0  0  0  0  0  0  0
   -1.6206   -1.8455    0.6388 C   0  0  0  0  0  0  0  0  0  0  0  0
   -0.9248   -2.6626    1.2212 O   0  0  0  0  0  0  0  0  0  0  0  0
   -1.1640   -0.5973    0.2733 N   0  0  0  0  0  0  0  0  0  0  0  0
   -1.7874   -0.0886   -0.3511 H   0  0  0  0  0  0  0  0  0  0  0  0
    0.1650    0.0322    0.4373 C   0  0  1  0  0  0  0  0  0  0  0  0
    0.8473   -0.3953   -0.3052 H   0  0  0  0  0  0  0  0  0  0  0  0
   -0.1249    1.5140    0.1001 C   0  0  0  0  0  0  0  0  0  0  0  0
   -0.9363    1.8900    0.7306 H   0  0  0  0  0  0  0  0  0  0  0  0
    0.7609    2.1189    0.3086 H   0  0  0  0  0  0  0  0  0  0  0  0
   -0.4600    1.7396   -1.3723 C   0  0  0  0  0  0  0  0  0  0  0  0
    0.0268    0.9701   -2.2359 O   0  5  0  0  0  0  0  0  0  0  0  0
   -1.3551    2.5868   -1.6043 O   0  0  0  0  0  0  0  0  0  0  0  0
    0.9144   -0.0790    1.8044 C   0  0  0  0  0  0  0  0  0  0  0  0
    1.8694    0.6537    2.0488 O   0  0  0  0  0  0  0  0  0  0  0  0
    0.5619   -0.9768    2.7947 N   0  0  0  0  0  0  0  0  0  0  0  0
   -0.0717   -1.7183    2.4913 H   0  0  0  0  0  0  0  0  0  0  0  0
    1.3274   -1.1827    4.0154 C   0  0  0  0  0  0  0  0  0  0  0  0
    1.3883   -0.2535    4.5908 H   0  0  0  0  0  0  0  0  0  0  0  0
    0.8422   -1.9413    4.6365 H   0  0  0  0  0  0  0  0  0  0  0  0
    2.3409   -1.5219    3.7791 H   0  0  0  0  0  0  0  0  0  0  0  0
  1  2  1  0  0  0  0
  2  3  1  0  0  0  0
  2  4  1  0  0  0  0
  2  5  1  0  0  0  0
  5  6  2  0  0  0  0
  5  7  1  0  0  0  0
  7  8  1  0  0  0  0
  7  9  1  0  0  0  0
  9 10  1  0  0  0  0
  9 11  1  0  0  0  0
  9 17  1  0  0  0  0
 11 12  1  0  0  0  0
 11 13  1  0  0  0  0
 11 14  1  0  0  0  0
 14 15  1  0  0  0  0
 14 16  2  0  0  0  0
 17 18  2  0  0  0  0
 17 19  1  0  0  0  0
 19 20  1  0  0  0  0
 19 21  1  0  0  0  0
 21 22  1  0  0  0  0
 21 23  1  0  0  0  0
 21 24  1  0  0  0  0
M  CHG  1  15  -1
M  END
$$$$

  -OEChem-01062216073D

 24 23  0     1  0  0  0  0  0999 V2000
   -3.4307   -3.0674    0.8391 H   0  0  0  0  0  0  0  0  0  0  0  0
   -3.1619   -2.0768    0.4616 C   0  0  0  0  0  0  0  0  0  0  0  0
   -3.7794   -1.3283    0.9643 H   0  0  0  0  0  0  0  0  0  0  0  0
   -3.3641   -2.0420   -0.6121 H   0  0  0  0  0  0  0  0  0  0  0  0
   -1.6926   -1.7930    0.7182 C   0  0  0  0  0  0  0  0  0  0  0  0
   -1.0039   -2.6718    1.2127 O   0  0  0  0  0  0  0  0  0  0  0  0
   -1.1859   -0.5766    0.3126 N   0  0  0  0  0  0  0  0  0  0  0  0
   -1.8296   -0.0208   -0.2476 H   0  0  0  0  0  0  0  0  0  0  0  0
    0.1805   -0.0139    0.3898 C   0  0  1  0  0  0  0  0  0  0  0  0
    0.7966   -0.4932   -0.3782 H   0  0  0  0  0  0  0  0  0  0  0  0
   -0.0530    1.4720    0.0227 C   0  0  0  0  0  0  0  0  0  0  0  0
   -0.8085    1.9074    0.6834 H   0  0  0  0  0  0  0  0  0  0  0  0
    0.8719    2.0365    0.1631 H   0  0  0  0  0  0  0  0  0  0  0  0
   -0.4533    1.6747   -1.4368 C   0  0  0  0  0  0  0  0  0  0  0  0
   -0.0512    0.8583   -2.3009 O   0  5  0  0  0  0  0  0  0  0  0  0
   -1.3191    2.5572   -1.6470 O   0  0  0  0  0  0  0  0  0  0  0  0
    0.9976   -0.1516    1.7171 C   0  0  0  0  0  0  0  0  0  0  0  0
    1.8442    0.6831    2.0257 O   0  0  0  0  0  0  0  0  0  0  0  0
    0.8451   -1.2070    2.5959 N   0  0  0  0  0  0  0  0  0  0  0  0
    0.2253   -1.9568    2.2829 H   0  0  0  0  0  0  0  0  0  0  0  0
    1.6568   -1.4182    3.7851 C   0  0  0  0  0  0  0  0  0  0  0  0
    1.5871   -0.5556    4.4557 H   0  0  0  0  0  0  0  0  0  0  0  0
    1.3056   -2.3033    4.3236 H   0  0  0  0  0  0  0  0  0  0  0  0
    2.7050   -1.5714    3.5095 H   0  0  0  0  0  0  0  0  0  0  0  0
  1  2  1  0  0  0  0
  2  3  1  0  0  0  0
  2  4  1  0  0  0  0
  2  5  1  0  0  0  0
  5  6  2  0  0  0  0
  5  7  1  0  0  0  0
  7  8  1  0  0  0  0
  7  9  1  0  0  0  0
  9 10  1  0  0  0  0
  9 11  1  0  0  0  0
  9 17  1  0  0  0  0
 11 12  1  0  0  0  0
 11 13  1  0  0  0  0
 11 14  1  0  0  0  0
 14 15  1  0  0  0  0
 14 16  2  0  0  0  0
 17 18  2  0  0  0  0
 17 19  1  0  0  0  0
 19 20  1  0  0  0  0
 19 21  1  0  0  0  0
 21 22  1  0  0  0  0
 21 23  1  0  0  0  0
 21 24  1  0  0  0  0
M  CHG  1  15  -1
M  END
$$$$

  -OEChem-01062216073D

 24 23  0     1  0  0  0  0  0999 V2000
   -3.2217   -3.2353    0.6868 H   0  0  0  0  0  0  0  0  0  0  0  0
   -3.0151   -2.2093    0.3699 C   0  0  0  0  0  0  0  0  0  0  0  0
   -3.6700   -1.5311    0.9225 H   0  0  0  0  0  0  0  0  0  0  0  0
   -3.2305   -2.1204   -0.6981 H   0  0  0  0  0  0  0  0  0  0  0  0
   -1.5621   -1.8559    0.6342 C   0  0  0  0  0  0  0  0  0  0  0  0
   -0.8211   -2.7186    1.0787 O   0  0  0  0  0  0  0  0  0  0  0  0
   -1.1277   -0.5942    0.2874 N   0  0  0  0  0  0  0  0  0  0  0  0
   -1.8069   -0.0447   -0.2353 H   0  0  0  0  0  0  0  0  0  0  0  0
    0.2015    0.0439    0.4021 C   0  0  1  0  0  0  0  0  0  0  0  0
    0.8525   -0.3746   -0.3726 H   0  0  0  0  0  0  0  0  0  0  0  0
   -0.0990    1.5273    0.0773 C   0  0  0  0  0  0  0  0  0  0  0  0
   -0.8848    1.9044    0.7386 H   0  0  0  0  0  0  0  0  0  0  0  0
    0.7967    2.1288    0.2509 H   0  0  0  0  0  0  0  0  0  0  0  0
   -0.4858    1.7577   -1.3818 C   0  0  0  0  0  0  0  0  0  0  0  0
   -0.0297    0.9897   -2.2635 O   0  5  0  0  0  0  0  0  0  0  0  0
   -1.3830    2.6105   -1.5824 O   0  0  0  0  0  0  0  0  0  0  0  0
    1.0031   -0.1153    1.7359 C   0  0  0  0  0  0  0  0  0  0  0  0
    1.5749    0.8381    2.2587 O   0  0  0  0  0  0  0  0  0  0  0  0
    1.1263   -1.3256    2.3900 N   0  0  0  0  0  0  0  0  0  0  0  0
    0.5885   -2.1004    1.9950 H   0  0  0  0  0  0  0  0  0  0  0  0
    1.8103   -1.5173    3.6599 C   0  0  0  0  0  0  0  0  0  0  0  0
    1.3488   -0.9036    4.4400 H   0  0  0  0  0  0  0  0  0  0  0  0
    1.7484   -2.5667    3.9621 H   0  0  0  0  0  0  0  0  0  0  0  0
    2.8666   -1.2447    3.5709 H   0  0  0  0  0  0  0  0  0  0  0  0
  1  2  1  0  0  0  0
  2  3  1  0  0  0  0
  2  4  1  0  0  0  0
  2  5  1  0  0  0  0
  5  6  2  0  0  0  0
  5  7  1  0  0  0  0
  7  8  1  0  0  0  0
  7  9  1  0  0  0  0
  9 10  1  0  0  0  0
  9 11  1  0  0  0  0
  9 17  1  0  0  0  0
 11 12  1  0  0  0  0
 11 13  1  0  0  0  0
 11 14  1  0  0  0  0
 14 15  1  0  0  0  0
 14 16  2  0  0  0  0
 17 18  2  0  0  0  0
 17 19  1  0  0  0  0
 19 20  1  0  0  0  0
 19 21  1  0  0  0  0
 21 22  1  0  0  0  0
 21 23  1  0  0  0  0
 21 24  1  0  0  0  0
M  CHG  1  15  -1
M  END
$$$$

  -OEChem-01062216073D

 24 23  0     1  0  0  0  0  0999 V2000
   -3.1334   -3.2600    0.7808 H   0  0  0  0  0  0  0  0  0  0  0  0
   -2.9609   -2.2317    0.4513 C   0  0  0  0  0  0  0  0  0  0  0  0
   -3.6172   -1.5655    1.0169 H   0  0  0  0  0  0  0  0  0  0  0  0
   -3.2064   -2.1560   -0.6112 H   0  0  0  0  0  0  0  0  0  0  0  0
   -1.5106   -1.8416    0.6746 C   0  0  0  0  0  0  0  0  0  0  0  0
   -0.7362   -2.6801    1.1095 O   0  0  0  0  0  0  0  0  0  0  0  0
   -1.1108   -0.5756    0.3034 N   0  0  0  0  0  0  0  0  0  0  0  0
   -1.8095   -0.0379   -0.2052 H   0  0  0  0  0  0  0  0  0  0  0  0
    0.2165    0.0674    0.3815 C   0  0  1  0  0  0  0  0  0  0  0  0
    0.8536   -0.3559   -0.4018 H   0  0  0  0  0  0  0  0  0  0  0  0
   -0.0765    1.5503    0.0546 C   0  0  0  0  0  0  0  0  0  0  0  0
   -0.8470    1.9374    0.7280 H   0  0  0  0  0  0  0  0  0  0  0  0
    0.8293    2.1411    0.2129 H   0  0  0  0  0  0  0  0  0  0  0  0
   -0.4910    1.7753   -1.3976 C   0  0  0  0  0  0  0  0  0  0  0  0
   -0.0592    0.9964   -2.2824 O   0  5  0  0  0  0  0  0  0  0  0  0
   -1.3757    2.6430   -1.5898 O   0  0  0  0  0  0  0  0  0  0  0  0
    1.0286   -0.0971    1.7049 C   0  0  0  0  0  0  0  0  0  0  0  0
    1.3935    0.8721    2.3663 O   0  0  0  0  0  0  0  0  0  0  0  0
    1.3993   -1.3434    2.1720 N   0  0  0  0  0  0  0  0  0  0  0  0
    0.8974   -2.1238    1.7401 H   0  0  0  0  0  0  0  0  0  0  0  0
    2.0480   -1.5670    3.4550 C   0  0  0  0  0  0  0  0  0  0  0  0
    1.4110   -1.2146    4.2725 H   0  0  0  0  0  0  0  0  0  0  0  0
    2.2373   -2.6349    3.5964 H   0  0  0  0  0  0  0  0  0  0  0  0
    3.0057   -1.0386    3.4969 H   0  0  0  0  0  0  0  0  0  0  0  0
  1  2  1  0  0  0  0
  2  3  1  0  0  0  0
  2  4  1  0  0  0  0
  2  5  1  0  0  0  0
  5  6  2  0  0  0  0
  5  7  1  0  0  0  0
  7  8  1  0  0  0  0
  7  9  1  0  0  0  0
  9 10  1  0  0  0  0
  9 11  1  0  0  0  0
  9 17  1  0  0  0  0
 11 12  1  0  0  0  0
 11 13  1  0  0  0  0
 11 14  1  0  0  0  0
 14 15  1  0  0  0  0
 14 16  2  0  0  0  0
 17 18  2  0  0  0  0
 17 19  1  0  0  0  0
 19 20  1  0  0  0  0
 19 21  1  0  0  0  0
 21 22  1  0  0  0  0
 21 23  1  0  0  0  0
 21 24  1  0  0  0  0
M  CHG  1  15  -1
M  END
$$$$

  -OEChem-01062216073D

 24 23  0     1  0  0  0  0  0999 V2000
   -3.0281   -3.2889    0.8736 H   0  0  0  0  0  0  0  0  0  0  0  0
   -2.8961   -2.2619    0.5222 C   0  0  0  0  0  0  0  0  0  0  0  0
   -3.5627   -1.6067    1.0886 H   0  0  0  0  0  0  0  0  0  0  0  0
   -3.1646   -2.2138   -0.5364 H   0  0  0  0  0  0  0  0  0  0  0  0
   -1.4555   -1.8205    0.7096 C   0  0  0  0  0  0  0  0  0  0  0  0
   -0.6394   -2.6203    1.1434 O   0  0  0  0  0  0  0  0  0  0  0  0
   -1.0989   -0.5520    0.3068 N   0  0  0  0  0  0  0  0  0  0  0  0
   -1.8126   -0.0325   -0.1996 H   0  0  0  0  0  0  0  0  0  0  0  0
    0.2232    0.0962    0.3657 C   0  0  1  0  0  0  0  0  0  0  0  0
    0.8621   -0.3315   -0.4140 H   0  0  0  0  0  0  0  0  0  0  0  0
   -0.0606    1.5780    0.0343 C   0  0  0  0  0  0  0  0  0  0  0  0
   -0.8263    1.9723    0.7091 H   0  0  0  0  0  0  0  0  0  0  0  0
    0.8511    2.1609    0.1893 H   0  0  0  0  0  0  0  0  0  0  0  0
   -0.4849    1.7958   -1.4162 C   0  0  0  0  0  0  0  0  0  0  0  0
   -0.0648    1.0065   -2.2977 O   0  5  0  0  0  0  0  0  0  0  0  0
   -1.3567    2.6755   -1.6120 O   0  0  0  0  0  0  0  0  0  0  0  0
    1.0138   -0.0676    1.6976 C   0  0  0  0  0  0  0  0  0  0  0  0
    1.1768    0.8666    2.4793 O   0  0  0  0  0  0  0  0  0  0  0  0
    1.6231   -1.2716    1.9972 N   0  0  0  0  0  0  0  0  0  0  0  0
    1.1932   -2.0676    1.5195 H   0  0  0  0  0  0  0  0  0  0  0  0
    2.2895   -1.5272    3.2652 C   0  0  0  0  0  0  0  0  0  0  0  0
    1.5795   -1.4432    4.0940 H   0  0  0  0  0  0  0  0  0  0  0  0
    2.7117   -2.5363    3.2680 H   0  0  0  0  0  0  0  0  0  0  0  0
    3.1042   -0.8131    3.4215 H   0  0  0  0  0  0  0  0  0  0  0  0
  1  2  1  0  0  0  0
  2  3  1  0  0  0  0
  2  4  1  0  0  0  0
  2  5  1  0  0  0  0
  5  6  2  0  0  0  0
  5  7  1  0  0  0  0
  7  8  1  0  0  0  0
  7  9  1  0  0  0  0
  9 10  1  0  0  0  0
  9 11  1  0  0  0  0
  9 17  1  0  0  0  0
 11 12  1  0  0  0  0
 11 13  1  0  0  0  0
 11 14  1  0  0  0  0
 14 15  1  0  0  0  0
 14 16  2  0  0  0  0
 17 18  2  0  0  0  0
 17 19  1  0  0  0  0
 19 20  1  0  0  0  0
 19 21  1  0  0  0  0
 21 22  1  0  0  0  0
 21 23  1  0  0  0  0
 21 24  1  0  0  0  0
M  CHG  1  15  -1
M  END
$$$$

  -OEChem-01062216073D

 24 23  0     1  0  0  0  0  0999 V2000
   -2.9193   -3.3202    0.9741 H   0  0  0  0  0  0  0  0  0  0  0  0
   -2.8328   -2.2987    0.5936 C   0  0  0  0  0  0  0  0  0  0  0  0
   -3.5016   -1.6514    1.1660 H   0  0  0  0  0  0  0  0  0  0  0  0
   -3.1365   -2.2855   -0.4563 H   0  0  0  0  0  0  0  0  0  0  0  0
   -1.4021   -1.8074    0.7230 C   0  0  0  0  0  0  0  0  0  0  0  0
   -0.5407   -2.5717    1.1353 O   0  0  0  0  0  0  0  0  0  0  0  0
   -1.0938   -0.5350    0.2938 N   0  0  0  0  0  0  0  0  0  0  0  0
   -1.8304   -0.0237   -0.1862 H   0  0  0  0  0  0  0  0  0  0  0  0
    0.2208    0.1219    0.3443 C   0  0  1  0  0  0  0  0  0  0  0  0
    0.8652   -0.3068   -0.4305 H   0  0  0  0  0  0  0  0  0  0  0  0
   -0.0480    1.6056    0.0152 C   0  0  0  0  0  0  0  0  0  0  0  0
   -0.8123    2.0047    0.6889 H   0  0  0  0  0  0  0  0  0  0  0  0
    0.8692    2.1780    0.1765 H   0  0  0  0  0  0  0  0  0  0  0  0
   -0.4721    1.8303   -1.4341 C   0  0  0  0  0  0  0  0  0  0  0  0
   -0.0609    1.0376   -2.3170 O   0  5  0  0  0  0  0  0  0  0  0  0
   -1.3188    2.7337   -1.6329 O   0  0  0  0  0  0  0  0  0  0  0  0
    0.9803   -0.0431    1.6898 C   0  0  0  0  0  0  0  0  0  0  0  0
    0.9195    0.8007    2.5815 O   0  0  0  0  0  0  0  0  0  0  0  0
    1.8279   -1.1225    1.8583 N   0  0  0  0  0  0  0  0  0  0  0  0
    1.5628   -1.9247    1.2862 H   0  0  0  0  0  0  0  0  0  0  0  0
    2.5046   -1.3938    3.1176 C   0  0  0  0  0  0  0  0  0  0  0  0
    1.7748   -1.5470    3.9191 H   0  0  0  0  0  0  0  0  0  0  0  0
    3.1164   -2.2959    3.0261 H   0  0  0  0  0  0  0  0  0  0  0  0
    3.1593   -0.5591    3.3883 H   0  0  0  0  0  0  0  0  0  0  0  0
  1  2  1  0  0  0  0
  2  3  1  0  0  0  0
  2  4  1  0  0  0  0
  2  5  1  0  0  0  0
  5  6  2  0  0  0  0
  5  7  1  0  0  0  0
  7  8  1  0  0  0  0
  7  9  1  0  0  0  0
  9 10  1  0  0  0  0
  9 11  1  0  0  0  0
  9 17  1  0  0  0  0
 11 12  1  0  0  0  0
 11 13  1  0  0  0  0
 11 14  1  0  0  0  0
 14 15  1  0  0  0  0
 14 16  2  0  0  0  0
 17 18  2  0  0  0  0
 17 19  1  0  0  0  0
 19 20  1  0  0  0  0
 19 21  1  0  0  0  0
 21 22  1  0  0  0  0
 21 23  1  0  0  0  0
 21 24  1  0  0  0  0
M  CHG  1  15  -1
M  END
$$$$

  -OEChem-01062216073D

 24 23  0     1  0  0  0  0  0999 V2000
   -2.8704   -3.3327    1.0228 H   0  0  0  0  0  0  0  0  0  0  0  0
   -2.8060   -2.3135    0.6321 C   0  0  0  0  0  0  0  0  0  0  0  0
   -3.4777   -1.6722    1.2080 H   0  0  0  0  0  0  0  0  0  0  0  0
   -3.1238   -2.3151   -0.4137 H   0  0  0  0  0  0  0  0  0  0  0  0
   -1.3820   -1.7976    0.7383 C   0  0  0  0  0  0  0  0  0  0  0  0
   -0.5021   -2.5393    1.1526 O   0  0  0  0  0  0  0  0  0  0  0  0
   -1.0968   -0.5270    0.2892 N   0  0  0  0  0  0  0  0  0  0  0  0
   -1.8451   -0.0216   -0.1777 H   0  0  0  0  0  0  0  0  0  0  0  0
    0.2139    0.1341    0.3329 C   0  0  1  0  0  0  0  0  0  0  0  0
    0.8586   -0.2991   -0.4387 H   0  0  0  0  0  0  0  0  0  0  0  0
   -0.0444    1.6180    0.0030 C   0  0  0  0  0  0  0  0  0  0  0  0
   -0.8076    2.0211    0.6754 H   0  0  0  0  0  0  0  0  0  0  0  0
    0.8760    2.1845    0.1666 H   0  0  0  0  0  0  0  0  0  0  0  0
   -0.4684    1.8435   -1.4462 C   0  0  0  0  0  0  0  0  0  0  0  0
   -0.0632    1.0459   -2.3276 O   0  5  0  0  0  0  0  0  0  0  0  0
   -1.2979    2.7617   -1.6491 O   0  0  0  0  0  0  0  0  0  0  0  0
    0.9610   -0.0208    1.6839 C   0  0  0  0  0  0  0  0  0  0  0  0
    0.6847    0.6737    2.6597 O   0  0  0  0  0  0  0  0  0  0  0  0
    2.0285   -0.8965    1.7690 N   0  0  0  0  0  0  0  0  0  0  0  0
    2.0232   -1.6243    1.0588 H   0  0  0  0  0  0  0  0  0  0  0  0
    2.7088   -1.1784    3.0239 C   0  0  0  0  0  0  0  0  0  0  0  0
    2.0111   -1.6118    3.7477 H   0  0  0  0  0  0  0  0  0  0  0  0
    3.5238   -1.8887    2.8566 H   0  0  0  0  0  0  0  0  0  0  0  0
    3.1325   -0.2607    3.4445 H   0  0  0  0  0  0  0  0  0  0  0  0
  1  2  1  0  0  0  0
  2  3  1  0  0  0  0
  2  4  1  0  0  0  0
  2  5  1  0  0  0  0
  5  6  2  0  0  0  0
  5  7  1  0  0  0  0
  7  8  1  0  0  0  0
  7  9  1  0  0  0  0
  9 10  1  0  0  0  0
  9 11  1  0  0  0  0
  9 17  1  0  0  0  0
 11 12  1  0  0  0  0
 11 13  1  0  0  0  0
 11 14  1  0  0  0  0
 14 15  1  0  0  0  0
 14 16  2  0  0  0  0
 17 18  2  0  0  0  0
 17 19  1  0  0  0  0
 19 20  1  0  0  0  0
 19 21  1  0  0  0  0
 21 22  1  0  0  0  0
 21 23  1  0  0  0  0
 21 24  1  0  0  0  0
M  CHG  1  15  -1
M  END
$$$$

  -OEChem-01062216073D

 24 23  0     1  0  0  0  0  0999 V2000
   -2.8598   -3.3438    1.0479 H   0  0  0  0  0  0  0  0  0  0  0  0
   -2.8057   -2.3250    0.6548 C   0  0  0  0  0  0  0  0  0  0  0  0
   -3.4672   -1.6841    1.2429 H   0  0  0  0  0  0  0  0  0  0  0  0
   -3.1437   -2.3288   -0.3846 H   0  0  0  0  0  0  0  0  0  0  0  0
   -1.3810   -1.8060    0.7331 C   0  0  0  0  0  0  0  0  0  0  0  0
   -0.4918   -2.5452    1.1316 O   0  0  0  0  0  0  0  0  0  0  0  0
   -1.1060   -0.5362    0.2753 N   0  0  0  0  0  0  0  0  0  0  0  0
   -1.8682   -0.0198   -0.1541 H   0  0  0  0  0  0  0  0  0  0  0  0
    0.2002    0.1317    0.3293 C   0  0  1  0  0  0  0  0  0  0  0  0
    0.8501   -0.3073   -0.4345 H   0  0  0  0  0  0  0  0  0  0  0  0
   -0.0443    1.6168   -0.0016 C   0  0  0  0  0  0  0  0  0  0  0  0
   -0.8122    2.0234    0.6632 H   0  0  0  0  0  0  0  0  0  0  0  0
    0.8777    2.1772    0.1733 H   0  0  0  0  0  0  0  0  0  0  0  0
   -0.4506    1.8490   -1.4544 C   0  0  0  0  0  0  0  0  0  0  0  0
   -0.0410    1.0504   -2.3328 O   0  5  0  0  0  0  0  0  0  0  0  0
   -1.2541    2.7875   -1.6681 O   0  0  0  0  0  0  0  0  0  0  0  0
    0.9331   -0.0086    1.6877 C   0  0  0  0  0  0  0  0  0  0  0  0
    0.4784    0.4856    2.7174 O   0  0  0  0  0  0  0  0  0  0  0  0
    2.1744   -0.6188    1.7290 N   0  0  0  0  0  0  0  0  0  0  0  0
    2.4166   -1.1649    0.9078 H   0  0  0  0  0  0  0  0  0  0  0  0
    2.8819   -0.8863    2.9718 C   0  0  0  0  0  0  0  0  0  0  0  0
    2.2987   -1.5629    3.6048 H   0  0  0  0  0  0  0  0  0  0  0  0
    3.8480   -1.3533    2.7594 H   0  0  0  0  0  0  0  0  0  0  0  0
    3.0625    0.0448    3.5187 H   0  0  0  0  0  0  0  0  0  0  0  0
  1  2  1  0  0  0  0
  2  3  1  0  0  0  0
  2  4  1  0  0  0  0
  2  5  1  0  0  0  0
  5  6  2  0  0  0  0
  5  7  1  0  0  0  0
  7  8  1  0  0  0  0
  7  9  1  0  0  0  0
  9 10  1  0  0  0  0
  9 11  1  0  0  0  0
  9 17  1  0  0  0  0
 11 12  1  0  0  0  0
 11 13  1  0  0  0  0
 11 14  1  0  0  0  0
 14 15  1  0  0  0  0
 14 16  2  0  0  0  0
 17 18  2  0  0  0  0
 17 19  1  0  0  0  0
 19 20  1  0  0  0  0
 19 21  1  0  0  0  0
 21 22  1  0  0  0  0
 21 23  1  0  0  0  0
 21 24  1  0  0  0  0
M  CHG  1  15  -1
M  END
$$$$

  -OEChem-01062216073D

 24 23  0     1  0  0  0  0  0999 V2000
   -2.8704   -3.3554    1.0467 H   0  0  0  0  0  0  0  0  0  0  0  0
   -2.8186   -2.3328    0.6632 C   0  0  0  0  0  0  0  0  0  0  0  0
   -3.4574   -1.6933    1.2773 H   0  0  0  0  0  0  0  0  0  0  0  0
   -3.1859   -2.3222   -0.3661 H   0  0  0  0  0  0  0  0  0  0  0  0
   -1.3877   -1.8267    0.7060 C   0  0  0  0  0  0  0  0  0  0  0  0
   -0.4944   -2.5775    1.0723 O   0  0  0  0  0  0  0  0  0  0  0  0
   -1.1131   -0.5559    0.2498 N   0  0  0  0  0  0  0  0  0  0  0  0
   -1.8856   -0.0191   -0.1328 H   0  0  0  0  0  0  0  0  0  0  0  0
    0.1911    0.1139    0.3266 C   0  0  1  0  0  0  0  0  0  0  0  0
    0.8514   -0.3246   -0.4286 H   0  0  0  0  0  0  0  0  0  0  0  0
   -0.0430    1.6020    0.0048 C   0  0  0  0  0  0  0  0  0  0  0  0
   -0.8193    2.0041    0.6626 H   0  0  0  0  0  0  0  0  0  0  0  0
    0.8781    2.1573    0.1984 H   0  0  0  0  0  0  0  0  0  0  0  0
   -0.4268    1.8538   -1.4503 C   0  0  0  0  0  0  0  0  0  0  0  0
   -0.0082    1.0649   -2.3330 O   0  5  0  0  0  0  0  0  0  0  0  0
   -1.2111    2.8084   -1.6645 O   0  0  0  0  0  0  0  0  0  0  0  0
    0.9055   -0.0199    1.6947 C   0  0  0  0  0  0  0  0  0  0  0  0
    0.3352    0.2588    2.7475 O   0  0  0  0  0  0  0  0  0  0  0  0
    2.2535   -0.3307    1.7270 N   0  0  0  0  0  0  0  0  0  0  0  0
    2.6623   -0.6406    0.8511 H   0  0  0  0  0  0  0  0  0  0  0  0
    2.9977   -0.5298    2.9610 C   0  0  0  0  0  0  0  0  0  0  0  0
    2.5732   -1.3616    3.5325 H   0  0  0  0  0  0  0  0  0  0  0  0
    4.0430   -0.7600    2.7353 H   0  0  0  0  0  0  0  0  0  0  0  0
    2.9689    0.3752    3.5763 H   0  0  0  0  0  0  0  0  0  0  0  0
  1  2  1  0  0  0  0
  2  3  1  0  0  0  0
  2  4  1  0  0  0  0
  2  5  1  0  0  0  0
  5  6  2  0  0  0  0
  5  7  1  0  0  0  0
  7  8  1  0  0  0  0
  7  9  1  0  0  0  0
  9 10  1  0  0  0  0
  9 11  1  0  0  0  0
  9 17  1  0  0  0  0
 11 12  1  0  0  0  0
 11 13  1  0  0  0  0
 11 14  1  0  0  0  0
 14 15  1  0  0  0  0
 14 16  2  0  0  0  0
 17 18  2  0  0  0  0
 17 19  1  0  0  0  0
 19 20  1  0  0  0  0
 19 21  1  0  0  0  0
 21 22  1  0  0  0  0
 21 23  1  0  0  0  0
 21 24  1  0  0  0  0
M  CHG  1  15  -1
M  END
$$$$

  -OEChem-01062216073D

 24 23  0     1  0  0  0  0  0999 V2000
   -2.9008   -3.3573    1.0445 H   0  0  0  0  0  0  0  0  0  0  0  0
   -2.8409   -2.3375    0.6542 C   0  0  0  0  0  0  0  0  0  0  0  0
   -3.4525   -1.6839    1.2809 H   0  0  0  0  0  0  0  0  0  0  0  0
   -3.2335   -2.3246   -0.3655 H   0  0  0  0  0  0  0  0  0  0  0  0
   -1.4007   -1.8569    0.6592 C   0  0  0  0  0  0  0  0  0  0  0  0
   -0.5085   -2.6334    0.9707 O   0  0  0  0  0  0  0  0  0  0  0  0
   -1.1182   -0.5812    0.2209 N   0  0  0  0  0  0  0  0  0  0  0  0
   -1.8974   -0.0152   -0.0999 H   0  0  0  0  0  0  0  0  0  0  0  0
    0.1884    0.0799    0.3271 C   0  0  1  0  0  0  0  0  0  0  0  0
    0.8566   -0.3513   -0.4256 H   0  0  0  0  0  0  0  0  0  0  0  0
   -0.0369    1.5752    0.0308 C   0  0  0  0  0  0  0  0  0  0  0  0
   -0.8200    1.9666    0.6871 H   0  0  0  0  0  0  0  0  0  0  0  0
    0.8826    2.1251    0.2458 H   0  0  0  0  0  0  0  0  0  0  0  0
   -0.4016    1.8604   -1.4227 C   0  0  0  0  0  0  0  0  0  0  0  0
    0.0245    1.0900   -2.3175 O   0  5  0  0  0  0  0  0  0  0  0  0
   -1.1713    2.8292   -1.6254 O   0  0  0  0  0  0  0  0  0  0  0  0
    0.8901   -0.0671    1.7005 C   0  0  0  0  0  0  0  0  0  0  0  0
    0.2648    0.0005    2.7568 O   0  0  0  0  0  0  0  0  0  0  0  0
    2.2733   -0.0697    1.7492 N   0  0  0  0  0  0  0  0  0  0  0  0
    2.7614   -0.1139    0.8600 H   0  0  0  0  0  0  0  0  0  0  0  0
    3.0380   -0.1254    2.9856 C   0  0  0  0  0  0  0  0  0  0  0  0
    2.7760   -1.0214    3.5574 H   0  0  0  0  0  0  0  0  0  0  0  0
    4.1087   -0.1568    2.7635 H   0  0  0  0  0  0  0  0  0  0  0  0
    2.8371    0.7589    3.5988 H   0  0  0  0  0  0  0  0  0  0  0  0
  1  2  1  0  0  0  0
  2  3  1  0  0  0  0
  2  4  1  0  0  0  0
  2  5  1  0  0  0  0
  5  6  2  0  0  0  0
  5  7  1  0  0  0  0
  7  8  1  0  0  0  0
  7  9  1  0  0  0  0
  9 10  1  0  0  0  0
  9 11  1  0  0  0  0
  9 17  1  0  0  0  0
 11 12  1  0  0  0  0
 11 13  1  0  0  0  0
 11 14  1  0  0  0  0
 14 15  1  0  0  0  0
 14 16  2  0  0  0  0
 17 18  2  0  0  0  0
 17 19  1  0  0  0  0
 19 20  1  0  0  0  0
 19 21  1  0  0  0  0
 21 22  1  0  0  0  0
 21 23  1  0  0  0  0
 21 24  1  0  0  0  0
M  CHG  1  15  -1
M  END
$$$$

  -OEChem-01062216073D

 24 23  0     1  0  0  0  0  0999 V2000
   -2.9230   -3.3463    1.0595 H   0  0  0  0  0  0  0  0  0  0  0  0
   -2.8530   -2.3341    0.6521 C   0  0  0  0  0  0  0  0  0  0  0  0
   -3.4399   -1.6603    1.2812 H   0  0  0  0  0  0  0  0  0  0  0  0
   -3.2657   -2.3295   -0.3598 H   0  0  0  0  0  0  0  0  0  0  0  0
   -1.4045   -1.8803    0.6213 C   0  0  0  0  0  0  0  0  0  0  0  0
   -0.5174   -2.6826    0.8766 O   0  0  0  0  0  0  0  0  0  0  0  0
   -1.1123   -0.6011    0.1993 N   0  0  0  0  0  0  0  0  0  0  0  0
   -1.8936   -0.0157   -0.0771 H   0  0  0  0  0  0  0  0  0  0  0  0
    0.1977    0.0512    0.3262 C   0  0  1  0  0  0  0  0  0  0  0  0
    0.8705   -0.3693   -0.4285 H   0  0  0  0  0  0  0  0  0  0  0  0
   -0.0327    1.5513    0.0515 C   0  0  0  0  0  0  0  0  0  0  0  0
   -0.8207    1.9278    0.7106 H   0  0  0  0  0  0  0  0  0  0  0  0
    0.8814    2.1053    0.2787 H   0  0  0  0  0  0  0  0  0  0  0  0
   -0.3907    1.8628   -1.3981 C   0  0  0  0  0  0  0  0  0  0  0  0
    0.0424    1.1120   -2.3056 O   0  5  0  0  0  0  0  0  0  0  0  0
   -1.1562    2.8380   -1.5853 O   0  0  0  0  0  0  0  0  0  0  0  0
    0.8981   -0.1054    1.7011 C   0  0  0  0  0  0  0  0  0  0  0  0
    0.2659   -0.2513    2.7452 O   0  0  0  0  0  0  0  0  0  0  0  0
    2.2457    0.1987    1.7944 N   0  0  0  0  0  0  0  0  0  0  0  0
    2.7257    0.4152    0.9262 H   0  0  0  0  0  0  0  0  0  0  0  0
    2.9811    0.2539    3.0487 C   0  0  0  0  0  0  0  0  0  0  0  0
    2.9023   -0.6999    3.5803 H   0  0  0  0  0  0  0  0  0  0  0  0
    4.0387    0.4549    2.8546 H   0  0  0  0  0  0  0  0  0  0  0  0
    2.5872    1.0506    3.6876 H   0  0  0  0  0  0  0  0  0  0  0  0
  1  2  1  0  0  0  0
  2  3  1  0  0  0  0
  2  4  1  0  0  0  0
  2  5  1  0  0  0  0
  5  6  2  0  0  0  0
  5  7  1  0  0  0  0
  7  8  1  0  0  0  0
  7  9  1  0  0  0  0
  9 10  1  0  0  0  0
  9 11  1  0  0  0  0
  9 17  1  0  0  0  0
 11 12  1  0  0  0  0
 11 13  1  0  0  0  0
 11 14  1  0  0  0  0
 14 15  1  0  0  0  0
 14 16  2  0  0  0  0
 17 18  2  0  0  0  0
 17 19  1  0  0  0  0
 19 20  1  0  0  0  0
 19 21  1  0  0  0  0
 21 22  1  0  0  0  0
 21 23  1  0  0  0  0
 21 24  1  0  0  0  0
M  CHG  1  15  -1
M  END
$$$$

  -OEChem-01062216073D

 24 23  0     1  0  0  0  0  0999 V2000
   -2.9828   -3.3121    1.0024 H   0  0  0  0  0  0  0  0  0  0  0  0
   -2.8802   -2.2602    0.7223 C   0  0  0  0  0  0  0  0  0  0  0  0
   -3.2815   -1.6410    1.5285 H   0  0  0  0  0  0  0  0  0  0  0  0
   -3.4547   -2.0778   -0.1892 H   0  0  0  0  0  0  0  0  0  0  0  0
   -1.4189   -1.9197    0.4904 C   0  0  0  0  0  0  0  0  0  0  0  0
   -0.5894   -2.8179    0.4727 O   0  0  0  0  0  0  0  0  0  0  0  0
   -1.0829   -0.6347    0.1197 N   0  0  0  0  0  0  0  0  0  0  0  0
   -1.8621    0.0085    0.0209 H   0  0  0  0  0  0  0  0  0  0  0  0
    0.2377   -0.0038    0.2888 C   0  0  1  0  0  0  0  0  0  0  0  0
    0.8270   -0.1934   -0.6142 H   0  0  0  0  0  0  0  0  0  0  0  0
   -0.0607    1.5081    0.4223 C   0  0  0  0  0  0  0  0  0  0  0  0
   -0.7890    1.6682    1.2229 H   0  0  0  0  0  0  0  0  0  0  0  0
    0.8504    2.0440    0.6961 H   0  0  0  0  0  0  0  0  0  0  0  0
   -0.5679    2.1527   -0.8634 C   0  0  0  0  0  0  0  0  0  0  0  0
   -0.2064    1.6761   -1.9657 O   0  5  0  0  0  0  0  0  0  0  0  0
   -1.3819    3.0960   -0.7272 O   0  0  0  0  0  0  0  0  0  0  0  0
    1.1173   -0.4547    1.4914 C   0  0  0  0  0  0  0  0  0  0  0  0
    0.6500   -1.0112    2.4820 O   0  0  0  0  0  0  0  0  0  0  0  0
    2.3625    0.1339    1.6467 N   0  0  0  0  0  0  0  0  0  0  0  0
    2.6687    0.7480    0.8979 H   0  0  0  0  0  0  0  0  0  0  0  0
    3.1649    0.0405    2.8579 C   0  0  0  0  0  0  0  0  0  0  0  0
    3.3393   -1.0077    3.1221 H   0  0  0  0  0  0  0  0  0  0  0  0
    4.1344    0.5229    2.7034 H   0  0  0  0  0  0  0  0  0  0  0  0
    2.6573    0.5374    3.6909 H   0  0  0  0  0  0  0  0  0  0  0  0
  1  2  1  0  0  0  0
  2  3  1  0  0  0  0
  2  4  1  0  0  0  0
  2  5  1  0  0  0  0
  5  6  2  0  0  0  0
  5  7  1  0  0  0  0
  7  8  1  0  0  0  0
  7  9  1  0  0  0  0
  9 10  1  0  0  0  0
  9 11  1  0  0  0  0
  9 17  1  0  0  0  0
 11 12  1  0  0  0  0
 11 13  1  0  0  0  0
 11 14  1  0  0  0  0
 14 15  1  0  0  0  0
 14 16  2  0  0  0  0
 17 18  2  0  0  0  0
 17 19  1  0  0  0  0
 19 20  1  0  0  0  0
 19 21  1  0  0  0  0
 21 22  1  0  0  0  0
 21 23  1  0  0  0  0
 21 24  1  0  0  0  0
M  CHG  1  15  -1
M  END
$$$$

  -OEChem-01062216073D

 24 23  0     1  0  0  0  0  0999 V2000
   -2.9784   -3.2920    1.0253 H   0  0  0  0  0  0  0  0  0  0  0  0
   -2.8670   -2.2417    0.7425 C   0  0  0  0  0  0  0  0  0  0  0  0
   -3.2366   -1.6169    1.5592 H   0  0  0  0  0  0  0  0  0  0  0  0
   -3.4630   -2.0500   -0.1531 H   0  0  0  0  0  0  0  0  0  0  0  0
   -1.4070   -1.9243    0.4723 C   0  0  0  0  0  0  0  0  0  0  0  0
   -0.6037   -2.8413    0.3876 O   0  0  0  0  0  0  0  0  0  0  0  0
   -1.0609   -0.6388    0.1124 N   0  0  0  0  0  0  0  0  0  0  0  0
   -1.8409    0.0042    0.0211 H   0  0  0  0  0  0  0  0  0  0  0  0
    0.2554    0.0027    0.2905 C   0  0  1  0  0  0  0  0  0  0  0  0
    0.8514   -0.1786   -0.6099 H   0  0  0  0  0  0  0  0  0  0  0  0
   -0.0871    1.5105    0.4076 C   0  0  0  0  0  0  0  0  0  0  0  0
   -0.8252    1.6575    1.2020 H   0  0  0  0  0  0  0  0  0  0  0  0
    0.8024    2.0821    0.6771 H   0  0  0  0  0  0  0  0  0  0  0  0
   -0.5975    2.1349   -0.8870 C   0  0  0  0  0  0  0  0  0  0  0  0
   -0.2138    1.6652   -1.9842 O   0  5  0  0  0  0  0  0  0  0  0  0
   -1.4343    3.0593   -0.7601 O   0  0  0  0  0  0  0  0  0  0  0  0
    1.1494   -0.4310    1.4968 C   0  0  0  0  0  0  0  0  0  0  0  0
    0.7839   -1.2213    2.3609 O   0  0  0  0  0  0  0  0  0  0  0  0
    2.2289    0.3671    1.8454 N   0  0  0  0  0  0  0  0  0  0  0  0
    2.4435    1.1352    1.2167 H   0  0  0  0  0  0  0  0  0  0  0  0
    2.9816    0.2390    3.0855 C   0  0  0  0  0  0  0  0  0  0  0  0
    3.3805   -0.7753    3.1880 H   0  0  0  0  0  0  0  0  0  0  0  0
    3.8201    0.9416    3.0894 H   0  0  0  0  0  0  0  0  0  0  0  0
    2.3409    0.4575    3.9459 H   0  0  0  0  0  0  0  0  0  0  0  0
  1  2  1  0  0  0  0
  2  3  1  0  0  0  0
  2  4  1  0  0  0  0
  2  5  1  0  0  0  0
  5  6  2  0  0  0  0
  5  7  1  0  0  0  0
  7  8  1  0  0  0  0
  7  9  1  0  0  0  0
  9 10  1  0  0  0  0
  9 11  1  0  0  0  0
  9 17  1  0  0  0  0
 11 12  1  0  0  0  0
 11 13  1  0  0  0  0
 11 14  1  0  0  0  0
 14 15  1  0  0  0  0
 14 16  2  0  0  0  0
 17 18  2  0  0  0  0
 17 19  1  0  0  0  0
 19 20  1  0  0  0  0
 19 21  1  0  0  0  0
 21 22  1  0  0  0  0
 21 23  1  0  0  0  0
 21 24  1  0  0  0  0
M  CHG  1  15  -1
M  END
$$$$

  -OEChem-01062216073D

 24 23  0     1  0  0  0  0  0999 V2000
   -3.0341   -3.2605    1.0133 H   0  0  0  0  0  0  0  0  0  0  0  0
   -2.8927   -2.2203    0.7071 C   0  0  0  0  0  0  0  0  0  0  0  0
   -3.2933   -1.5677    1.4865 H   0  0  0  0  0  0  0  0  0  0  0  0
   -3.4406   -2.0461   -0.2222 H   0  0  0  0  0  0  0  0  0  0  0  0
   -1.4163   -1.9311    0.4996 C   0  0  0  0  0  0  0  0  0  0  0  0
   -0.6394   -2.8701    0.4400 O   0  0  0  0  0  0  0  0  0  0  0  0
   -1.0433   -0.6506    0.1466 N   0  0  0  0  0  0  0  0  0  0  0  0
   -1.8202   -0.0191   -0.0222 H   0  0  0  0  0  0  0  0  0  0  0  0
    0.2609    0.0178    0.3321 C   0  0  1  0  0  0  0  0  0  0  0  0
    0.8705   -0.1674   -0.5584 H   0  0  0  0  0  0  0  0  0  0  0  0
   -0.1280    1.5200    0.3996 C   0  0  0  0  0  0  0  0  0  0  0  0
   -0.8807    1.6709    1.1794 H   0  0  0  0  0  0  0  0  0  0  0  0
    0.7396    2.1289    0.6554 H   0  0  0  0  0  0  0  0  0  0  0  0
   -0.6315    2.0955   -0.9201 C   0  0  0  0  0  0  0  0  0  0  0  0
   -0.2165    1.6116   -1.9988 O   0  5  0  0  0  0  0  0  0  0  0  0
   -1.5003    2.9939   -0.8281 O   0  0  0  0  0  0  0  0  0  0  0  0
    1.1656   -0.3739    1.5508 C   0  0  0  0  0  0  0  0  0  0  0  0
    1.0470   -1.4040    2.2010 O   0  0  0  0  0  0  0  0  0  0  0  0
    2.0182    0.5701    2.1052 N   0  0  0  0  0  0  0  0  0  0  0  0
    2.0741    1.4652    1.6294 H   0  0  0  0  0  0  0  0  0  0  0  0
    2.8051    0.3640    3.3138 C   0  0  0  0  0  0  0  0  0  0  0  0
    3.4655   -0.5013    3.1975 H   0  0  0  0  0  0  0  0  0  0  0  0
    3.4221    1.2447    3.5141 H   0  0  0  0  0  0  0  0  0  0  0  0
    2.1488    0.1977    4.1738 H   0  0  0  0  0  0  0  0  0  0  0  0
  1  2  1  0  0  0  0
  2  3  1  0  0  0  0
  2  4  1  0  0  0  0
  2  5  1  0  0  0  0
  5  6  2  0  0  0  0
  5  7  1  0  0  0  0
  7  8  1  0  0  0  0
  7  9  1  0  0  0  0
  9 10  1  0  0  0  0
  9 11  1  0  0  0  0
  9 17  1  0  0  0  0
 11 12  1  0  0  0  0
 11 13  1  0  0  0  0
 11 14  1  0  0  0  0
 14 15  1  0  0  0  0
 14 16  2  0  0  0  0
 17 18  2  0  0  0  0
 17 19  1  0  0  0  0
 19 20  1  0  0  0  0
 19 21  1  0  0  0  0
 21 22  1  0  0  0  0
 21 23  1  0  0  0  0
 21 24  1  0  0  0  0
M  CHG  1  15  -1
M  END
$$$$

  -OEChem-01062216073D

 24 23  0     1  0  0  0  0  0999 V2000
   -3.1285   -3.3305    0.7116 H   0  0  0  0  0  0  0  0  0  0  0  0
   -2.9041   -2.3520    0.2781 C   0  0  0  0  0  0  0  0  0  0  0  0
   -3.7685   -1.6973    0.4145 H   0  0  0  0  0  0  0  0  0  0  0  0
   -2.7160   -2.4767   -0.7913 H   0  0  0  0  0  0  0  0  0  0  0  0
   -1.6843   -1.7459    0.9498 C   0  0  0  0  0  0  0  0  0  0  0  0
   -1.2444   -2.2901    1.9463 O   0  0  0  0  0  0  0  0  0  0  0  0
   -1.2406   -0.5220    0.4931 N   0  0  0  0  0  0  0  0  0  0  0  0
   -1.7718   -0.1840   -0.3072 H   0  0  0  0  0  0  0  0  0  0  0  0
    0.1105    0.0706    0.5538 C   0  0  1  0  0  0  0  0  0  0  0  0
    0.6590   -0.2294   -0.3455 H   0  0  0  0  0  0  0  0  0  0  0  0
   -0.1621    1.5963    0.5052 C   0  0  0  0  0  0  0  0  0  0  0  0
   -0.8600    1.8773    1.2996 H   0  0  0  0  0  0  0  0  0  0  0  0
    0.7663    2.1507    0.6546 H   0  0  0  0  0  0  0  0  0  0  0  0
   -0.6974    2.0621   -0.8457 C   0  0  0  0  0  0  0  0  0  0  0  0
   -0.3722    1.4281   -1.8785 O   0  5  0  0  0  0  0  0  0  0  0  0
   -1.4848    3.0364   -0.8280 O   0  0  0  0  0  0  0  0  0  0  0  0
    1.0528   -0.3183    1.7346 C   0  0  0  0  0  0  0  0  0  0  0  0
    1.5091   -1.4535    1.8193 O   0  0  0  0  0  0  0  0  0  0  0  0
    1.7710    0.6566    2.4118 N   0  0  0  0  0  0  0  0  0  0  0  0
    1.4726    1.6162    2.2688 H   0  0  0  0  0  0  0  0  0  0  0  0
    2.8427    0.3812    3.3588 C   0  0  0  0  0  0  0  0  0  0  0  0
    3.6863   -0.0993    2.8532 H   0  0  0  0  0  0  0  0  0  0  0  0
    3.1947    1.3141    3.8083 H   0  0  0  0  0  0  0  0  0  0  0  0
    2.4866   -0.2761    4.1587 H   0  0  0  0  0  0  0  0  0  0  0  0
  1  2  1  0  0  0  0
  2  3  1  0  0  0  0
  2  4  1  0  0  0  0
  2  5  1  0  0  0  0
  5  6  2  0  0  0  0
  5  7  1  0  0  0  0
  7  8  1  0  0  0  0
  7  9  1  0  0  0  0
  9 10  1  0  0  0  0
  9 11  1  0  0  0  0
  9 17  1  0  0  0  0
 11 12  1  0  0  0  0
 11 13  1  0  0  0  0
 11 14  1  0  0  0  0
 14 15  1  0  0  0  0
 14 16  2  0  0  0  0
 17 18  2  0  0  0  0
 17 19  1  0  0  0  0
 19 20  1  0  0  0  0
 19 21  1  0  0  0  0
 21 22  1  0  0  0  0
 21 23  1  0  0  0  0
 21 24  1  0  0  0  0
M  CHG  1  15  -1
M  END
$$$$

  -OEChem-01062216073D

 24 23  0     1  0  0  0  0  0999 V2000
   -3.1122   -3.3427    0.7226 H   0  0  0  0  0  0  0  0  0  0  0  0
   -2.9220   -2.3479    0.3100 C   0  0  0  0  0  0  0  0  0  0  0  0
   -3.7763   -1.7036    0.5316 H   0  0  0  0  0  0  0  0  0  0  0  0
   -2.8109   -2.4329   -0.7739 H   0  0  0  0  0  0  0  0  0  0  0  0
   -1.6591   -1.7596    0.9147 C   0  0  0  0  0  0  0  0  0  0  0  0
   -1.1443   -2.3368    1.8556 O   0  0  0  0  0  0  0  0  0  0  0  0
   -1.2310   -0.5316    0.4540 N   0  0  0  0  0  0  0  0  0  0  0  0
   -1.7825   -0.1782   -0.3256 H   0  0  0  0  0  0  0  0  0  0  0  0
    0.1175    0.0641    0.5138 C   0  0  1  0  0  0  0  0  0  0  0  0
    0.6684   -0.2308   -0.3857 H   0  0  0  0  0  0  0  0  0  0  0  0
   -0.1421    1.5906    0.4812 C   0  0  0  0  0  0  0  0  0  0  0  0
   -0.8361    1.8705    1.2794 H   0  0  0  0  0  0  0  0  0  0  0  0
    0.7963    2.1275    0.6385 H   0  0  0  0  0  0  0  0  0  0  0  0
   -0.6791    2.0760   -0.8616 C   0  0  0  0  0  0  0  0  0  0  0  0
   -0.3653    1.4524   -1.9040 O   0  5  0  0  0  0  0  0  0  0  0  0
   -1.4670    3.0496   -0.8254 O   0  0  0  0  0  0  0  0  0  0  0  0
    1.0411   -0.3376    1.7022 C   0  0  0  0  0  0  0  0  0  0  0  0
    1.6561   -1.3993    1.6739 O   0  0  0  0  0  0  0  0  0  0  0  0
    1.5136    0.6194    2.5876 N   0  0  0  0  0  0  0  0  0  0  0  0
    1.0681    1.5308    2.5464 H   0  0  0  0  0  0  0  0  0  0  0  0
    2.5282    0.3672    3.6004 C   0  0  0  0  0  0  0  0  0  0  0  0
    3.4816    0.1068    3.1298 H   0  0  0  0  0  0  0  0  0  0  0  0
    2.6767    1.2609    4.2134 H   0  0  0  0  0  0  0  0  0  0  0  0
    2.2188   -0.4543    4.2545 H   0  0  0  0  0  0  0  0  0  0  0  0
  1  2  1  0  0  0  0
  2  3  1  0  0  0  0
  2  4  1  0  0  0  0
  2  5  1  0  0  0  0
  5  6  2  0  0  0  0
  5  7  1  0  0  0  0
  7  8  1  0  0  0  0
  7  9  1  0  0  0  0
  9 10  1  0  0  0  0
  9 11  1  0  0  0  0
  9 17  1  0  0  0  0
 11 12  1  0  0  0  0
 11 13  1  0  0  0  0
 11 14  1  0  0  0  0
 14 15  1  0  0  0  0
 14 16  2  0  0  0  0
 17 18  2  0  0  0  0
 17 19  1  0  0  0  0
 19 20  1  0  0  0  0
 19 21  1  0  0  0  0
 21 22  1  0  0  0  0
 21 23  1  0  0  0  0
 21 24  1  0  0  0  0
M  CHG  1  15  -1
M  END
$$$$

  -OEChem-01062216073D

 24 23  0     1  0  0  0  0  0999 V2000
   -3.1280   -3.3222    0.7745 H   0  0  0  0  0  0  0  0  0  0  0  0
   -2.9340   -2.3358    0.3442 C   0  0  0  0  0  0  0  0  0  0  0  0
   -3.7551   -1.6659    0.6114 H   0  0  0  0  0  0  0  0  0  0  0  0
   -2.8894   -2.4294   -0.7439 H   0  0  0  0  0  0  0  0  0  0  0  0
   -1.6214   -1.7811    0.8696 C   0  0  0  0  0  0  0  0  0  0  0  0
   -1.0311   -2.4031    1.7351 O   0  0  0  0  0  0  0  0  0  0  0  0
   -1.2076   -0.5476    0.4105 N   0  0  0  0  0  0  0  0  0  0  0  0
   -1.7869   -0.1685   -0.3363 H   0  0  0  0  0  0  0  0  0  0  0  0
    0.1363    0.0561    0.4698 C   0  0  1  0  0  0  0  0  0  0  0  0
    0.6875   -0.2248   -0.4342 H   0  0  0  0  0  0  0  0  0  0  0  0
   -0.1248    1.5810    0.4661 C   0  0  0  0  0  0  0  0  0  0  0  0
   -0.8168    1.8453    1.2713 H   0  0  0  0  0  0  0  0  0  0  0  0
    0.8164    2.1100    0.6370 H   0  0  0  0  0  0  0  0  0  0  0  0
   -0.6724    2.0918   -0.8629 C   0  0  0  0  0  0  0  0  0  0  0  0
   -0.3670    1.4895   -1.9202 O   0  5  0  0  0  0  0  0  0  0  0  0
   -1.4736    3.0534   -0.7985 O   0  0  0  0  0  0  0  0  0  0  0  0
    1.0515   -0.3520    1.6595 C   0  0  0  0  0  0  0  0  0  0  0  0
    1.8218   -1.3015    1.5507 O   0  0  0  0  0  0  0  0  0  0  0  0
    1.2660    0.5186    2.7166 N   0  0  0  0  0  0  0  0  0  0  0  0
    0.6598    1.3317    2.7599 H   0  0  0  0  0  0  0  0  0  0  0  0
    2.1999    0.2653    3.8032 C   0  0  0  0  0  0  0  0  0  0  0  0
    3.2243    0.2081    3.4217 H   0  0  0  0  0  0  0  0  0  0  0  0
    2.1486    1.0740    4.5380 H   0  0  0  0  0  0  0  0  0  0  0  0
    1.9552   -0.6760    4.3058 H   0  0  0  0  0  0  0  0  0  0  0  0
  1  2  1  0  0  0  0
  2  3  1  0  0  0  0
  2  4  1  0  0  0  0
  2  5  1  0  0  0  0
  5  6  2  0  0  0  0
  5  7  1  0  0  0  0
  7  8  1  0  0  0  0
  7  9  1  0  0  0  0
  9 10  1  0  0  0  0
  9 11  1  0  0  0  0
  9 17  1  0  0  0  0
 11 12  1  0  0  0  0
 11 13  1  0  0  0  0
 11 14  1  0  0  0  0
 14 15  1  0  0  0  0
 14 16  2  0  0  0  0
 17 18  2  0  0  0  0
 17 19  1  0  0  0  0
 19 20  1  0  0  0  0
 19 21  1  0  0  0  0
 21 22  1  0  0  0  0
 21 23  1  0  0  0  0
 21 24  1  0  0  0  0
M  CHG  1  15  -1
M  END
$$$$

  -OEChem-01062216073D

 24 23  0     1  0  0  0  0  0999 V2000
   -3.1041   -3.3333    0.7696 H   0  0  0  0  0  0  0  0  0  0  0  0
   -2.9314   -2.3346    0.3591 C   0  0  0  0  0  0  0  0  0  0  0  0
   -3.7452   -1.6769    0.6745 H   0  0  0  0  0  0  0  0  0  0  0  0
   -2.9277   -2.3992   -0.7319 H   0  0  0  0  0  0  0  0  0  0  0  0
   -1.6029   -1.7857    0.8493 C   0  0  0  0  0  0  0  0  0  0  0  0
   -0.9750   -2.4233    1.6766 O   0  0  0  0  0  0  0  0  0  0  0  0
   -1.1978   -0.5513    0.3859 N   0  0  0  0  0  0  0  0  0  0  0  0
   -1.7911   -0.1611   -0.3442 H   0  0  0  0  0  0  0  0  0  0  0  0
    0.1458    0.0521    0.4399 C   0  0  1  0  0  0  0  0  0  0  0  0
    0.6934   -0.2220   -0.4686 H   0  0  0  0  0  0  0  0  0  0  0  0
   -0.1093    1.5760    0.4585 C   0  0  0  0  0  0  0  0  0  0  0  0
   -0.7964    1.8322    1.2703 H   0  0  0  0  0  0  0  0  0  0  0  0
    0.8354    2.0966    0.6368 H   0  0  0  0  0  0  0  0  0  0  0  0
   -0.6675    2.1041   -0.8594 C   0  0  0  0  0  0  0  0  0  0  0  0
   -0.3740    1.5134   -1.9266 O   0  5  0  0  0  0  0  0  0  0  0  0
   -1.4744    3.0596   -0.7749 O   0  0  0  0  0  0  0  0  0  0  0  0
    1.0590   -0.3582    1.6273 C   0  0  0  0  0  0  0  0  0  0  0  0
    1.9702   -1.1641    1.4616 O   0  0  0  0  0  0  0  0  0  0  0  0
    1.0347    0.3616    2.8110 N   0  0  0  0  0  0  0  0  0  0  0  0
    0.2734    1.0243    2.9168 H   0  0  0  0  0  0  0  0  0  0  0  0
    1.9009    0.0819    3.9457 C   0  0  0  0  0  0  0  0  0  0  0  0
    2.9521    0.1922    3.6608 H   0  0  0  0  0  0  0  0  0  0  0  0
    1.6885    0.7801    4.7604 H   0  0  0  0  0  0  0  0  0  0  0  0
    1.7362   -0.9377    4.3088 H   0  0  0  0  0  0  0  0  0  0  0  0
  1  2  1  0  0  0  0
  2  3  1  0  0  0  0
  2  4  1  0  0  0  0
  2  5  1  0  0  0  0
  5  6  2  0  0  0  0
  5  7  1  0  0  0  0
  7  8  1  0  0  0  0
  7  9  1  0  0  0  0
  9 10  1  0  0  0  0
  9 11  1  0  0  0  0
  9 17  1  0  0  0  0
 11 12  1  0  0  0  0
 11 13  1  0  0  0  0
 11 14  1  0  0  0  0
 14 15  1  0  0  0  0
 14 16  2  0  0  0  0
 17 18  2  0  0  0  0
 17 19  1  0  0  0  0
 19 20  1  0  0  0  0
 19 21  1  0  0  0  0
 21 22  1  0  0  0  0
 21 23  1  0  0  0  0
 21 24  1  0  0  0  0
M  CHG  1  15  -1
M  END
$$$$

  -OEChem-01062216073D

 24 23  0     1  0  0  0  0  0999 V2000
   -3.0880   -3.3236    0.8121 H   0  0  0  0  0  0  0  0  0  0  0  0
   -2.9233   -2.3263    0.3945 C   0  0  0  0  0  0  0  0  0  0  0  0
   -3.7184   -1.6618    0.7418 H   0  0  0  0  0  0  0  0  0  0  0  0
   -2.9634   -2.3909   -0.6958 H   0  0  0  0  0  0  0  0  0  0  0  0
   -1.5719   -1.7887    0.8311 C   0  0  0  0  0  0  0  0  0  0  0  0
   -0.9051   -2.4430    1.6143 O   0  0  0  0  0  0  0  0  0  0  0  0
   -1.1769   -0.5534    0.3611 N   0  0  0  0  0  0  0  0  0  0  0  0
   -1.7877   -0.1528   -0.3487 H   0  0  0  0  0  0  0  0  0  0  0  0
    0.1634    0.0575    0.4077 C   0  0  1  0  0  0  0  0  0  0  0  0
    0.7084   -0.2092   -0.5044 H   0  0  0  0  0  0  0  0  0  0  0  0
   -0.0946    1.5789    0.4447 C   0  0  0  0  0  0  0  0  0  0  0  0
   -0.7734    1.8262    1.2662 H   0  0  0  0  0  0  0  0  0  0  0  0
    0.8515    2.0973    0.6216 H   0  0  0  0  0  0  0  0  0  0  0  0
   -0.6676    2.1178   -0.8625 C   0  0  0  0  0  0  0  0  0  0  0  0
   -0.3831    1.5377   -1.9381 O   0  5  0  0  0  0  0  0  0  0  0  0
   -1.4870    3.0608   -0.7596 O   0  0  0  0  0  0  0  0  0  0  0  0
    1.0765   -0.3466    1.5947 C   0  0  0  0  0  0  0  0  0  0  0  0
    2.1190   -0.9655    1.4005 O   0  0  0  0  0  0  0  0  0  0  0  0
    0.8348    0.1653    2.8585 N   0  0  0  0  0  0  0  0  0  0  0  0
   -0.0687    0.6088    2.9876 H   0  0  0  0  0  0  0  0  0  0  0  0
    1.6228   -0.1882    4.0289 C   0  0  0  0  0  0  0  0  0  0  0  0
    2.6723    0.0862    3.8817 H   0  0  0  0  0  0  0  0  0  0  0  0
    1.2474    0.3436    4.9078 H   0  0  0  0  0  0  0  0  0  0  0  0
    1.5601   -1.2645    4.2193 H   0  0  0  0  0  0  0  0  0  0  0  0
  1  2  1  0  0  0  0
  2  3  1  0  0  0  0
  2  4  1  0  0  0  0
  2  5  1  0  0  0  0
  5  6  2  0  0  0  0
  5  7  1  0  0  0  0
  7  8  1  0  0  0  0
  7  9  1  0  0  0  0
  9 10  1  0  0  0  0
  9 11  1  0  0  0  0
  9 17  1  0  0  0  0
 11 12  1  0  0  0  0
 11 13  1  0  0  0  0
 11 14  1  0  0  0  0
 14 15  1  0  0  0  0
 14 16  2  0  0  0  0
 17 18  2  0  0  0  0
 17 19  1  0  0  0  0
 19 20  1  0  0  0  0
 19 21  1  0  0  0  0
 21 22  1  0  0  0  0
 21 23  1  0  0  0  0
 21 24  1  0  0  0  0
M  CHG  1  15  -1
M  END
$$$$

  -OEChem-01062216073D

 24 23  0     1  0  0  0  0  0999 V2000
   -3.0958   -3.3100    0.8122 H   0  0  0  0  0  0  0  0  0  0  0  0
   -2.9306   -2.3083    0.4056 C   0  0  0  0  0  0  0  0  0  0  0  0
   -3.7063   -1.6394    0.7870 H   0  0  0  0  0  0  0  0  0  0  0  0
   -3.0043   -2.3545   -0.6840 H   0  0  0  0  0  0  0  0  0  0  0  0
   -1.5601   -1.7938    0.8094 C   0  0  0  0  0  0  0  0  0  0  0  0
   -0.8762   -2.4668    1.5617 O   0  0  0  0  0  0  0  0  0  0  0  0
   -1.1603   -0.5606    0.3391 N   0  0  0  0  0  0  0  0  0  0  0  0
   -1.7799   -0.1441   -0.3542 H   0  0  0  0  0  0  0  0  0  0  0  0
    0.1778    0.0558    0.3927 C   0  0  1  0  0  0  0  0  0  0  0  0
    0.7289   -0.2042   -0.5179 H   0  0  0  0  0  0  0  0  0  0  0  0
   -0.0902    1.5736    0.4411 C   0  0  0  0  0  0  0  0  0  0  0  0
   -0.7700    1.8095    1.2651 H   0  0  0  0  0  0  0  0  0  0  0  0
    0.8524    2.0966    0.6237 H   0  0  0  0  0  0  0  0  0  0  0  0
   -0.6649    2.1173   -0.8636 C   0  0  0  0  0  0  0  0  0  0  0  0
   -0.3743    1.5462   -1.9426 O   0  5  0  0  0  0  0  0  0  0  0  0
   -1.5027    3.0436   -0.7546 O   0  0  0  0  0  0  0  0  0  0  0  0
    1.0867   -0.3354    1.5858 C   0  0  0  0  0  0  0  0  0  0  0  0
    2.2364   -0.7224    1.3971 O   0  0  0  0  0  0  0  0  0  0  0  0
    0.6702   -0.0794    2.8810 N   0  0  0  0  0  0  0  0  0  0  0  0
   -0.3238    0.0964    2.9832 H   0  0  0  0  0  0  0  0  0  0  0  0
    1.4285   -0.4924    4.0514 C   0  0  0  0  0  0  0  0  0  0  0  0
    2.4287   -0.0478    4.0374 H   0  0  0  0  0  0  0  0  0  0  0  0
    0.9192   -0.1650    4.9623 H   0  0  0  0  0  0  0  0  0  0  0  0
    1.5242   -1.5826    4.0771 H   0  0  0  0  0  0  0  0  0  0  0  0
  1  2  1  0  0  0  0
  2  3  1  0  0  0  0
  2  4  1  0  0  0  0
  2  5  1  0  0  0  0
  5  6  2  0  0  0  0
  5  7  1  0  0  0  0
  7  8  1  0  0  0  0
  7  9  1  0  0  0  0
  9 10  1  0  0  0  0
  9 11  1  0  0  0  0
  9 17  1  0  0  0  0
 11 12  1  0  0  0  0
 11 13  1  0  0  0  0
 11 14  1  0  0  0  0
 14 15  1  0  0  0  0
 14 16  2  0  0  0  0
 17 18  2  0  0  0  0
 17 19  1  0  0  0  0
 19 20  1  0  0  0  0
 19 21  1  0  0  0  0
 21 22  1  0  0  0  0
 21 23  1  0  0  0  0
 21 24  1  0  0  0  0
M  CHG  1  15  -1
M  END
$$$$

  -OEChem-01062216073D

 24 23  0     1  0  0  0  0  0999 V2000
   -3.1591   -3.2879    0.7500 H   0  0  0  0  0  0  0  0  0  0  0  0
   -2.9746   -2.2834    0.3594 C   0  0  0  0  0  0  0  0  0  0  0  0
   -3.7435   -1.6077    0.7423 H   0  0  0  0  0  0  0  0  0  0  0  0
   -3.0384   -2.3137   -0.7315 H   0  0  0  0  0  0  0  0  0  0  0  0
   -1.6004   -1.7963    0.7830 C   0  0  0  0  0  0  0  0  0  0  0  0
   -0.9342   -2.4884    1.5340 O   0  0  0  0  0  0  0  0  0  0  0  0
   -1.1718   -0.5680    0.3273 N   0  0  0  0  0  0  0  0  0  0  0  0
   -1.7834   -0.1288   -0.3594 H   0  0  0  0  0  0  0  0  0  0  0  0
    0.1709    0.0398    0.4028 C   0  0  1  0  0  0  0  0  0  0  0  0
    0.7293   -0.2194   -0.5036 H   0  0  0  0  0  0  0  0  0  0  0  0
   -0.0958    1.5572    0.4532 C   0  0  0  0  0  0  0  0  0  0  0  0
   -0.7844    1.7904    1.2706 H   0  0  0  0  0  0  0  0  0  0  0  0
    0.8447    2.0789    0.6494 H   0  0  0  0  0  0  0  0  0  0  0  0
   -0.6510    2.1051   -0.8585 C   0  0  0  0  0  0  0  0  0  0  0  0
   -0.3448    1.5363   -1.9345 O   0  5  0  0  0  0  0  0  0  0  0  0
   -1.4977    3.0246   -0.7597 O   0  0  0  0  0  0  0  0  0  0  0  0
    1.0818   -0.3419    1.5990 C   0  0  0  0  0  0  0  0  0  0  0  0
    2.2944   -0.4546    1.4422 O   0  0  0  0  0  0  0  0  0  0  0  0
    0.5710   -0.3782    2.8848 N   0  0  0  0  0  0  0  0  0  0  0  0
   -0.4312   -0.5408    2.9193 H   0  0  0  0  0  0  0  0  0  0  0  0
    1.3665   -0.7899    4.0311 C   0  0  0  0  0  0  0  0  0  0  0  0
    2.2394   -0.1390    4.1460 H   0  0  0  0  0  0  0  0  0  0  0  0
    0.7674   -0.7262    4.9441 H   0  0  0  0  0  0  0  0  0  0  0  0
    1.7073   -1.8229    3.9079 H   0  0  0  0  0  0  0  0  0  0  0  0
  1  2  1  0  0  0  0
  2  3  1  0  0  0  0
  2  4  1  0  0  0  0
  2  5  1  0  0  0  0
  5  6  2  0  0  0  0
  5  7  1  0  0  0  0
  7  8  1  0  0  0  0
  7  9  1  0  0  0  0
  9 10  1  0  0  0  0
  9 11  1  0  0  0  0
  9 17  1  0  0  0  0
 11 12  1  0  0  0  0
 11 13  1  0  0  0  0
 11 14  1  0  0  0  0
 14 15  1  0  0  0  0
 14 16  2  0  0  0  0
 17 18  2  0  0  0  0
 17 19  1  0  0  0  0
 19 20  1  0  0  0  0
 19 21  1  0  0  0  0
 21 22  1  0  0  0  0
 21 23  1  0  0  0  0
 21 24  1  0  0  0  0
M  CHG  1  15  -1
M  END
$$$$

  -OEChem-01062216073D

 24 23  0     1  0  0  0  0  0999 V2000
   -3.2540   -3.2486    0.6611 H   0  0  0  0  0  0  0  0  0  0  0  0
   -3.0373   -2.2395    0.2997 C   0  0  0  0  0  0  0  0  0  0  0  0
   -3.7839   -1.5512    0.7040 H   0  0  0  0  0  0  0  0  0  0  0  0
   -3.1038   -2.2353   -0.7914 H   0  0  0  0  0  0  0  0  0  0  0  0
   -1.6476   -1.8094    0.7348 C   0  0  0  0  0  0  0  0  0  0  0  0
   -1.0031   -2.5467    1.4618 O   0  0  0  0  0  0  0  0  0  0  0  0
   -1.1790   -0.5856    0.3084 N   0  0  0  0  0  0  0  0  0  0  0  0
   -1.7843   -0.1091   -0.3591 H   0  0  0  0  0  0  0  0  0  0  0  0
    0.1665    0.0160    0.4166 C   0  0  1  0  0  0  0  0  0  0  0  0
    0.7364   -0.2356   -0.4844 H   0  0  0  0  0  0  0  0  0  0  0  0
   -0.1134    1.5316    0.4704 C   0  0  0  0  0  0  0  0  0  0  0  0
   -0.8185    1.7540    1.2769 H   0  0  0  0  0  0  0  0  0  0  0  0
    0.8179    2.0615    0.6876 H   0  0  0  0  0  0  0  0  0  0  0  0
   -0.6446    2.0839   -0.8497 C   0  0  0  0  0  0  0  0  0  0  0  0
   -0.3108    1.5246   -1.9228 O   0  5  0  0  0  0  0  0  0  0  0  0
   -1.5081    2.9889   -0.7627 O   0  0  0  0  0  0  0  0  0  0  0  0
    1.0817   -0.3554    1.6163 C   0  0  0  0  0  0  0  0  0  0  0  0
    2.2967   -0.2024    1.5248 O   0  0  0  0  0  0  0  0  0  0  0  0
    0.5578   -0.6991    2.8495 N   0  0  0  0  0  0  0  0  0  0  0  0
   -0.3616   -1.1334    2.7775 H   0  0  0  0  0  0  0  0  0  0  0  0
    1.3962   -1.0921    3.9721 C   0  0  0  0  0  0  0  0  0  0  0  0
    2.0875   -0.2854    4.2367 H   0  0  0  0  0  0  0  0  0  0  0  0
    0.7739   -1.3113    4.8446 H   0  0  0  0  0  0  0  0  0  0  0  0
    1.9739   -1.9875    3.7215 H   0  0  0  0  0  0  0  0  0  0  0  0
  1  2  1  0  0  0  0
  2  3  1  0  0  0  0
  2  4  1  0  0  0  0
  2  5  1  0  0  0  0
  5  6  2  0  0  0  0
  5  7  1  0  0  0  0
  7  8  1  0  0  0  0
  7  9  1  0  0  0  0
  9 10  1  0  0  0  0
  9 11  1  0  0  0  0
  9 17  1  0  0  0  0
 11 12  1  0  0  0  0
 11 13  1  0  0  0  0
 11 14  1  0  0  0  0
 14 15  1  0  0  0  0
 14 16  2  0  0  0  0
 17 18  2  0  0  0  0
 17 19  1  0  0  0  0
 19 20  1  0  0  0  0
 19 21  1  0  0  0  0
 21 22  1  0  0  0  0
 21 23  1  0  0  0  0
 21 24  1  0  0  0  0
M  CHG  1  15  -1
M  END
$$$$

  -OEChem-01062216073D

 24 23  0     1  0  0  0  0  0999 V2000
   -3.3380   -3.1996    0.6060 H   0  0  0  0  0  0  0  0  0  0  0  0
   -3.0897   -2.1885    0.2712 C   0  0  0  0  0  0  0  0  0  0  0  0
   -3.7897   -1.4836    0.7269 H   0  0  0  0  0  0  0  0  0  0  0  0
   -3.1954   -2.1418   -0.8158 H   0  0  0  0  0  0  0  0  0  0  0  0
   -1.6675   -1.8335    0.6680 C   0  0  0  0  0  0  0  0  0  0  0  0
   -1.0162   -2.6449    1.3051 O   0  0  0  0  0  0  0  0  0  0  0  0
   -1.1704   -0.6086    0.2782 N   0  0  0  0  0  0  0  0  0  0  0  0
   -1.7875   -0.0822   -0.3389 H   0  0  0  0  0  0  0  0  0  0  0  0
    0.1707   -0.0010    0.4253 C   0  0  1  0  0  0  0  0  0  0  0  0
    0.7583   -0.2384   -0.4682 H   0  0  0  0  0  0  0  0  0  0  0  0
   -0.1391    1.5108    0.4793 C   0  0  0  0  0  0  0  0  0  0  0  0
   -0.8686    1.7155    1.2685 H   0  0  0  0  0  0  0  0  0  0  0  0
    0.7744    2.0596    0.7230 H   0  0  0  0  0  0  0  0  0  0  0  0
   -0.6451    2.0635   -0.8507 C   0  0  0  0  0  0  0  0  0  0  0  0
   -0.2733    1.5193   -1.9188 O   0  5  0  0  0  0  0  0  0  0  0  0
   -1.5398    2.9388   -0.7778 O   0  0  0  0  0  0  0  0  0  0  0  0
    1.0860   -0.3608    1.6332 C   0  0  0  0  0  0  0  0  0  0  0  0
    2.2565    0.0108    1.6346 O   0  0  0  0  0  0  0  0  0  0  0  0
    0.6202   -1.0003    2.7673 N   0  0  0  0  0  0  0  0  0  0  0  0
   -0.2209   -1.5549    2.6018 H   0  0  0  0  0  0  0  0  0  0  0  0
    1.4903   -1.4082    3.8604 C   0  0  0  0  0  0  0  0  0  0  0  0
    2.0045   -0.5406    4.2862 H   0  0  0  0  0  0  0  0  0  0  0  0
    0.8996   -1.8800    4.6509 H   0  0  0  0  0  0  0  0  0  0  0  0
    2.2372   -2.1263    3.5072 H   0  0  0  0  0  0  0  0  0  0  0  0
  1  2  1  0  0  0  0
  2  3  1  0  0  0  0
  2  4  1  0  0  0  0
  2  5  1  0  0  0  0
  5  6  2  0  0  0  0
  5  7  1  0  0  0  0
  7  8  1  0  0  0  0
  7  9  1  0  0  0  0
  9 10  1  0  0  0  0
  9 11  1  0  0  0  0
  9 17  1  0  0  0  0
 11 12  1  0  0  0  0
 11 13  1  0  0  0  0
 11 14  1  0  0  0  0
 14 15  1  0  0  0  0
 14 16  2  0  0  0  0
 17 18  2  0  0  0  0
 17 19  1  0  0  0  0
 19 20  1  0  0  0  0
 19 21  1  0  0  0  0
 21 22  1  0  0  0  0
 21 23  1  0  0  0  0
 21 24  1  0  0  0  0
M  CHG  1  15  -1
M  END
$$$$

  -OEChem-01062216073D

 24 23  0     1  0  0  0  0  0999 V2000
   -3.4032   -3.1511    0.5828 H   0  0  0  0  0  0  0  0  0  0  0  0
   -3.1286   -2.1422    0.2628 C   0  0  0  0  0  0  0  0  0  0  0  0
   -3.7848   -1.4236    0.7605 H   0  0  0  0  0  0  0  0  0  0  0  0
   -3.2714   -2.0643   -0.8181 H   0  0  0  0  0  0  0  0  0  0  0  0
   -1.6803   -1.8508    0.6142 C   0  0  0  0  0  0  0  0  0  0  0  0
   -1.0223   -2.7274    1.1503 O   0  0  0  0  0  0  0  0  0  0  0  0
   -1.1626   -0.6240    0.2571 N   0  0  0  0  0  0  0  0  0  0  0  0
   -1.7926   -0.0567   -0.3085 H   0  0  0  0  0  0  0  0  0  0  0  0
    0.1757   -0.0136    0.4304 C   0  0  1  0  0  0  0  0  0  0  0  0
    0.7735   -0.2396   -0.4590 H   0  0  0  0  0  0  0  0  0  0  0  0
   -0.1572    1.4955    0.4840 C   0  0  0  0  0  0  0  0  0  0  0  0
   -0.9015    1.6876    1.2625 H   0  0  0  0  0  0  0  0  0  0  0  0
    0.7421    2.0608    0.7418 H   0  0  0  0  0  0  0  0  0  0  0  0
   -0.6473    2.0474   -0.8524 C   0  0  0  0  0  0  0  0  0  0  0  0
   -0.2492    1.5146   -1.9166 O   0  5  0  0  0  0  0  0  0  0  0  0
   -1.5634    2.9012   -0.7893 O   0  0  0  0  0  0  0  0  0  0  0  0
    1.0924   -0.3751    1.6416 C   0  0  0  0  0  0  0  0  0  0  0  0
    2.1854    0.1732    1.7566 O   0  0  0  0  0  0  0  0  0  0  0  0
    0.7442   -1.2719    2.6340 N   0  0  0  0  0  0  0  0  0  0  0  0
   -0.0314   -1.8903    2.3917 H   0  0  0  0  0  0  0  0  0  0  0  0
    1.6470   -1.6922    3.6953 C   0  0  0  0  0  0  0  0  0  0  0  0
    1.9688   -0.8302    4.2884 H   0  0  0  0  0  0  0  0  0  0  0  0
    1.1389   -2.3971    4.3599 H   0  0  0  0  0  0  0  0  0  0  0  0
    2.5294   -2.1843    3.2743 H   0  0  0  0  0  0  0  0  0  0  0  0
  1  2  1  0  0  0  0
  2  3  1  0  0  0  0
  2  4  1  0  0  0  0
  2  5  1  0  0  0  0
  5  6  2  0  0  0  0
  5  7  1  0  0  0  0
  7  8  1  0  0  0  0
  7  9  1  0  0  0  0
  9 10  1  0  0  0  0
  9 11  1  0  0  0  0
  9 17  1  0  0  0  0
 11 12  1  0  0  0  0
 11 13  1  0  0  0  0
 11 14  1  0  0  0  0
 14 15  1  0  0  0  0
 14 16  2  0  0  0  0
 17 18  2  0  0  0  0
 17 19  1  0  0  0  0
 19 20  1  0  0  0  0
 19 21  1  0  0  0  0
 21 22  1  0  0  0  0
 21 23  1  0  0  0  0
 21 24  1  0  0  0  0
M  CHG  1  15  -1
M  END
$$$$

  -OEChem-01062216073D

 24 23  0     1  0  0  0  0  0999 V2000
   -3.2832   -3.1990    0.8586 H   0  0  0  0  0  0  0  0  0  0  0  0
   -3.0135   -2.2081    0.4827 C   0  0  0  0  0  0  0  0  0  0  0  0
   -3.6897   -1.4694    0.9201 H   0  0  0  0  0  0  0  0  0  0  0  0
   -3.1317   -2.1993   -0.6040 H   0  0  0  0  0  0  0  0  0  0  0  0
   -1.5780   -1.8744    0.8501 C   0  0  0  0  0  0  0  0  0  0  0  0
   -0.9312   -2.7148    1.4456 O   0  0  0  0  0  0  0  0  0  0  0  0
   -1.0680   -0.6805    0.3875 N   0  0  0  0  0  0  0  0  0  0  0  0
   -1.6983   -0.1938   -0.2466 H   0  0  0  0  0  0  0  0  0  0  0  0
    0.1950    0.0564    0.6209 C   0  0  1  0  0  0  0  0  0  0  0  0
    0.9144   -0.2771   -0.1336 H   0  0  0  0  0  0  0  0  0  0  0  0
   -0.2349    1.5163    0.3227 C   0  0  0  0  0  0  0  0  0  0  0  0
   -1.0962    1.7865    0.9408 H   0  0  0  0  0  0  0  0  0  0  0  0
    0.5770    2.2030    0.5723 H   0  0  0  0  0  0  0  0  0  0  0  0
   -0.5481    1.7656   -1.1507 C   0  0  0  0  0  0  0  0  0  0  0  0
    0.0394    1.0831   -2.0248 O   0  5  0  0  0  0  0  0  0  0  0  0
   -1.5111    2.5343   -1.3831 O   0  0  0  0  0  0  0  0  0  0  0  0
    0.9883   -0.0308    1.9717 C   0  0  0  0  0  0  0  0  0  0  0  0
    1.6442    0.9161    2.3902 O   0  0  0  0  0  0  0  0  0  0  0  0
    0.8596   -0.9413    2.9905 N   0  0  0  0  0  0  0  0  0  0  0  0
    1.1080   -0.4824    3.8601 H   0  0  0  0  0  0  0  0  0  0  0  0
    1.5367   -2.2200    2.8203 C   0  0  0  0  0  0  0  0  0  0  0  0
    2.5469   -2.1660    3.2375 H   0  0  0  0  0  0  0  0  0  0  0  0
    0.9852   -3.0091    3.3405 H   0  0  0  0  0  0  0  0  0  0  0  0
    1.6193   -2.4928    1.7627 H   0  0  0  0  0  0  0  0  0  0  0  0
  1  2  1  0  0  0  0
  2  3  1  0  0  0  0
  2  4  1  0  0  0  0
  2  5  1  0  0  0  0
  5  6  2  0  0  0  0
  5  7  1  0  0  0  0
  7  8  1  0  0  0  0
  7  9  1  0  0  0  0
  9 10  1  0  0  0  0
  9 11  1  0  0  0  0
  9 17  1  0  0  0  0
 11 12  1  0  0  0  0
 11 13  1  0  0  0  0
 11 14  1  0  0  0  0
 14 15  1  0  0  0  0
 14 16  2  0  0  0  0
 17 18  2  0  0  0  0
 17 19  1  0  0  0  0
 19 20  1  0  0  0  0
 19 21  1  0  0  0  0
 21 22  1  0  0  0  0
 21 23  1  0  0  0  0
 21 24  1  0  0  0  0
M  CHG  1  15  -1
M  END
$$$$

  -OEChem-01062216073D

 24 23  0     1  0  0  0  0  0999 V2000
   -3.0293   -3.2686    1.3115 H   0  0  0  0  0  0  0  0  0  0  0  0
   -2.8781   -2.2425    0.9652 C   0  0  0  0  0  0  0  0  0  0  0  0
   -3.2687   -1.5550    1.7195 H   0  0  0  0  0  0  0  0  0  0  0  0
   -3.4303   -2.0990    0.0329 H   0  0  0  0  0  0  0  0  0  0  0  0
   -1.4011   -1.9747    0.7369 C   0  0  0  0  0  0  0  0  0  0  0  0
   -0.6243   -2.9110    0.8040 O   0  0  0  0  0  0  0  0  0  0  0  0
   -1.0310   -0.7169    0.3147 N   0  0  0  0  0  0  0  0  0  0  0  0
   -1.8132   -0.1088    0.0804 H   0  0  0  0  0  0  0  0  0  0  0  0
    0.2889   -0.0619    0.1875 C   0  0  1  0  0  0  0  0  0  0  0  0
    0.6528   -0.2304   -0.8313 H   0  0  0  0  0  0  0  0  0  0  0  0
   -0.0851    1.4281    0.3874 C   0  0  0  0  0  0  0  0  0  0  0  0
   -0.6231    1.5549    1.3317 H   0  0  0  0  0  0  0  0  0  0  0  0
    0.8235    2.0323    0.4457 H   0  0  0  0  0  0  0  0  0  0  0  0
   -0.9054    2.0120   -0.7600 C   0  0  0  0  0  0  0  0  0  0  0  0
   -0.7615    1.5497   -1.9170 O   0  5  0  0  0  0  0  0  0  0  0  0
   -1.8100    2.8139   -0.4255 O   0  0  0  0  0  0  0  0  0  0  0  0
    1.5031   -0.4007    1.1181 C   0  0  0  0  0  0  0  0  0  0  0  0
    2.5262    0.2703    1.0506 O   0  0  0  0  0  0  0  0  0  0  0  0
    1.8160   -1.5788    1.7503 N   0  0  0  0  0  0  0  0  0  0  0  0
    2.8236   -1.6413    1.8473 H   0  0  0  0  0  0  0  0  0  0  0  0
    1.0890   -1.9283    2.9627 C   0  0  0  0  0  0  0  0  0  0  0  0
    1.6643   -1.6230    3.8418 H   0  0  0  0  0  0  0  0  0  0  0  0
    0.1153   -1.4304    3.0060 H   0  0  0  0  0  0  0  0  0  0  0  0
    0.9302   -3.0099    3.0079 H   0  0  0  0  0  0  0  0  0  0  0  0
  1  2  1  0  0  0  0
  2  3  1  0  0  0  0
  2  4  1  0  0  0  0
  2  5  1  0  0  0  0
  5  6  2  0  0  0  0
  5  7  1  0  0  0  0
  7  8  1  0  0  0  0
  7  9  1  0  0  0  0
  9 10  1  0  0  0  0
  9 11  1  0  0  0  0
  9 17  1  0  0  0  0
 11 12  1  0  0  0  0
 11 13  1  0  0  0  0
 11 14  1  0  0  0  0
 14 15  1  0  0  0  0
 14 16  2  0  0  0  0
 17 18  2  0  0  0  0
 17 19  1  0  0  0  0
 19 20  1  0  0  0  0
 19 21  1  0  0  0  0
 21 22  1  0  0  0  0
 21 23  1  0  0  0  0
 21 24  1  0  0  0  0
M  CHG  1  15  -1
M  END
$$$$

  -OEChem-01062216073D

 24 23  0     1  0  0  0  0  0999 V2000
   -3.3617   -3.1294    0.7236 H   0  0  0  0  0  0  0  0  0  0  0  0
   -3.1022   -2.1143    0.4103 C   0  0  0  0  0  0  0  0  0  0  0  0
   -3.6865   -1.4036    1.0004 H   0  0  0  0  0  0  0  0  0  0  0  0
   -3.3577   -1.9942   -0.6457 H   0  0  0  0  0  0  0  0  0  0  0  0
   -1.6191   -1.8599    0.6147 C   0  0  0  0  0  0  0  0  0  0  0  0
   -0.9178   -2.7857    0.9880 O   0  0  0  0  0  0  0  0  0  0  0  0
   -1.1304   -0.6128    0.2871 N   0  0  0  0  0  0  0  0  0  0  0  0
   -1.8192   -0.0040   -0.1520 H   0  0  0  0  0  0  0  0  0  0  0  0
    0.2102    0.0080    0.3957 C   0  0  1  0  0  0  0  0  0  0  0  0
    0.7550   -0.2041   -0.5298 H   0  0  0  0  0  0  0  0  0  0  0  0
   -0.1300    1.5180    0.4594 C   0  0  0  0  0  0  0  0  0  0  0  0
   -0.8341    1.7108    1.2744 H   0  0  0  0  0  0  0  0  0  0  0  0
    0.7767    2.0929    0.6630 H   0  0  0  0  0  0  0  0  0  0  0  0
   -0.6849    2.0617   -0.8552 C   0  0  0  0  0  0  0  0  0  0  0  0
   -0.3310    1.5258   -1.9338 O   0  5  0  0  0  0  0  0  0  0  0  0
   -1.6074    2.9048   -0.7551 O   0  0  0  0  0  0  0  0  0  0  0  0
    1.1982   -0.4191    1.5326 C   0  0  0  0  0  0  0  0  0  0  0  0
    1.8607    0.4121    2.1488 O   0  0  0  0  0  0  0  0  0  0  0  0
    1.4249   -1.7391    1.8708 N   0  0  0  0  0  0  0  0  0  0  0  0
    0.7608   -2.4089    1.4762 H   0  0  0  0  0  0  0  0  0  0  0  0
    2.2681   -2.1691    2.9764 C   0  0  0  0  0  0  0  0  0  0  0  0
    1.8948   -1.7647    3.9226 H   0  0  0  0  0  0  0  0  0  0  0  0
    2.2696   -3.2611    3.0416 H   0  0  0  0  0  0  0  0  0  0  0  0
    3.2981   -1.8303    2.8261 H   0  0  0  0  0  0  0  0  0  0  0  0
  1  2  1  0  0  0  0
  2  3  1  0  0  0  0
  2  4  1  0  0  0  0
  2  5  1  0  0  0  0
  5  6  2  0  0  0  0
  5  7  1  0  0  0  0
  7  8  1  0  0  0  0
  7  9  1  0  0  0  0
  9 10  1  0  0  0  0
  9 11  1  0  0  0  0
  9 17  1  0  0  0  0
 11 12  1  0  0  0  0
 11 13  1  0  0  0  0
 11 14  1  0  0  0  0
 14 15  1  0  0  0  0
 14 16  2  0  0  0  0
 17 18  2  0  0  0  0
 17 19  1  0  0  0  0
 19 20  1  0  0  0  0
 19 21  1  0  0  0  0
 21 22  1  0  0  0  0
 21 23  1  0  0  0  0
 21 24  1  0  0  0  0
M  CHG  1  15  -1
M  END
$$$$

  -OEChem-01062216073D

 24 23  0     1  0  0  0  0  0999 V2000
   -3.2403   -3.1802    0.8300 H   0  0  0  0  0  0  0  0  0  0  0  0
   -3.0276   -2.1625    0.4912 C   0  0  0  0  0  0  0  0  0  0  0  0
   -3.6186   -1.4626    1.0873 H   0  0  0  0  0  0  0  0  0  0  0  0
   -3.3200   -2.0708   -0.5580 H   0  0  0  0  0  0  0  0  0  0  0  0
   -1.5491   -1.8528    0.6444 C   0  0  0  0  0  0  0  0  0  0  0  0
   -0.7983   -2.7478    0.9981 O   0  0  0  0  0  0  0  0  0  0  0  0
   -1.1095   -0.5947    0.2913 N   0  0  0  0  0  0  0  0  0  0  0  0
   -1.8214   -0.0017   -0.1317 H   0  0  0  0  0  0  0  0  0  0  0  0
    0.2227    0.0415    0.3781 C   0  0  1  0  0  0  0  0  0  0  0  0
    0.7645   -0.1735   -0.5485 H   0  0  0  0  0  0  0  0  0  0  0  0
   -0.1091    1.5519    0.4370 C   0  0  0  0  0  0  0  0  0  0  0  0
   -0.8032    1.7523    1.2584 H   0  0  0  0  0  0  0  0  0  0  0  0
    0.8054    2.1185    0.6297 H   0  0  0  0  0  0  0  0  0  0  0  0
   -0.6788    2.0907   -0.8732 C   0  0  0  0  0  0  0  0  0  0  0  0
   -0.3407    1.5456   -1.9524 O   0  5  0  0  0  0  0  0  0  0  0  0
   -1.5848    2.9512   -0.7698 O   0  0  0  0  0  0  0  0  0  0  0  0
    1.1997   -0.3919    1.5178 C   0  0  0  0  0  0  0  0  0  0  0  0
    1.6741    0.4208    2.3082 O   0  0  0  0  0  0  0  0  0  0  0  0
    1.6328   -1.6993    1.6333 N   0  0  0  0  0  0  0  0  0  0  0  0
    1.0147   -2.3768    1.1799 H   0  0  0  0  0  0  0  0  0  0  0  0
    2.4627   -2.1722    2.7316 C   0  0  0  0  0  0  0  0  0  0  0  0
    1.9518   -2.0245    3.6885 H   0  0  0  0  0  0  0  0  0  0  0  0
    2.6714   -3.2390    2.6087 H   0  0  0  0  0  0  0  0  0  0  0  0
    3.4162   -1.6347    2.7507 H   0  0  0  0  0  0  0  0  0  0  0  0
  1  2  1  0  0  0  0
  2  3  1  0  0  0  0
  2  4  1  0  0  0  0
  2  5  1  0  0  0  0
  5  6  2  0  0  0  0
  5  7  1  0  0  0  0
  7  8  1  0  0  0  0
  7  9  1  0  0  0  0
  9 10  1  0  0  0  0
  9 11  1  0  0  0  0
  9 17  1  0  0  0  0
 11 12  1  0  0  0  0
 11 13  1  0  0  0  0
 11 14  1  0  0  0  0
 14 15  1  0  0  0  0
 14 16  2  0  0  0  0
 17 18  2  0  0  0  0
 17 19  1  0  0  0  0
 19 20  1  0  0  0  0
 19 21  1  0  0  0  0
 21 22  1  0  0  0  0
 21 23  1  0  0  0  0
 21 24  1  0  0  0  0
M  CHG  1  15  -1
M  END
$$$$

  -OEChem-01062216073D

 24 23  0     1  0  0  0  0  0999 V2000
   -3.1052   -3.2342    0.9260 H   0  0  0  0  0  0  0  0  0  0  0  0
   -2.9461   -2.2147    0.5639 C   0  0  0  0  0  0  0  0  0  0  0  0
   -3.5422   -1.5287    1.1709 H   0  0  0  0  0  0  0  0  0  0  0  0
   -3.2796   -2.1524   -0.4751 H   0  0  0  0  0  0  0  0  0  0  0  0
   -1.4769   -1.8440    0.6573 C   0  0  0  0  0  0  0  0  0  0  0  0
   -0.6692   -2.7037    0.9742 O   0  0  0  0  0  0  0  0  0  0  0  0
   -1.0936   -0.5754    0.2789 N   0  0  0  0  0  0  0  0  0  0  0  0
   -1.8324    0.0081   -0.1082 H   0  0  0  0  0  0  0  0  0  0  0  0
    0.2279    0.0759    0.3610 C   0  0  1  0  0  0  0  0  0  0  0  0
    0.7795   -0.1397   -0.5598 H   0  0  0  0  0  0  0  0  0  0  0  0
   -0.0939    1.5865    0.4173 C   0  0  0  0  0  0  0  0  0  0  0  0
   -0.7887    1.7912    1.2373 H   0  0  0  0  0  0  0  0  0  0  0  0
    0.8260    2.1432    0.6143 H   0  0  0  0  0  0  0  0  0  0  0  0
   -0.6629    2.1253   -0.8931 C   0  0  0  0  0  0  0  0  0  0  0  0
   -0.3300    1.5750   -1.9715 O   0  5  0  0  0  0  0  0  0  0  0  0
   -1.5526    3.0030   -0.7926 O   0  0  0  0  0  0  0  0  0  0  0  0
    1.1721   -0.3650    1.5197 C   0  0  0  0  0  0  0  0  0  0  0  0
    1.4427    0.3792    2.4597 O   0  0  0  0  0  0  0  0  0  0  0  0
    1.8221   -1.5836    1.4535 N   0  0  0  0  0  0  0  0  0  0  0  0
    1.3028   -2.2741    0.9079 H   0  0  0  0  0  0  0  0  0  0  0  0
    2.6587   -2.0847    2.5339 C   0  0  0  0  0  0  0  0  0  0  0  0
    2.0738   -2.1914    3.4530 H   0  0  0  0  0  0  0  0  0  0  0  0
    3.0685   -3.0627    2.2654 H   0  0  0  0  0  0  0  0  0  0  0  0
    3.4932   -1.4015    2.7211 H   0  0  0  0  0  0  0  0  0  0  0  0
  1  2  1  0  0  0  0
  2  3  1  0  0  0  0
  2  4  1  0  0  0  0
  2  5  1  0  0  0  0
  5  6  2  0  0  0  0
  5  7  1  0  0  0  0
  7  8  1  0  0  0  0
  7  9  1  0  0  0  0
  9 10  1  0  0  0  0
  9 11  1  0  0  0  0
  9 17  1  0  0  0  0
 11 12  1  0  0  0  0
 11 13  1  0  0  0  0
 11 14  1  0  0  0  0
 14 15  1  0  0  0  0
 14 16  2  0  0  0  0
 17 18  2  0  0  0  0
 17 19  1  0  0  0  0
 19 20  1  0  0  0  0
 19 21  1  0  0  0  0
 21 22  1  0  0  0  0
 21 23  1  0  0  0  0
 21 24  1  0  0  0  0
M  CHG  1  15  -1
M  END
$$$$

  -OEChem-01062216073D

 24 23  0     1  0  0  0  0  0999 V2000
   -2.9904   -3.2769    0.9953 H   0  0  0  0  0  0  0  0  0  0  0  0
   -2.8790   -2.2531    0.6279 C   0  0  0  0  0  0  0  0  0  0  0  0
   -3.4744   -1.5866    1.2571 H   0  0  0  0  0  0  0  0  0  0  0  0
   -3.2529   -2.2029   -0.3979 H   0  0  0  0  0  0  0  0  0  0  0  0
   -1.4196   -1.8354    0.6675 C   0  0  0  0  0  0  0  0  0  0  0  0
   -0.5701   -2.6635    0.9609 O   0  0  0  0  0  0  0  0  0  0  0  0
   -1.0835   -0.5614    0.2636 N   0  0  0  0  0  0  0  0  0  0  0  0
   -1.8442    0.0135   -0.0914 H   0  0  0  0  0  0  0  0  0  0  0  0
    0.2288    0.1023    0.3403 C   0  0  1  0  0  0  0  0  0  0  0  0
    0.7868   -0.1140   -0.5765 H   0  0  0  0  0  0  0  0  0  0  0  0
   -0.0846    1.6129    0.3979 C   0  0  0  0  0  0  0  0  0  0  0  0
   -0.7789    1.8191    1.2180 H   0  0  0  0  0  0  0  0  0  0  0  0
    0.8392    2.1620    0.5983 H   0  0  0  0  0  0  0  0  0  0  0  0
   -0.6557    2.1551   -0.9100 C   0  0  0  0  0  0  0  0  0  0  0  0
   -0.3290    1.6024   -1.9893 O   0  5  0  0  0  0  0  0  0  0  0  0
   -1.5278    3.0504   -0.8092 O   0  0  0  0  0  0  0  0  0  0  0  0
    1.1471   -0.3385    1.5150 C   0  0  0  0  0  0  0  0  0  0  0  0
    1.1952    0.2840    2.5739 O   0  0  0  0  0  0  0  0  0  0  0  0
    2.0218   -1.3937    1.3286 N   0  0  0  0  0  0  0  0  0  0  0  0
    1.7032   -2.0529    0.6210 H   0  0  0  0  0  0  0  0  0  0  0  0
    2.8444   -1.9206    2.4071 C   0  0  0  0  0  0  0  0  0  0  0  0
    2.2135   -2.3115    3.2117 H   0  0  0  0  0  0  0  0  0  0  0  0
    3.4765   -2.7314    2.0337 H   0  0  0  0  0  0  0  0  0  0  0  0
    3.4935   -1.1381    2.8132 H   0  0  0  0  0  0  0  0  0  0  0  0
  1  2  1  0  0  0  0
  2  3  1  0  0  0  0
  2  4  1  0  0  0  0
  2  5  1  0  0  0  0
  5  6  2  0  0  0  0
  5  7  1  0  0  0  0
  7  8  1  0  0  0  0
  7  9  1  0  0  0  0
  9 10  1  0  0  0  0
  9 11  1  0  0  0  0
  9 17  1  0  0  0  0
 11 12  1  0  0  0  0
 11 13  1  0  0  0  0
 11 14  1  0  0  0  0
 14 15  1  0  0  0  0
 14 16  2  0  0  0  0
 17 18  2  0  0  0  0
 17 19  1  0  0  0  0
 19 20  1  0  0  0  0
 19 21  1  0  0  0  0
 21 22  1  0  0  0  0
 21 23  1  0  0  0  0
 21 24  1  0  0  0  0
M  CHG  1  15  -1
M  END
$$$$

  -OEChem-01062216073D

 24 23  0     1  0  0  0  0  0999 V2000
   -2.9311   -3.2996    1.0457 H   0  0  0  0  0  0  0  0  0  0  0  0
   -2.8445   -2.2771    0.6679 C   0  0  0  0  0  0  0  0  0  0  0  0
   -3.4348   -1.6149    1.3062 H   0  0  0  0  0  0  0  0  0  0  0  0
   -3.2426   -2.2405   -0.3493 H   0  0  0  0  0  0  0  0  0  0  0  0
   -1.3916   -1.8362    0.6701 C   0  0  0  0  0  0  0  0  0  0  0  0
   -0.5217   -2.6477    0.9506 O   0  0  0  0  0  0  0  0  0  0  0  0
   -1.0838   -0.5602    0.2495 N   0  0  0  0  0  0  0  0  0  0  0  0
   -1.8596    0.0110   -0.0757 H   0  0  0  0  0  0  0  0  0  0  0  0
    0.2213    0.1142    0.3272 C   0  0  1  0  0  0  0  0  0  0  0  0
    0.7831   -0.1038   -0.5867 H   0  0  0  0  0  0  0  0  0  0  0  0
   -0.0842    1.6251    0.3859 C   0  0  0  0  0  0  0  0  0  0  0  0
   -0.7799    1.8328    1.2045 H   0  0  0  0  0  0  0  0  0  0  0  0
    0.8421    2.1677    0.5909 H   0  0  0  0  0  0  0  0  0  0  0  0
   -0.6515    2.1727   -0.9213 C   0  0  0  0  0  0  0  0  0  0  0  0
   -0.3265    1.6196   -2.0010 O   0  5  0  0  0  0  0  0  0  0  0  0
   -1.5055    3.0852   -0.8221 O   0  0  0  0  0  0  0  0  0  0  0  0
    1.1252   -0.3164    1.5137 C   0  0  0  0  0  0  0  0  0  0  0  0
    0.9588    0.1291    2.6472 O   0  0  0  0  0  0  0  0  0  0  0  0
    2.2103   -1.1409    1.2739 N   0  0  0  0  0  0  0  0  0  0  0  0
    2.1567   -1.6631    0.4044 H   0  0  0  0  0  0  0  0  0  0  0  0
    3.0291   -1.6858    2.3463 C   0  0  0  0  0  0  0  0  0  0  0  0
    2.4221   -2.3092    3.0107 H   0  0  0  0  0  0  0  0  0  0  0  0
    3.8321   -2.3002    1.9289 H   0  0  0  0  0  0  0  0  0  0  0  0
    3.4820   -0.8790    2.9316 H   0  0  0  0  0  0  0  0  0  0  0  0
  1  2  1  0  0  0  0
  2  3  1  0  0  0  0
  2  4  1  0  0  0  0
  2  5  1  0  0  0  0
  5  6  2  0  0  0  0
  5  7  1  0  0  0  0
  7  8  1  0  0  0  0
  7  9  1  0  0  0  0
  9 10  1  0  0  0  0
  9 11  1  0  0  0  0
  9 17  1  0  0  0  0
 11 12  1  0  0  0  0
 11 13  1  0  0  0  0
 11 14  1  0  0  0  0
 14 15  1  0  0  0  0
 14 16  2  0  0  0  0
 17 18  2  0  0  0  0
 17 19  1  0  0  0  0
 19 20  1  0  0  0  0
 19 21  1  0  0  0  0
 21 22  1  0  0  0  0
 21 23  1  0  0  0  0
 21 24  1  0  0  0  0
M  CHG  1  15  -1
M  END
$$$$

  -OEChem-01062216073D

 24 23  0     1  0  0  0  0  0999 V2000
   -2.9212   -3.3123    1.0608 H   0  0  0  0  0  0  0  0  0  0  0  0
   -2.8449   -2.2871    0.6883 C   0  0  0  0  0  0  0  0  0  0  0  0
   -3.4134   -1.6290    1.3501 H   0  0  0  0  0  0  0  0  0  0  0  0
   -3.2747   -2.2423   -0.3155 H   0  0  0  0  0  0  0  0  0  0  0  0
   -1.3917   -1.8488    0.6494 C   0  0  0  0  0  0  0  0  0  0  0  0
   -0.5147   -2.6633    0.8987 O   0  0  0  0  0  0  0  0  0  0  0  0
   -1.0927   -0.5718    0.2249 N   0  0  0  0  0  0  0  0  0  0  0  0
   -1.8769    0.0096   -0.0582 H   0  0  0  0  0  0  0  0  0  0  0  0
    0.2095    0.1045    0.3207 C   0  0  1  0  0  0  0  0  0  0  0  0
    0.7801   -0.1165   -0.5867 H   0  0  0  0  0  0  0  0  0  0  0  0
   -0.0836    1.6165    0.3834 C   0  0  0  0  0  0  0  0  0  0  0  0
   -0.7874    1.8245    1.1949 H   0  0  0  0  0  0  0  0  0  0  0  0
    0.8444    2.1506    0.6034 H   0  0  0  0  0  0  0  0  0  0  0  0
   -0.6308    2.1775   -0.9259 C   0  0  0  0  0  0  0  0  0  0  0  0
   -0.2984    1.6286   -2.0054 O   0  5  0  0  0  0  0  0  0  0  0  0
   -1.4664    3.1073   -0.8306 O   0  0  0  0  0  0  0  0  0  0  0  0
    1.0963   -0.3185    1.5206 C   0  0  0  0  0  0  0  0  0  0  0  0
    0.7668   -0.0732    2.6792 O   0  0  0  0  0  0  0  0  0  0  0  0
    2.3438   -0.8684    1.2826 N   0  0  0  0  0  0  0  0  0  0  0  0
    2.5094   -1.1855    0.3328 H   0  0  0  0  0  0  0  0  0  0  0  0
    3.2015   -1.3725    2.3442 C   0  0  0  0  0  0  0  0  0  0  0  0
    2.7079   -2.1927    2.8753 H   0  0  0  0  0  0  0  0  0  0  0  0
    4.1400   -1.7445    1.9227 H   0  0  0  0  0  0  0  0  0  0  0  0
    3.4362   -0.5768    3.0586 H   0  0  0  0  0  0  0  0  0  0  0  0
  1  2  1  0  0  0  0
  2  3  1  0  0  0  0
  2  4  1  0  0  0  0
  2  5  1  0  0  0  0
  5  6  2  0  0  0  0
  5  7  1  0  0  0  0
  7  8  1  0  0  0  0
  7  9  1  0  0  0  0
  9 10  1  0  0  0  0
  9 11  1  0  0  0  0
  9 17  1  0  0  0  0
 11 12  1  0  0  0  0
 11 13  1  0  0  0  0
 11 14  1  0  0  0  0
 14 15  1  0  0  0  0
 14 16  2  0  0  0  0
 17 18  2  0  0  0  0
 17 19  1  0  0  0  0
 19 20  1  0  0  0  0
 19 21  1  0  0  0  0
 21 22  1  0  0  0  0
 21 23  1  0  0  0  0
 21 24  1  0  0  0  0
M  CHG  1  15  -1
M  END
$$$$

  -OEChem-01062216073D

 24 23  0     1  0  0  0  0  0999 V2000
   -2.9369   -3.3236    1.0372 H   0  0  0  0  0  0  0  0  0  0  0  0
   -2.8593   -2.2889    0.6927 C   0  0  0  0  0  0  0  0  0  0  0  0
   -3.3984   -1.6441    1.3912 H   0  0  0  0  0  0  0  0  0  0  0  0
   -3.3195   -2.2093   -0.2954 H   0  0  0  0  0  0  0  0  0  0  0  0
   -1.4030   -1.8660    0.6199 C   0  0  0  0  0  0  0  0  0  0  0  0
   -0.5276   -2.6952    0.8227 O   0  0  0  0  0  0  0  0  0  0  0  0
   -1.1014   -0.5879    0.2003 N   0  0  0  0  0  0  0  0  0  0  0  0
   -1.8888    0.0089   -0.0362 H   0  0  0  0  0  0  0  0  0  0  0  0
    0.2024    0.0816    0.3184 C   0  0  1  0  0  0  0  0  0  0  0  0
    0.7822   -0.1404   -0.5830 H   0  0  0  0  0  0  0  0  0  0  0  0
   -0.0809    1.5945    0.3896 C   0  0  0  0  0  0  0  0  0  0  0  0
   -0.7942    1.7994    1.1936 H   0  0  0  0  0  0  0  0  0  0  0  0
    0.8474    2.1205    0.6265 H   0  0  0  0  0  0  0  0  0  0  0  0
   -0.6069    2.1729   -0.9209 C   0  0  0  0  0  0  0  0  0  0  0  0
   -0.2647    1.6326   -2.0014 O   0  5  0  0  0  0  0  0  0  0  0  0
   -1.4288    3.1149   -0.8271 O   0  0  0  0  0  0  0  0  0  0  0  0
    1.0756   -0.3418    1.5276 C   0  0  0  0  0  0  0  0  0  0  0  0
    0.6441   -0.2962    2.6778 O   0  0  0  0  0  0  0  0  0  0  0  0
    2.4223   -0.5954    1.3330 N   0  0  0  0  0  0  0  0  0  0  0  0
    2.7314   -0.6755    0.3696 H   0  0  0  0  0  0  0  0  0  0  0  0
    3.3209   -1.0086    2.3999 C   0  0  0  0  0  0  0  0  0  0  0  0
    2.9838   -1.9538    2.8373 H   0  0  0  0  0  0  0  0  0  0  0  0
    4.3318   -1.1483    2.0062 H   0  0  0  0  0  0  0  0  0  0  0  0
    3.3581   -0.2471    3.1855 H   0  0  0  0  0  0  0  0  0  0  0  0
  1  2  1  0  0  0  0
  2  3  1  0  0  0  0
  2  4  1  0  0  0  0
  2  5  1  0  0  0  0
  5  6  2  0  0  0  0
  5  7  1  0  0  0  0
  7  8  1  0  0  0  0
  7  9  1  0  0  0  0
  9 10  1  0  0  0  0
  9 11  1  0  0  0  0
  9 17  1  0  0  0  0
 11 12  1  0  0  0  0
 11 13  1  0  0  0  0
 11 14  1  0  0  0  0
 14 15  1  0  0  0  0
 14 16  2  0  0  0  0
 17 18  2  0  0  0  0
 17 19  1  0  0  0  0
 19 20  1  0  0  0  0
 19 21  1  0  0  0  0
 21 22  1  0  0  0  0
 21 23  1  0  0  0  0
 21 24  1  0  0  0  0
M  CHG  1  15  -1
M  END
$$$$

  -OEChem-01062216073D

 24 23  0     1  0  0  0  0  0999 V2000
   -2.9686   -3.3301    1.0061 H   0  0  0  0  0  0  0  0  0  0  0  0
   -2.8831   -2.2857    0.6938 C   0  0  0  0  0  0  0  0  0  0  0  0
   -3.3731   -1.6543    1.4392 H   0  0  0  0  0  0  0  0  0  0  0  0
   -3.3872   -2.1610   -0.2678 H   0  0  0  0  0  0  0  0  0  0  0  0
   -1.4220   -1.8929    0.5670 C   0  0  0  0  0  0  0  0  0  0  0  0
   -0.5575   -2.7472    0.7009 O   0  0  0  0  0  0  0  0  0  0  0  0
   -1.1079   -0.6120    0.1650 N   0  0  0  0  0  0  0  0  0  0  0  0
   -1.8923    0.0064   -0.0177 H   0  0  0  0  0  0  0  0  0  0  0  0
    0.2028    0.0395    0.3095 C   0  0  1  0  0  0  0  0  0  0  0  0
    0.7889   -0.1761   -0.5896 H   0  0  0  0  0  0  0  0  0  0  0  0
   -0.0654    1.5544    0.4078 C   0  0  0  0  0  0  0  0  0  0  0  0
   -0.7849    1.7494    1.2087 H   0  0  0  0  0  0  0  0  0  0  0  0
    0.8648    2.0673    0.6653 H   0  0  0  0  0  0  0  0  0  0  0  0
   -0.5713    2.1689   -0.8935 C   0  0  0  0  0  0  0  0  0  0  0  0
   -0.2248    1.6508   -1.9830 O   0  5  0  0  0  0  0  0  0  0  0  0
   -1.3741    3.1255   -0.7845 O   0  0  0  0  0  0  0  0  0  0  0  0
    1.0663   -0.3986    1.5205 C   0  0  0  0  0  0  0  0  0  0  0  0
    0.5805   -0.5481    2.6398 O   0  0  0  0  0  0  0  0  0  0  0  0
    2.4451   -0.3545    1.4052 N   0  0  0  0  0  0  0  0  0  0  0  0
    2.8212   -0.1648    0.4814 H   0  0  0  0  0  0  0  0  0  0  0  0
    3.3584   -0.6064    2.5094 C   0  0  0  0  0  0  0  0  0  0  0  0
    3.2006   -1.6115    2.9140 H   0  0  0  0  0  0  0  0  0  0  0  0
    4.3937   -0.5303    2.1646 H   0  0  0  0  0  0  0  0  0  0  0  0
    3.2040    0.1268    3.3075 H   0  0  0  0  0  0  0  0  0  0  0  0
  1  2  1  0  0  0  0
  2  3  1  0  0  0  0
  2  4  1  0  0  0  0
  2  5  1  0  0  0  0
  5  6  2  0  0  0  0
  5  7  1  0  0  0  0
  7  8  1  0  0  0  0
  7  9  1  0  0  0  0
  9 10  1  0  0  0  0
  9 11  1  0  0  0  0
  9 17  1  0  0  0  0
 11 12  1  0  0  0  0
 11 13  1  0  0  0  0
 11 14  1  0  0  0  0
 14 15  1  0  0  0  0
 14 16  2  0  0  0  0
 17 18  2  0  0  0  0
 17 19  1  0  0  0  0
 19 20  1  0  0  0  0
 19 21  1  0  0  0  0
 21 22  1  0  0  0  0
 21 23  1  0  0  0  0
 21 24  1  0  0  0  0
M  CHG  1  15  -1
M  END
$$$$

  -OEChem-01062216073D

 24 23  0     1  0  0  0  0  0999 V2000
   -2.9802   -3.3315    0.9910 H   0  0  0  0  0  0  0  0  0  0  0  0
   -2.8886   -2.2813    0.7007 C   0  0  0  0  0  0  0  0  0  0  0  0
   -3.3354   -1.6607    1.4815 H   0  0  0  0  0  0  0  0  0  0  0  0
   -3.4298   -2.1236   -0.2355 H   0  0  0  0  0  0  0  0  0  0  0  0
   -1.4267   -1.9119    0.5224 C   0  0  0  0  0  0  0  0  0  0  0  0
   -0.5758   -2.7880    0.5816 O   0  0  0  0  0  0  0  0  0  0  0  0
   -1.1021   -0.6278    0.1384 N   0  0  0  0  0  0  0  0  0  0  0  0
   -1.8836    0.0056    0.0020 H   0  0  0  0  0  0  0  0  0  0  0  0
    0.2150    0.0090    0.3000 C   0  0  1  0  0  0  0  0  0  0  0  0
    0.8034   -0.1945   -0.6004 H   0  0  0  0  0  0  0  0  0  0  0  0
   -0.0543    1.5240    0.4228 C   0  0  0  0  0  0  0  0  0  0  0  0
   -0.7779    1.7044    1.2232 H   0  0  0  0  0  0  0  0  0  0  0  0
    0.8717    2.0369    0.6935 H   0  0  0  0  0  0  0  0  0  0  0  0
   -0.5534    2.1656   -0.8677 C   0  0  0  0  0  0  0  0  0  0  0  0
   -0.2025    1.6702   -1.9658 O   0  5  0  0  0  0  0  0  0  0  0  0
   -1.3492    3.1258   -0.7415 O   0  0  0  0  0  0  0  0  0  0  0  0
    1.0814   -0.4416    1.5068 C   0  0  0  0  0  0  0  0  0  0  0  0
    0.5835   -0.7895    2.5754 O   0  0  0  0  0  0  0  0  0  0  0  0
    2.4259   -0.1091    1.5057 N   0  0  0  0  0  0  0  0  0  0  0  0
    2.7874    0.3200    0.6593 H   0  0  0  0  0  0  0  0  0  0  0  0
    3.2987   -0.2439    2.6623 C   0  0  0  0  0  0  0  0  0  0  0  0
    3.2948   -1.2762    3.0267 H   0  0  0  0  0  0  0  0  0  0  0  0
    4.3244    0.0218    2.3903 H   0  0  0  0  0  0  0  0  0  0  0  0
    2.9696    0.4194    3.4684 H   0  0  0  0  0  0  0  0  0  0  0  0
  1  2  1  0  0  0  0
  2  3  1  0  0  0  0
  2  4  1  0  0  0  0
  2  5  1  0  0  0  0
  5  6  2  0  0  0  0
  5  7  1  0  0  0  0
  7  8  1  0  0  0  0
  7  9  1  0  0  0  0
  9 10  1  0  0  0  0
  9 11  1  0  0  0  0
  9 17  1  0  0  0  0
 11 12  1  0  0  0  0
 11 13  1  0  0  0  0
 11 14  1  0  0  0  0
 14 15  1  0  0  0  0
 14 16  2  0  0  0  0
 17 18  2  0  0  0  0
 17 19  1  0  0  0  0
 19 20  1  0  0  0  0
 19 21  1  0  0  0  0
 21 22  1  0  0  0  0
 21 23  1  0  0  0  0
 21 24  1  0  0  0  0
M  CHG  1  15  -1
M  END
$$$$

  -OEChem-01062216073D

 24 23  0     1  0  0  0  0  0999 V2000
   -3.0679   -3.2357    1.0398 H   0  0  0  0  0  0  0  0  0  0  0  0
   -2.9209   -2.1839    0.7800 C   0  0  0  0  0  0  0  0  0  0  0  0
   -3.2078   -1.5676    1.6357 H   0  0  0  0  0  0  0  0  0  0  0  0
   -3.5602   -1.9350   -0.0707 H   0  0  0  0  0  0  0  0  0  0  0  0
   -1.4661   -1.9297    0.4276 C   0  0  0  0  0  0  0  0  0  0  0  0
   -0.7243   -2.8824    0.2405 O   0  0  0  0  0  0  0  0  0  0  0  0
   -1.0800   -0.6525    0.0807 N   0  0  0  0  0  0  0  0  0  0  0  0
   -1.8398    0.0215    0.0564 H   0  0  0  0  0  0  0  0  0  0  0  0
    0.2536   -0.0470    0.2607 C   0  0  1  0  0  0  0  0  0  0  0  0
    0.7349   -0.0001   -0.7214 H   0  0  0  0  0  0  0  0  0  0  0  0
   -0.0453    1.3820    0.7758 C   0  0  0  0  0  0  0  0  0  0  0  0
   -0.6891    1.3253    1.6587 H   0  0  0  0  0  0  0  0  0  0  0  0
    0.8819    1.8730    1.0781 H   0  0  0  0  0  0  0  0  0  0  0  0
   -0.6878    2.2895   -0.2678 C   0  0  0  0  0  0  0  0  0  0  0  0
   -0.4340    2.0921   -1.4800 O   0  5  0  0  0  0  0  0  0  0  0  0
   -1.5044    3.1381    0.1599 O   0  0  0  0  0  0  0  0  0  0  0  0
    1.2929   -0.7155    1.2094 C   0  0  0  0  0  0  0  0  0  0  0  0
    0.9786   -1.4778    2.1184 O   0  0  0  0  0  0  0  0  0  0  0  0
    2.5330   -0.1081    1.3348 N   0  0  0  0  0  0  0  0  0  0  0  0
    2.7185    0.6700    0.7089 H   0  0  0  0  0  0  0  0  0  0  0  0
    3.4866   -0.4028    2.3952 C   0  0  0  0  0  0  0  0  0  0  0  0
    3.7198   -1.4723    2.4139 H   0  0  0  0  0  0  0  0  0  0  0  0
    4.4158    0.1493    2.2275 H   0  0  0  0  0  0  0  0  0  0  0  0
    3.0784   -0.1106    3.3679 H   0  0  0  0  0  0  0  0  0  0  0  0
  1  2  1  0  0  0  0
  2  3  1  0  0  0  0
  2  4  1  0  0  0  0
  2  5  1  0  0  0  0
  5  6  2  0  0  0  0
  5  7  1  0  0  0  0
  7  8  1  0  0  0  0
  7  9  1  0  0  0  0
  9 10  1  0  0  0  0
  9 11  1  0  0  0  0
  9 17  1  0  0  0  0
 11 12  1  0  0  0  0
 11 13  1  0  0  0  0
 11 14  1  0  0  0  0
 14 15  1  0  0  0  0
 14 16  2  0  0  0  0
 17 18  2  0  0  0  0
 17 19  1  0  0  0  0
 19 20  1  0  0  0  0
 19 21  1  0  0  0  0
 21 22  1  0  0  0  0
 21 23  1  0  0  0  0
 21 24  1  0  0  0  0
M  CHG  1  15  -1
M  END
$$$$

  -OEChem-01062216073D

 24 23  0     1  0  0  0  0  0999 V2000
   -3.0713   -3.2012    1.0816 H   0  0  0  0  0  0  0  0  0  0  0  0
   -2.9109   -2.1585    0.7937 C   0  0  0  0  0  0  0  0  0  0  0  0
   -3.1792   -1.5165    1.6364 H   0  0  0  0  0  0  0  0  0  0  0  0
   -3.5554   -1.9207   -0.0561 H   0  0  0  0  0  0  0  0  0  0  0  0
   -1.4565   -1.9362    0.4191 C   0  0  0  0  0  0  0  0  0  0  0  0
   -0.7543   -2.9074    0.1872 O   0  0  0  0  0  0  0  0  0  0  0  0
   -1.0519   -0.6622    0.0811 N   0  0  0  0  0  0  0  0  0  0  0  0
   -1.8128    0.0096    0.0370 H   0  0  0  0  0  0  0  0  0  0  0  0
    0.2747   -0.0396    0.2725 C   0  0  1  0  0  0  0  0  0  0  0  0
    0.7654    0.0125   -0.7047 H   0  0  0  0  0  0  0  0  0  0  0  0
   -0.0849    1.3881    0.7648 C   0  0  0  0  0  0  0  0  0  0  0  0
   -0.7428    1.3199    1.6366 H   0  0  0  0  0  0  0  0  0  0  0  0
    0.8125    1.9251    1.0750 H   0  0  0  0  0  0  0  0  0  0  0  0
   -0.7353    2.2650   -0.3000 C   0  0  0  0  0  0  0  0  0  0  0  0
   -0.4519    2.0685   -1.5050 O   0  5  0  0  0  0  0  0  0  0  0  0
   -1.5881    3.0877    0.1070 O   0  0  0  0  0  0  0  0  0  0  0  0
    1.3325   -0.6747    1.2342 C   0  0  0  0  0  0  0  0  0  0  0  0
    1.1341   -1.6699    1.9201 O   0  0  0  0  0  0  0  0  0  0  0  0
    2.4240    0.0916    1.6165 N   0  0  0  0  0  0  0  0  0  0  0  0
    2.5238    0.9934    1.1603 H   0  0  0  0  0  0  0  0  0  0  0  0
    3.3516   -0.2665    2.6810 C   0  0  0  0  0  0  0  0  0  0  0  0
    3.8034   -1.2440    2.4830 H   0  0  0  0  0  0  0  0  0  0  0  0
    4.1517    0.4766    2.7460 H   0  0  0  0  0  0  0  0  0  0  0  0
    2.8325   -0.3031    3.6442 H   0  0  0  0  0  0  0  0  0  0  0  0
  1  2  1  0  0  0  0
  2  3  1  0  0  0  0
  2  4  1  0  0  0  0
  2  5  1  0  0  0  0
  5  6  2  0  0  0  0
  5  7  1  0  0  0  0
  7  8  1  0  0  0  0
  7  9  1  0  0  0  0
  9 10  1  0  0  0  0
  9 11  1  0  0  0  0
  9 17  1  0  0  0  0
 11 12  1  0  0  0  0
 11 13  1  0  0  0  0
 11 14  1  0  0  0  0
 14 15  1  0  0  0  0
 14 16  2  0  0  0  0
 17 18  2  0  0  0  0
 17 19  1  0  0  0  0
 19 20  1  0  0  0  0
 19 21  1  0  0  0  0
 21 22  1  0  0  0  0
 21 23  1  0  0  0  0
 21 24  1  0  0  0  0
M  CHG  1  15  -1
M  END
$$$$

  -OEChem-01062216073D

 24 23  0     1  0  0  0  0  0999 V2000
   -3.1110   -3.3257    0.8073 H   0  0  0  0  0  0  0  0  0  0  0  0
   -2.8855   -2.3613    0.3437 C   0  0  0  0  0  0  0  0  0  0  0  0
   -3.7590   -1.7109    0.4344 H   0  0  0  0  0  0  0  0  0  0  0  0
   -2.6688   -2.5233   -0.7151 H   0  0  0  0  0  0  0  0  0  0  0  0
   -1.6888   -1.7189    1.0232 C   0  0  0  0  0  0  0  0  0  0  0  0
   -1.2989   -2.1874    2.0794 O   0  0  0  0  0  0  0  0  0  0  0  0
   -1.2439   -0.5036    0.5452 N   0  0  0  0  0  0  0  0  0  0  0  0
   -1.7935   -0.1528   -0.2364 H   0  0  0  0  0  0  0  0  0  0  0  0
    0.1203    0.0608    0.5639 C   0  0  1  0  0  0  0  0  0  0  0  0
    0.5398   -0.0334   -0.4429 H   0  0  0  0  0  0  0  0  0  0  0  0
   -0.1079    1.5600    0.8845 C   0  0  0  0  0  0  0  0  0  0  0  0
   -0.7001    1.6589    1.7993 H   0  0  0  0  0  0  0  0  0  0  0  0
    0.8439    2.0691    1.0412 H   0  0  0  0  0  0  0  0  0  0  0  0
   -0.7894    2.3079   -0.2586 C   0  0  0  0  0  0  0  0  0  0  0  0
   -0.6079    1.9076   -1.4353 O   0  5  0  0  0  0  0  0  0  0  0  0
   -1.5047    3.2872    0.0564 O   0  0  0  0  0  0  0  0  0  0  0  0
    1.2037   -0.5849    1.4804 C   0  0  0  0  0  0  0  0  0  0  0  0
    1.4631   -1.7808    1.3891 O   0  0  0  0  0  0  0  0  0  0  0  0
    2.2199    0.1958    2.0109 N   0  0  0  0  0  0  0  0  0  0  0  0
    2.0727    1.1998    1.9937 H   0  0  0  0  0  0  0  0  0  0  0  0
    3.4034   -0.3332    2.6744 C   0  0  0  0  0  0  0  0  0  0  0  0
    4.0145   -0.9049    1.9687 H   0  0  0  0  0  0  0  0  0  0  0  0
    4.0083    0.4875    3.0711 H   0  0  0  0  0  0  0  0  0  0  0  0
    3.1167   -0.9849    3.5060 H   0  0  0  0  0  0  0  0  0  0  0  0
  1  2  1  0  0  0  0
  2  3  1  0  0  0  0
  2  4  1  0  0  0  0
  2  5  1  0  0  0  0
  5  6  2  0  0  0  0
  5  7  1  0  0  0  0
  7  8  1  0  0  0  0
  7  9  1  0  0  0  0
  9 10  1  0  0  0  0
  9 11  1  0  0  0  0
  9 17  1  0  0  0  0
 11 12  1  0  0  0  0
 11 13  1  0  0  0  0
 11 14  1  0  0  0  0
 14 15  1  0  0  0  0
 14 16  2  0  0  0  0
 17 18  2  0  0  0  0
 17 19  1  0  0  0  0
 19 20  1  0  0  0  0
 19 21  1  0  0  0  0
 21 22  1  0  0  0  0
 21 23  1  0  0  0  0
 21 24  1  0  0  0  0
M  CHG  1  15  -1
M  END
$$$$

  -OEChem-01062216073D

 24 23  0     1  0  0  0  0  0999 V2000
   -3.1359   -3.3024    0.8492 H   0  0  0  0  0  0  0  0  0  0  0  0
   -2.9119   -2.3421    0.3764 C   0  0  0  0  0  0  0  0  0  0  0  0
   -3.7610   -1.6695    0.5209 H   0  0  0  0  0  0  0  0  0  0  0  0
   -2.7623   -2.5042   -0.6939 H   0  0  0  0  0  0  0  0  0  0  0  0
   -1.6607   -1.7346    0.9858 C   0  0  0  0  0  0  0  0  0  0  0  0
   -1.1860   -2.2547    1.9816 O   0  0  0  0  0  0  0  0  0  0  0  0
   -1.2298   -0.5150    0.5059 N   0  0  0  0  0  0  0  0  0  0  0  0
   -1.8027   -0.1471   -0.2507 H   0  0  0  0  0  0  0  0  0  0  0  0
    0.1281    0.0620    0.5220 C   0  0  1  0  0  0  0  0  0  0  0  0
    0.5508   -0.0272   -0.4842 H   0  0  0  0  0  0  0  0  0  0  0  0
   -0.1011    1.5586    0.8487 C   0  0  0  0  0  0  0  0  0  0  0  0
   -0.6876    1.6548    1.7674 H   0  0  0  0  0  0  0  0  0  0  0  0
    0.8554    2.0628    0.9992 H   0  0  0  0  0  0  0  0  0  0  0  0
   -0.7900    2.3107   -0.2870 C   0  0  0  0  0  0  0  0  0  0  0  0
   -0.6163    1.9179   -1.4670 O   0  5  0  0  0  0  0  0  0  0  0  0
   -1.5166    3.2777    0.0405 O   0  0  0  0  0  0  0  0  0  0  0  0
    1.1975   -0.5924    1.4462 C   0  0  0  0  0  0  0  0  0  0  0  0
    1.5981   -1.7279    1.2054 O   0  0  0  0  0  0  0  0  0  0  0  0
    2.0239    0.1880    2.2399 N   0  0  0  0  0  0  0  0  0  0  0  0
    1.7269    1.1471    2.3892 H   0  0  0  0  0  0  0  0  0  0  0  0
    3.1605   -0.3273    2.9893 C   0  0  0  0  0  0  0  0  0  0  0  0
    3.9231   -0.7177    2.3077 H   0  0  0  0  0  0  0  0  0  0  0  0
    3.6079    0.4714    3.5880 H   0  0  0  0  0  0  0  0  0  0  0  0
    2.8421   -1.1291    3.6633 H   0  0  0  0  0  0  0  0  0  0  0  0
  1  2  1  0  0  0  0
  2  3  1  0  0  0  0
  2  4  1  0  0  0  0
  2  5  1  0  0  0  0
  5  6  2  0  0  0  0
  5  7  1  0  0  0  0
  7  8  1  0  0  0  0
  7  9  1  0  0  0  0
  9 10  1  0  0  0  0
  9 11  1  0  0  0  0
  9 17  1  0  0  0  0
 11 12  1  0  0  0  0
 11 13  1  0  0  0  0
 11 14  1  0  0  0  0
 14 15  1  0  0  0  0
 14 16  2  0  0  0  0
 17 18  2  0  0  0  0
 17 19  1  0  0  0  0
 19 20  1  0  0  0  0
 19 21  1  0  0  0  0
 21 22  1  0  0  0  0
 21 23  1  0  0  0  0
 21 24  1  0  0  0  0
M  CHG  1  15  -1
M  END
$$$$

  -OEChem-01062216073D

 24 23  0     1  0  0  0  0  0999 V2000
   -3.1219   -3.3130    0.8340 H   0  0  0  0  0  0  0  0  0  0  0  0
   -2.9333   -2.3259    0.4028 C   0  0  0  0  0  0  0  0  0  0  0  0
   -3.7643   -1.6634    0.6575 H   0  0  0  0  0  0  0  0  0  0  0  0
   -2.8746   -2.4230   -0.6842 H   0  0  0  0  0  0  0  0  0  0  0  0
   -1.6325   -1.7564    0.9418 C   0  0  0  0  0  0  0  0  0  0  0  0
   -1.0808   -2.3350    1.8625 O   0  0  0  0  0  0  0  0  0  0  0  0
   -1.2115   -0.5314    0.4653 N   0  0  0  0  0  0  0  0  0  0  0  0
   -1.8117   -0.1357   -0.2555 H   0  0  0  0  0  0  0  0  0  0  0  0
    0.1400    0.0592    0.4814 C   0  0  1  0  0  0  0  0  0  0  0  0
    0.5631   -0.0179   -0.5259 H   0  0  0  0  0  0  0  0  0  0  0  0
   -0.0915    1.5498    0.8261 C   0  0  0  0  0  0  0  0  0  0  0  0
   -0.6728    1.6349    1.7491 H   0  0  0  0  0  0  0  0  0  0  0  0
    0.8695    2.0467    0.9785 H   0  0  0  0  0  0  0  0  0  0  0  0
   -0.7900    2.3146   -0.2946 C   0  0  0  0  0  0  0  0  0  0  0  0
   -0.6249    1.9394   -1.4814 O   0  5  0  0  0  0  0  0  0  0  0  0
   -1.5299    3.2639    0.0545 O   0  0  0  0  0  0  0  0  0  0  0  0
    1.2051   -0.5955    1.4074 C   0  0  0  0  0  0  0  0  0  0  0  0
    1.7527   -1.6392    1.0624 O   0  0  0  0  0  0  0  0  0  0  0  0
    1.8099    0.1268    2.4240 N   0  0  0  0  0  0  0  0  0  0  0  0
    1.3591    0.9994    2.6810 H   0  0  0  0  0  0  0  0  0  0  0  0
    2.8813   -0.3929    3.2604 C   0  0  0  0  0  0  0  0  0  0  0  0
    3.7685   -0.6074    2.6563 H   0  0  0  0  0  0  0  0  0  0  0  0
    3.1522    0.3425    4.0236 H   0  0  0  0  0  0  0  0  0  0  0  0
    2.5618   -1.3121    3.7617 H   0  0  0  0  0  0  0  0  0  0  0  0
  1  2  1  0  0  0  0
  2  3  1  0  0  0  0
  2  4  1  0  0  0  0
  2  5  1  0  0  0  0
  5  6  2  0  0  0  0
  5  7  1  0  0  0  0
  7  8  1  0  0  0  0
  7  9  1  0  0  0  0
  9 10  1  0  0  0  0
  9 11  1  0  0  0  0
  9 17  1  0  0  0  0
 11 12  1  0  0  0  0
 11 13  1  0  0  0  0
 11 14  1  0  0  0  0
 14 15  1  0  0  0  0
 14 16  2  0  0  0  0
 17 18  2  0  0  0  0
 17 19  1  0  0  0  0
 19 20  1  0  0  0  0
 19 21  1  0  0  0  0
 21 22  1  0  0  0  0
 21 23  1  0  0  0  0
 21 24  1  0  0  0  0
M  CHG  1  15  -1
M  END
$$$$

  -OEChem-01062216073D

 24 23  0     1  0  0  0  0  0999 V2000
   -3.1271   -3.3014    0.8447 H   0  0  0  0  0  0  0  0  0  0  0  0
   -2.9432   -2.3096    0.4224 C   0  0  0  0  0  0  0  0  0  0  0  0
   -3.7448   -1.6367    0.7373 H   0  0  0  0  0  0  0  0  0  0  0  0
   -2.9488   -2.3854   -0.6679 H   0  0  0  0  0  0  0  0  0  0  0  0
   -1.6031   -1.7754    0.8962 C   0  0  0  0  0  0  0  0  0  0  0  0
   -0.9933   -2.4006    1.7472 O   0  0  0  0  0  0  0  0  0  0  0  0
   -1.1898   -0.5466    0.4238 N   0  0  0  0  0  0  0  0  0  0  0  0
   -1.8121   -0.1256   -0.2634 H   0  0  0  0  0  0  0  0  0  0  0  0
    0.1557    0.0555    0.4442 C   0  0  1  0  0  0  0  0  0  0  0  0
    0.5803   -0.0062   -0.5636 H   0  0  0  0  0  0  0  0  0  0  0  0
   -0.0841    1.5375    0.8142 C   0  0  0  0  0  0  0  0  0  0  0  0
   -0.6653    1.6040    1.7388 H   0  0  0  0  0  0  0  0  0  0  0  0
    0.8771    2.0313    0.9783 H   0  0  0  0  0  0  0  0  0  0  0  0
   -0.7926    2.3175   -0.2894 C   0  0  0  0  0  0  0  0  0  0  0  0
   -0.6312    1.9649   -1.4833 O   0  5  0  0  0  0  0  0  0  0  0  0
   -1.5512    3.2436    0.0820 O   0  0  0  0  0  0  0  0  0  0  0  0
    1.2185   -0.5946    1.3734 C   0  0  0  0  0  0  0  0  0  0  0  0
    1.9152   -1.5164    0.9572 O   0  0  0  0  0  0  0  0  0  0  0  0
    1.5858    0.0086    2.5655 N   0  0  0  0  0  0  0  0  0  0  0  0
    0.9794    0.7549    2.8907 H   0  0  0  0  0  0  0  0  0  0  0  0
    2.5888   -0.5345    3.4683 C   0  0  0  0  0  0  0  0  0  0  0  0
    3.5643   -0.5801    2.9737 H   0  0  0  0  0  0  0  0  0  0  0  0
    2.6796    0.1016    4.3536 H   0  0  0  0  0  0  0  0  0  0  0  0
    2.3061   -1.5417    3.7909 H   0  0  0  0  0  0  0  0  0  0  0  0
  1  2  1  0  0  0  0
  2  3  1  0  0  0  0
  2  4  1  0  0  0  0
  2  5  1  0  0  0  0
  5  6  2  0  0  0  0
  5  7  1  0  0  0  0
  7  8  1  0  0  0  0
  7  9  1  0  0  0  0
  9 10  1  0  0  0  0
  9 11  1  0  0  0  0
  9 17  1  0  0  0  0
 11 12  1  0  0  0  0
 11 13  1  0  0  0  0
 11 14  1  0  0  0  0
 14 15  1  0  0  0  0
 14 16  2  0  0  0  0
 17 18  2  0  0  0  0
 17 19  1  0  0  0  0
 19 20  1  0  0  0  0
 19 21  1  0  0  0  0
 21 22  1  0  0  0  0
 21 23  1  0  0  0  0
 21 24  1  0  0  0  0
M  CHG  1  15  -1
M  END
$$$$

  -OEChem-01062216073D

 24 23  0     1  0  0  0  0  0999 V2000
   -3.1287   -3.2888    0.8608 H   0  0  0  0  0  0  0  0  0  0  0  0
   -2.9465   -2.2963    0.4395 C   0  0  0  0  0  0  0  0  0  0  0  0
   -3.7240   -1.6139    0.7921 H   0  0  0  0  0  0  0  0  0  0  0  0
   -2.9982   -2.3625   -0.6502 H   0  0  0  0  0  0  0  0  0  0  0  0
   -1.5802   -1.7860    0.8628 C   0  0  0  0  0  0  0  0  0  0  0  0
   -0.9281   -2.4454    1.6546 O   0  0  0  0  0  0  0  0  0  0  0  0
   -1.1716   -0.5549    0.3923 N   0  0  0  0  0  0  0  0  0  0  0  0
   -1.8120   -0.1122   -0.2643 H   0  0  0  0  0  0  0  0  0  0  0  0
    0.1695    0.0565    0.4173 C   0  0  1  0  0  0  0  0  0  0  0  0
    0.5957    0.0058   -0.5906 H   0  0  0  0  0  0  0  0  0  0  0  0
   -0.0762    1.5312    0.8054 C   0  0  0  0  0  0  0  0  0  0  0  0
   -0.6566    1.5854    1.7310 H   0  0  0  0  0  0  0  0  0  0  0  0
    0.8850    2.0224    0.9786 H   0  0  0  0  0  0  0  0  0  0  0  0
   -0.7912    2.3203   -0.2874 C   0  0  0  0  0  0  0  0  0  0  0  0
   -0.6312    1.9828   -1.4859 O   0  5  0  0  0  0  0  0  0  0  0  0
   -1.5689    3.2247    0.0981 O   0  0  0  0  0  0  0  0  0  0  0  0
    1.2311   -0.5852    1.3503 C   0  0  0  0  0  0  0  0  0  0  0  0
    2.0774   -1.3473    0.8910 O   0  0  0  0  0  0  0  0  0  0  0  0
    1.3665   -0.1593    2.6614 N   0  0  0  0  0  0  0  0  0  0  0  0
    0.6026    0.4044    3.0204 H   0  0  0  0  0  0  0  0  0  0  0  0
    2.3080   -0.7500    3.5996 C   0  0  0  0  0  0  0  0  0  0  0  0
    3.3345   -0.6319    3.2380 H   0  0  0  0  0  0  0  0  0  0  0  0
    2.2262   -0.2570    4.5726 H   0  0  0  0  0  0  0  0  0  0  0  0
    2.0973   -1.8163    3.7301 H   0  0  0  0  0  0  0  0  0  0  0  0
  1  2  1  0  0  0  0
  2  3  1  0  0  0  0
  2  4  1  0  0  0  0
  2  5  1  0  0  0  0
  5  6  2  0  0  0  0
  5  7  1  0  0  0  0
  7  8  1  0  0  0  0
  7  9  1  0  0  0  0
  9 10  1  0  0  0  0
  9 11  1  0  0  0  0
  9 17  1  0  0  0  0
 11 12  1  0  0  0  0
 11 13  1  0  0  0  0
 11 14  1  0  0  0  0
 14 15  1  0  0  0  0
 14 16  2  0  0  0  0
 17 18  2  0  0  0  0
 17 19  1  0  0  0  0
 19 20  1  0  0  0  0
 19 21  1  0  0  0  0
 21 22  1  0  0  0  0
 21 23  1  0  0  0  0
 21 24  1  0  0  0  0
M  CHG  1  15  -1
M  END
$$$$

  -OEChem-01062216073D

 24 23  0     1  0  0  0  0  0999 V2000
   -3.1294   -3.2782    0.8625 H   0  0  0  0  0  0  0  0  0  0  0  0
   -2.9525   -2.2780    0.4576 C   0  0  0  0  0  0  0  0  0  0  0  0
   -3.7035   -1.5949    0.8623 H   0  0  0  0  0  0  0  0  0  0  0  0
   -3.0547   -2.3162   -0.6299 H   0  0  0  0  0  0  0  0  0  0  0  0
   -1.5613   -1.7964    0.8302 C   0  0  0  0  0  0  0  0  0  0  0  0
   -0.8808   -2.4872    1.5697 O   0  0  0  0  0  0  0  0  0  0  0  0
   -1.1514   -0.5649    0.3623 N   0  0  0  0  0  0  0  0  0  0  0  0
   -1.8052   -0.1015   -0.2665 H   0  0  0  0  0  0  0  0  0  0  0  0
    0.1850    0.0569    0.3976 C   0  0  1  0  0  0  0  0  0  0  0  0
    0.6180    0.0153   -0.6079 H   0  0  0  0  0  0  0  0  0  0  0  0
   -0.0724    1.5247    0.7988 C   0  0  0  0  0  0  0  0  0  0  0  0
   -0.6564    1.5659    1.7228 H   0  0  0  0  0  0  0  0  0  0  0  0
    0.8853    2.0190    0.9828 H   0  0  0  0  0  0  0  0  0  0  0  0
   -0.7899    2.3190   -0.2889 C   0  0  0  0  0  0  0  0  0  0  0  0
   -0.6237    1.9943   -1.4900 O   0  5  0  0  0  0  0  0  0  0  0  0
   -1.5879    3.2028    0.1033 O   0  0  0  0  0  0  0  0  0  0  0  0
    1.2444   -0.5704    1.3408 C   0  0  0  0  0  0  0  0  0  0  0  0
    2.2368   -1.1268    0.8787 O   0  0  0  0  0  0  0  0  0  0  0  0
    1.1656   -0.3695    2.7086 N   0  0  0  0  0  0  0  0  0  0  0  0
    0.2641   -0.0431    3.0412 H   0  0  0  0  0  0  0  0  0  0  0  0
    2.0615   -1.0174    3.6534 C   0  0  0  0  0  0  0  0  0  0  0  0
    3.1015   -0.7488    3.4422 H   0  0  0  0  0  0  0  0  0  0  0  0
    1.8242   -0.7002    4.6731 H   0  0  0  0  0  0  0  0  0  0  0  0
    1.9562   -2.1053    3.5922 H   0  0  0  0  0  0  0  0  0  0  0  0
  1  2  1  0  0  0  0
  2  3  1  0  0  0  0
  2  4  1  0  0  0  0
  2  5  1  0  0  0  0
  5  6  2  0  0  0  0
  5  7  1  0  0  0  0
  7  8  1  0  0  0  0
  7  9  1  0  0  0  0
  9 10  1  0  0  0  0
  9 11  1  0  0  0  0
  9 17  1  0  0  0  0
 11 12  1  0  0  0  0
 11 13  1  0  0  0  0
 11 14  1  0  0  0  0
 14 15  1  0  0  0  0
 14 16  2  0  0  0  0
 17 18  2  0  0  0  0
 17 19  1  0  0  0  0
 19 20  1  0  0  0  0
 19 21  1  0  0  0  0
 21 22  1  0  0  0  0
 21 23  1  0  0  0  0
 21 24  1  0  0  0  0
M  CHG  1  15  -1
M  END
$$$$

  -OEChem-01062216073D

 24 23  0     1  0  0  0  0  0999 V2000
   -3.1938   -3.2399    0.8478 H   0  0  0  0  0  0  0  0  0  0  0  0
   -2.9927   -2.2453    0.4403 C   0  0  0  0  0  0  0  0  0  0  0  0
   -3.7181   -1.5404    0.8544 H   0  0  0  0  0  0  0  0  0  0  0  0
   -3.1094   -2.2800   -0.6457 H   0  0  0  0  0  0  0  0  0  0  0  0
   -1.5838   -1.8048    0.7955 C   0  0  0  0  0  0  0  0  0  0  0  0
   -0.9047   -2.5281    1.5041 O   0  0  0  0  0  0  0  0  0  0  0  0
   -1.1490   -0.5787    0.3373 N   0  0  0  0  0  0  0  0  0  0  0  0
   -1.8031   -0.0874   -0.2702 H   0  0  0  0  0  0  0  0  0  0  0  0
    0.1897    0.0397    0.3939 C   0  0  1  0  0  0  0  0  0  0  0  0
    0.6338    0.0042   -0.6070 H   0  0  0  0  0  0  0  0  0  0  0  0
   -0.0739    1.5021    0.8055 C   0  0  0  0  0  0  0  0  0  0  0  0
   -0.6658    1.5328    1.7249 H   0  0  0  0  0  0  0  0  0  0  0  0
    0.8813    1.9950    1.0052 H   0  0  0  0  0  0  0  0  0  0  0  0
   -0.7792    2.3060   -0.2834 C   0  0  0  0  0  0  0  0  0  0  0  0
   -0.5978    1.9926   -1.4854 O   0  5  0  0  0  0  0  0  0  0  0  0
   -1.5937    3.1753    0.1073 O   0  0  0  0  0  0  0  0  0  0  0  0
    1.2457   -0.5735    1.3504 C   0  0  0  0  0  0  0  0  0  0  0  0
    2.3598   -0.8754    0.9314 O   0  0  0  0  0  0  0  0  0  0  0  0
    1.0034   -0.6363    2.7118 N   0  0  0  0  0  0  0  0  0  0  0  0
    0.0177   -0.6081    2.9549 H   0  0  0  0  0  0  0  0  0  0  0  0
    1.9148   -1.2891    3.6386 C   0  0  0  0  0  0  0  0  0  0  0  0
    2.9011   -0.8151    3.6052 H   0  0  0  0  0  0  0  0  0  0  0  0
    1.5296   -1.2107    4.6595 H   0  0  0  0  0  0  0  0  0  0  0  0
    2.0208   -2.3489    3.3853 H   0  0  0  0  0  0  0  0  0  0  0  0
  1  2  1  0  0  0  0
  2  3  1  0  0  0  0
  2  4  1  0  0  0  0
  2  5  1  0  0  0  0
  5  6  2  0  0  0  0
  5  7  1  0  0  0  0
  7  8  1  0  0  0  0
  7  9  1  0  0  0  0
  9 10  1  0  0  0  0
  9 11  1  0  0  0  0
  9 17  1  0  0  0  0
 11 12  1  0  0  0  0
 11 13  1  0  0  0  0
 11 14  1  0  0  0  0
 14 15  1  0  0  0  0
 14 16  2  0  0  0  0
 17 18  2  0  0  0  0
 17 19  1  0  0  0  0
 19 20  1  0  0  0  0
 19 21  1  0  0  0  0
 21 22  1  0  0  0  0
 21 23  1  0  0  0  0
 21 24  1  0  0  0  0
M  CHG  1  15  -1
M  END
$$$$

  -OEChem-01062216073D

 24 23  0     1  0  0  0  0  0999 V2000
   -3.3081   -3.1898    0.7624 H   0  0  0  0  0  0  0  0  0  0  0  0
   -3.0701   -2.1916    0.3844 C   0  0  0  0  0  0  0  0  0  0  0  0
   -3.7729   -1.4739    0.8153 H   0  0  0  0  0  0  0  0  0  0  0  0
   -3.1827   -2.1909   -0.7028 H   0  0  0  0  0  0  0  0  0  0  0  0
   -1.6482   -1.8106    0.7568 C   0  0  0  0  0  0  0  0  0  0  0  0
   -0.9989   -2.5751    1.4501 O   0  0  0  0  0  0  0  0  0  0  0  0
   -1.1655   -0.5946    0.3223 N   0  0  0  0  0  0  0  0  0  0  0  0
   -1.8062   -0.0683   -0.2703 H   0  0  0  0  0  0  0  0  0  0  0  0
    0.1816    0.0066    0.4068 C   0  0  1  0  0  0  0  0  0  0  0  0
    0.6361   -0.0262   -0.5896 H   0  0  0  0  0  0  0  0  0  0  0  0
   -0.0849    1.4672    0.8228 C   0  0  0  0  0  0  0  0  0  0  0  0
   -0.6924    1.4936    1.7323 H   0  0  0  0  0  0  0  0  0  0  0  0
    0.8676    1.9566    1.0435 H   0  0  0  0  0  0  0  0  0  0  0  0
   -0.7652    2.2803   -0.2757 C   0  0  0  0  0  0  0  0  0  0  0  0
   -0.5605    1.9737   -1.4759 O   0  5  0  0  0  0  0  0  0  0  0  0
   -1.5959    3.1396    0.1034 O   0  0  0  0  0  0  0  0  0  0  0  0
    1.2417   -0.5960    1.3688 C   0  0  0  0  0  0  0  0  0  0  0  0
    2.4231   -0.6200    1.0344 O   0  0  0  0  0  0  0  0  0  0  0  0
    0.9174   -0.9481    2.6667 N   0  0  0  0  0  0  0  0  0  0  0  0
   -0.0564   -1.2322    2.7630 H   0  0  0  0  0  0  0  0  0  0  0  0
    1.8807   -1.5553    3.5724 C   0  0  0  0  0  0  0  0  0  0  0  0
    2.7363   -0.8899    3.7255 H   0  0  0  0  0  0  0  0  0  0  0  0
    1.4136   -1.7437    4.5434 H   0  0  0  0  0  0  0  0  0  0  0  0
    2.2385   -2.5070    3.1668 H   0  0  0  0  0  0  0  0  0  0  0  0
  1  2  1  0  0  0  0
  2  3  1  0  0  0  0
  2  4  1  0  0  0  0
  2  5  1  0  0  0  0
  5  6  2  0  0  0  0
  5  7  1  0  0  0  0
  7  8  1  0  0  0  0
  7  9  1  0  0  0  0
  9 10  1  0  0  0  0
  9 11  1  0  0  0  0
  9 17  1  0  0  0  0
 11 12  1  0  0  0  0
 11 13  1  0  0  0  0
 11 14  1  0  0  0  0
 14 15  1  0  0  0  0
 14 16  2  0  0  0  0
 17 18  2  0  0  0  0
 17 19  1  0  0  0  0
 19 20  1  0  0  0  0
 19 21  1  0  0  0  0
 21 22  1  0  0  0  0
 21 23  1  0  0  0  0
 21 24  1  0  0  0  0
M  CHG  1  15  -1
M  END
$$$$

  -OEChem-01062216073D

 24 23  0     1  0  0  0  0  0999 V2000
   -3.4171   -3.1266    0.7023 H   0  0  0  0  0  0  0  0  0  0  0  0
   -3.1402   -2.1294    0.3490 C   0  0  0  0  0  0  0  0  0  0  0  0
   -3.7960   -1.3931    0.8209 H   0  0  0  0  0  0  0  0  0  0  0  0
   -3.2807   -2.0886   -0.7342 H   0  0  0  0  0  0  0  0  0  0  0  0
   -1.6924   -1.8284    0.6945 C   0  0  0  0  0  0  0  0  0  0  0  0
   -1.0536   -2.6660    1.3087 O   0  0  0  0  0  0  0  0  0  0  0  0
   -1.1693   -0.6177    0.2924 N   0  0  0  0  0  0  0  0  0  0  0  0
   -1.8092   -0.0471   -0.2591 H   0  0  0  0  0  0  0  0  0  0  0  0
    0.1798   -0.0217    0.4134 C   0  0  1  0  0  0  0  0  0  0  0  0
    0.6501   -0.0443   -0.5756 H   0  0  0  0  0  0  0  0  0  0  0  0
   -0.1086    1.4342    0.8348 C   0  0  0  0  0  0  0  0  0  0  0  0
   -0.7381    1.4479    1.7295 H   0  0  0  0  0  0  0  0  0  0  0  0
    0.8333    1.9303    1.0838 H   0  0  0  0  0  0  0  0  0  0  0  0
   -0.7657    2.2540   -0.2729 C   0  0  0  0  0  0  0  0  0  0  0  0
   -0.5277    1.9612   -1.4703 O   0  5  0  0  0  0  0  0  0  0  0  0
   -1.6222    3.0933    0.0932 O   0  0  0  0  0  0  0  0  0  0  0  0
    1.2458   -0.6056    1.3852 C   0  0  0  0  0  0  0  0  0  0  0  0
    2.4358   -0.3998    1.1633 O   0  0  0  0  0  0  0  0  0  0  0  0
    0.9131   -1.2442    2.5656 N   0  0  0  0  0  0  0  0  0  0  0  0
   -0.0151   -1.6691    2.5433 H   0  0  0  0  0  0  0  0  0  0  0  0
    1.9050   -1.8475    3.4430 C   0  0  0  0  0  0  0  0  0  0  0  0
    2.6218   -1.0949    3.7871 H   0  0  0  0  0  0  0  0  0  0  0  0
    1.4138   -2.2807    4.3192 H   0  0  0  0  0  0  0  0  0  0  0  0
    2.4466   -2.6413    2.9187 H   0  0  0  0  0  0  0  0  0  0  0  0
  1  2  1  0  0  0  0
  2  3  1  0  0  0  0
  2  4  1  0  0  0  0
  2  5  1  0  0  0  0
  5  6  2  0  0  0  0
  5  7  1  0  0  0  0
  7  8  1  0  0  0  0
  7  9  1  0  0  0  0
  9 10  1  0  0  0  0
  9 11  1  0  0  0  0
  9 17  1  0  0  0  0
 11 12  1  0  0  0  0
 11 13  1  0  0  0  0
 11 14  1  0  0  0  0
 14 15  1  0  0  0  0
 14 16  2  0  0  0  0
 17 18  2  0  0  0  0
 17 19  1  0  0  0  0
 19 20  1  0  0  0  0
 19 21  1  0  0  0  0
 21 22  1  0  0  0  0
 21 23  1  0  0  0  0
 21 24  1  0  0  0  0
M  CHG  1  15  -1
M  END
$$$$

  -OEChem-01062216073D

 24 23  0     1  0  0  0  0  0999 V2000
   -3.5170   -3.0513    0.6762 H   0  0  0  0  0  0  0  0  0  0  0  0
   -3.2000   -2.0628    0.3323 C   0  0  0  0  0  0  0  0  0  0  0  0
   -3.8021   -1.3038    0.8385 H   0  0  0  0  0  0  0  0  0  0  0  0
   -3.3718   -1.9925   -0.7448 H   0  0  0  0  0  0  0  0  0  0  0  0
   -1.7289   -1.8422    0.6367 C   0  0  0  0  0  0  0  0  0  0  0  0
   -1.1031   -2.7481    1.1613 O   0  0  0  0  0  0  0  0  0  0  0  0
   -1.1708   -0.6369    0.2658 N   0  0  0  0  0  0  0  0  0  0  0  0
   -1.8112   -0.0259   -0.2401 H   0  0  0  0  0  0  0  0  0  0  0  0
    0.1805   -0.0484    0.4155 C   0  0  1  0  0  0  0  0  0  0  0  0
    0.6622   -0.0606   -0.5680 H   0  0  0  0  0  0  0  0  0  0  0  0
   -0.1309    1.4037    0.8414 C   0  0  0  0  0  0  0  0  0  0  0  0
   -0.7783    1.4055    1.7236 H   0  0  0  0  0  0  0  0  0  0  0  0
    0.7989    1.9104    1.1130 H   0  0  0  0  0  0  0  0  0  0  0  0
   -0.7708    2.2271   -0.2737 C   0  0  0  0  0  0  0  0  0  0  0  0
   -0.5045    1.9474   -1.4679 O   0  5  0  0  0  0  0  0  0  0  0  0
   -1.6556    3.0416    0.0808 O   0  0  0  0  0  0  0  0  0  0  0  0
    1.2514   -0.6235    1.3918 C   0  0  0  0  0  0  0  0  0  0  0  0
    2.4111   -0.2300    1.3003 O   0  0  0  0  0  0  0  0  0  0  0  0
    0.9736   -1.5177    2.4082 N   0  0  0  0  0  0  0  0  0  0  0  0
    0.0888   -2.0160    2.2995 H   0  0  0  0  0  0  0  0  0  0  0  0
    1.9961   -2.1208    3.2499 C   0  0  0  0  0  0  0  0  0  0  0  0
    2.5625   -1.3476    3.7788 H   0  0  0  0  0  0  0  0  0  0  0  0
    1.5298   -2.7743    3.9927 H   0  0  0  0  0  0  0  0  0  0  0  0
    2.6869   -2.7167    2.6451 H   0  0  0  0  0  0  0  0  0  0  0  0
  1  2  1  0  0  0  0
  2  3  1  0  0  0  0
  2  4  1  0  0  0  0
  2  5  1  0  0  0  0
  5  6  2  0  0  0  0
  5  7  1  0  0  0  0
  7  8  1  0  0  0  0
  7  9  1  0  0  0  0
  9 10  1  0  0  0  0
  9 11  1  0  0  0  0
  9 17  1  0  0  0  0
 11 12  1  0  0  0  0
 11 13  1  0  0  0  0
 11 14  1  0  0  0  0
 14 15  1  0  0  0  0
 14 16  2  0  0  0  0
 17 18  2  0  0  0  0
 17 19  1  0  0  0  0
 19 20  1  0  0  0  0
 19 21  1  0  0  0  0
 21 22  1  0  0  0  0
 21 23  1  0  0  0  0
 21 24  1  0  0  0  0
M  CHG  1  15  -1
M  END
$$$$

  -OEChem-01062216073D

 24 23  0     1  0  0  0  0  0999 V2000
   -3.2720   -3.2648    0.9636 H   0  0  0  0  0  0  0  0  0  0  0  0
   -2.9815   -2.3151    0.5059 C   0  0  0  0  0  0  0  0  0  0  0  0
   -3.6733   -1.5376    0.8397 H   0  0  0  0  0  0  0  0  0  0  0  0
   -3.0520   -2.4111   -0.5806 H   0  0  0  0  0  0  0  0  0  0  0  0
   -1.5619   -1.9472    0.9017 C   0  0  0  0  0  0  0  0  0  0  0  0
   -0.9433   -2.7374    1.5872 O   0  0  0  0  0  0  0  0  0  0  0  0
   -1.0538   -0.7719    0.3905 N   0  0  0  0  0  0  0  0  0  0  0  0
   -1.6936   -0.3135   -0.2563 H   0  0  0  0  0  0  0  0  0  0  0  0
    0.1987   -0.0025    0.5762 C   0  0  1  0  0  0  0  0  0  0  0  0
    0.8053   -0.1505   -0.3228 H   0  0  0  0  0  0  0  0  0  0  0  0
   -0.3411    1.4507    0.6164 C   0  0  0  0  0  0  0  0  0  0  0  0
   -1.1136    1.5414    1.3857 H   0  0  0  0  0  0  0  0  0  0  0  0
    0.4632    2.1426    0.8767 H   0  0  0  0  0  0  0  0  0  0  0  0
   -0.8859    1.9251   -0.7290 C   0  0  0  0  0  0  0  0  0  0  0  0
   -0.4035    1.4465   -1.7845 O   0  5  0  0  0  0  0  0  0  0  0  0
   -1.9053    2.6538   -0.6854 O   0  0  0  0  0  0  0  0  0  0  0  0
    1.2143   -0.2233    1.7487 C   0  0  0  0  0  0  0  0  0  0  0  0
    2.0872    0.6041    1.9842 O   0  0  0  0  0  0  0  0  0  0  0  0
    1.1642   -1.1201    2.7863 N   0  0  0  0  0  0  0  0  0  0  0  0
    1.5667   -0.6770    3.6047 H   0  0  0  0  0  0  0  0  0  0  0  0
    1.7494   -2.4310    2.5377 C   0  0  0  0  0  0  0  0  0  0  0  0
    2.8137   -2.4198    2.7911 H   0  0  0  0  0  0  0  0  0  0  0  0
    1.2510   -3.1864    3.1527 H   0  0  0  0  0  0  0  0  0  0  0  0
    1.6517   -2.7205    1.4859 H   0  0  0  0  0  0  0  0  0  0  0  0
  1  2  1  0  0  0  0
  2  3  1  0  0  0  0
  2  4  1  0  0  0  0
  2  5  1  0  0  0  0
  5  6  2  0  0  0  0
  5  7  1  0  0  0  0
  7  8  1  0  0  0  0
  7  9  1  0  0  0  0
  9 10  1  0  0  0  0
  9 11  1  0  0  0  0
  9 17  1  0  0  0  0
 11 12  1  0  0  0  0
 11 13  1  0  0  0  0
 11 14  1  0  0  0  0
 14 15  1  0  0  0  0
 14 16  2  0  0  0  0
 17 18  2  0  0  0  0
 17 19  1  0  0  0  0
 19 20  1  0  0  0  0
 19 21  1  0  0  0  0
 21 22  1  0  0  0  0
 21 23  1  0  0  0  0
 21 24  1  0  0  0  0
M  CHG  1  15  -1
M  END
$$$$

  -OEChem-01062216073D

 24 23  0     1  0  0  0  0  0999 V2000
   -2.9459   -3.4646    0.6793 H   0  0  0  0  0  0  0  0  0  0  0  0
   -2.8166   -2.3866    0.5496 C   0  0  0  0  0  0  0  0  0  0  0  0
   -3.2382   -1.8741    1.4180 H   0  0  0  0  0  0  0  0  0  0  0  0
   -3.3573   -2.0715   -0.3465 H   0  0  0  0  0  0  0  0  0  0  0  0
   -1.3440   -2.0426    0.4119 C   0  0  0  0  0  0  0  0  0  0  0  0
   -0.5416   -2.9568    0.3509 O   0  0  0  0  0  0  0  0  0  0  0  0
   -1.0125   -0.7224    0.1988 N   0  0  0  0  0  0  0  0  0  0  0  0
   -1.8209   -0.1172    0.0660 H   0  0  0  0  0  0  0  0  0  0  0  0
    0.2604    0.0305    0.2696 C   0  0  1  0  0  0  0  0  0  0  0  0
    0.5617    0.2672   -0.7562 H   0  0  0  0  0  0  0  0  0  0  0  0
   -0.1776    1.3135    1.0162 C   0  0  0  0  0  0  0  0  0  0  0  0
   -0.6619    1.0493    1.9611 H   0  0  0  0  0  0  0  0  0  0  0  0
    0.7021    1.9163    1.2566 H   0  0  0  0  0  0  0  0  0  0  0  0
   -1.0991    2.2114    0.1952 C   0  0  0  0  0  0  0  0  0  0  0  0
   -1.0033    2.2093   -1.0554 O   0  5  0  0  0  0  0  0  0  0  0  0
   -2.0183    2.7771    0.8336 O   0  0  0  0  0  0  0  0  0  0  0  0
    1.5648   -0.4884    0.9609 C   0  0  0  0  0  0  0  0  0  0  0  0
    2.5917    0.1732    0.8671 O   0  0  0  0  0  0  0  0  0  0  0  0
    1.9023   -1.7532    1.3739 N   0  0  0  0  0  0  0  0  0  0  0  0
    2.9121   -1.8460    1.3800 H   0  0  0  0  0  0  0  0  0  0  0  0
    1.2462   -2.2942    2.5560 C   0  0  0  0  0  0  0  0  0  0  0  0
    0.2592   -1.8462    2.7082 H   0  0  0  0  0  0  0  0  0  0  0  0
    1.1251   -3.3771    2.4563 H   0  0  0  0  0  0  0  0  0  0  0  0
    1.8515   -2.0900    3.4443 H   0  0  0  0  0  0  0  0  0  0  0  0
  1  2  1  0  0  0  0
  2  3  1  0  0  0  0
  2  4  1  0  0  0  0
  2  5  1  0  0  0  0
  5  6  2  0  0  0  0
  5  7  1  0  0  0  0
  7  8  1  0  0  0  0
  7  9  1  0  0  0  0
  9 10  1  0  0  0  0
  9 11  1  0  0  0  0
  9 17  1  0  0  0  0
 11 12  1  0  0  0  0
 11 13  1  0  0  0  0
 11 14  1  0  0  0  0
 14 15  1  0  0  0  0
 14 16  2  0  0  0  0
 17 18  2  0  0  0  0
 17 19  1  0  0  0  0
 19 20  1  0  0  0  0
 19 21  1  0  0  0  0
 21 22  1  0  0  0  0
 21 23  1  0  0  0  0
 21 24  1  0  0  0  0
M  CHG  1  15  -1
M  END
$$$$

  -OEChem-01062216073D

 24 23  0     1  0  0  0  0  0999 V2000
   -3.5571   -2.9971    0.7363 H   0  0  0  0  0  0  0  0  0  0  0  0
   -3.2280   -2.0028    0.4217 C   0  0  0  0  0  0  0  0  0  0  0  0
   -3.7699   -1.2524    1.0032 H   0  0  0  0  0  0  0  0  0  0  0  0
   -3.4657   -1.8713   -0.6371 H   0  0  0  0  0  0  0  0  0  0  0  0
   -1.7332   -1.8450    0.6395 C   0  0  0  0  0  0  0  0  0  0  0  0
   -1.1084   -2.8061    1.0539 O   0  0  0  0  0  0  0  0  0  0  0  0
   -1.1682   -0.6322    0.3031 N   0  0  0  0  0  0  0  0  0  0  0  0
   -1.8342    0.0158   -0.1166 H   0  0  0  0  0  0  0  0  0  0  0  0
    0.1950   -0.0536    0.3912 C   0  0  1  0  0  0  0  0  0  0  0  0
    0.6169   -0.0509   -0.6188 H   0  0  0  0  0  0  0  0  0  0  0  0
   -0.1169    1.3999    0.8321 C   0  0  0  0  0  0  0  0  0  0  0  0
   -0.7250    1.3940    1.7416 H   0  0  0  0  0  0  0  0  0  0  0  0
    0.8104    1.9302    1.0605 H   0  0  0  0  0  0  0  0  0  0  0  0
   -0.8103    2.2151   -0.2576 C   0  0  0  0  0  0  0  0  0  0  0  0
   -0.5861    1.9361   -1.4610 O   0  5  0  0  0  0  0  0  0  0  0  0
   -1.7024    3.0067    0.1285 O   0  0  0  0  0  0  0  0  0  0  0  0
    1.3331   -0.6818    1.2649 C   0  0  0  0  0  0  0  0  0  0  0  0
    2.2529    0.0155    1.6854 O   0  0  0  0  0  0  0  0  0  0  0  0
    1.4392   -2.0316    1.5376 N   0  0  0  0  0  0  0  0  0  0  0  0
    0.6233   -2.5954    1.2936 H   0  0  0  0  0  0  0  0  0  0  0  0
    2.4611   -2.6229    2.3890 C   0  0  0  0  0  0  0  0  0  0  0  0
    2.4084   -2.2030    3.3985 H   0  0  0  0  0  0  0  0  0  0  0  0
    2.3114   -3.7046    2.4546 H   0  0  0  0  0  0  0  0  0  0  0  0
    3.4583   -2.4369    1.9775 H   0  0  0  0  0  0  0  0  0  0  0  0
  1  2  1  0  0  0  0
  2  3  1  0  0  0  0
  2  4  1  0  0  0  0
  2  5  1  0  0  0  0
  5  6  2  0  0  0  0
  5  7  1  0  0  0  0
  7  8  1  0  0  0  0
  7  9  1  0  0  0  0
  9 10  1  0  0  0  0
  9 11  1  0  0  0  0
  9 17  1  0  0  0  0
 11 12  1  0  0  0  0
 11 13  1  0  0  0  0
 11 14  1  0  0  0  0
 14 15  1  0  0  0  0
 14 16  2  0  0  0  0
 17 18  2  0  0  0  0
 17 19  1  0  0  0  0
 19 20  1  0  0  0  0
 19 21  1  0  0  0  0
 21 22  1  0  0  0  0
 21 23  1  0  0  0  0
 21 24  1  0  0  0  0
M  CHG  1  15  -1
M  END
$$$$

  -OEChem-01062216073D

 24 23  0     1  0  0  0  0  0999 V2000
   -3.4442   -3.0520    0.8254 H   0  0  0  0  0  0  0  0  0  0  0  0
   -3.1563   -2.0510    0.4920 C   0  0  0  0  0  0  0  0  0  0  0  0
   -3.7022   -1.3122    1.0845 H   0  0  0  0  0  0  0  0  0  0  0  0
   -3.4316   -1.9364   -0.5596 H   0  0  0  0  0  0  0  0  0  0  0  0
   -1.6610   -1.8456    0.6604 C   0  0  0  0  0  0  0  0  0  0  0  0
   -0.9866   -2.7892    1.0363 O   0  0  0  0  0  0  0  0  0  0  0  0
   -1.1424   -0.6150    0.3150 N   0  0  0  0  0  0  0  0  0  0  0  0
   -1.8351    0.0248   -0.0723 H   0  0  0  0  0  0  0  0  0  0  0  0
    0.2115   -0.0166    0.3839 C   0  0  1  0  0  0  0  0  0  0  0  0
    0.6244   -0.0139   -0.6299 H   0  0  0  0  0  0  0  0  0  0  0  0
   -0.0963    1.4384    0.8184 C   0  0  0  0  0  0  0  0  0  0  0  0
   -0.6897    1.4387    1.7376 H   0  0  0  0  0  0  0  0  0  0  0  0
    0.8354    1.9700    1.0262 H   0  0  0  0  0  0  0  0  0  0  0  0
   -0.8072    2.2433   -0.2676 C   0  0  0  0  0  0  0  0  0  0  0  0
   -0.5988    1.9543   -1.4717 O   0  5  0  0  0  0  0  0  0  0  0  0
   -1.6933    3.0390    0.1238 O   0  0  0  0  0  0  0  0  0  0  0  0
    1.3477   -0.6613    1.2448 C   0  0  0  0  0  0  0  0  0  0  0  0
    2.1311    0.0308    1.8904 O   0  0  0  0  0  0  0  0  0  0  0  0
    1.6013   -2.0196    1.2346 N   0  0  0  0  0  0  0  0  0  0  0  0
    0.8131   -2.5882    0.9175 H   0  0  0  0  0  0  0  0  0  0  0  0
    2.5998   -2.6581    2.0796 C   0  0  0  0  0  0  0  0  0  0  0  0
    2.3731   -2.4865    3.1366 H   0  0  0  0  0  0  0  0  0  0  0  0
    2.6090   -3.7364    1.8960 H   0  0  0  0  0  0  0  0  0  0  0  0
    3.5970   -2.2630    1.8611 H   0  0  0  0  0  0  0  0  0  0  0  0
  1  2  1  0  0  0  0
  2  3  1  0  0  0  0
  2  4  1  0  0  0  0
  2  5  1  0  0  0  0
  5  6  2  0  0  0  0
  5  7  1  0  0  0  0
  7  8  1  0  0  0  0
  7  9  1  0  0  0  0
  9 10  1  0  0  0  0
  9 11  1  0  0  0  0
  9 17  1  0  0  0  0
 11 12  1  0  0  0  0
 11 13  1  0  0  0  0
 11 14  1  0  0  0  0
 14 15  1  0  0  0  0
 14 16  2  0  0  0  0
 17 18  2  0  0  0  0
 17 19  1  0  0  0  0
 19 20  1  0  0  0  0
 19 21  1  0  0  0  0
 21 22  1  0  0  0  0
 21 23  1  0  0  0  0
 21 24  1  0  0  0  0
M  CHG  1  15  -1
M  END
$$$$

  -OEChem-01062216073D

 24 23  0     1  0  0  0  0  0999 V2000
   -3.2960   -3.1222    0.9189 H   0  0  0  0  0  0  0  0  0  0  0  0
   -3.0664   -2.1130    0.5660 C   0  0  0  0  0  0  0  0  0  0  0  0
   -3.6093   -1.3928    1.1837 H   0  0  0  0  0  0  0  0  0  0  0  0
   -3.4005   -2.0161   -0.4703 H   0  0  0  0  0  0  0  0  0  0  0  0
   -1.5738   -1.8485    0.6546 C   0  0  0  0  0  0  0  0  0  0  0  0
   -0.8358   -2.7703    0.9612 O   0  0  0  0  0  0  0  0  0  0  0  0
   -1.1143   -0.5988    0.2962 N   0  0  0  0  0  0  0  0  0  0  0  0
   -1.8360    0.0330   -0.0474 H   0  0  0  0  0  0  0  0  0  0  0  0
    0.2256    0.0233    0.3705 C   0  0  1  0  0  0  0  0  0  0  0  0
    0.6518    0.0279   -0.6378 H   0  0  0  0  0  0  0  0  0  0  0  0
   -0.0835    1.4776    0.8006 C   0  0  0  0  0  0  0  0  0  0  0  0
   -0.6789    1.4790    1.7185 H   0  0  0  0  0  0  0  0  0  0  0  0
    0.8512    2.0041    1.0098 H   0  0  0  0  0  0  0  0  0  0  0  0
   -0.7944    2.2796   -0.2871 C   0  0  0  0  0  0  0  0  0  0  0  0
   -0.5848    1.9878   -1.4904 O   0  5  0  0  0  0  0  0  0  0  0  0
   -1.6743    3.0839    0.1013 O   0  0  0  0  0  0  0  0  0  0  0  0
    1.3338   -0.6341    1.2520 C   0  0  0  0  0  0  0  0  0  0  0  0
    1.9452    0.0010    2.1082 O   0  0  0  0  0  0  0  0  0  0  0  0
    1.7604   -1.9248    0.9991 N   0  0  0  0  0  0  0  0  0  0  0  0
    1.0315   -2.5043    0.5775 H   0  0  0  0  0  0  0  0  0  0  0  0
    2.7502   -2.6019    1.8239 C   0  0  0  0  0  0  0  0  0  0  0  0
    2.3921   -2.6907    2.8544 H   0  0  0  0  0  0  0  0  0  0  0  0
    2.9391   -3.6055    1.4323 H   0  0  0  0  0  0  0  0  0  0  0  0
    3.6949   -2.0485    1.8222 H   0  0  0  0  0  0  0  0  0  0  0  0
  1  2  1  0  0  0  0
  2  3  1  0  0  0  0
  2  4  1  0  0  0  0
  2  5  1  0  0  0  0
  5  6  2  0  0  0  0
  5  7  1  0  0  0  0
  7  8  1  0  0  0  0
  7  9  1  0  0  0  0
  9 10  1  0  0  0  0
  9 11  1  0  0  0  0
  9 17  1  0  0  0  0
 11 12  1  0  0  0  0
 11 13  1  0  0  0  0
 11 14  1  0  0  0  0
 14 15  1  0  0  0  0
 14 16  2  0  0  0  0
 17 18  2  0  0  0  0
 17 19  1  0  0  0  0
 19 20  1  0  0  0  0
 19 21  1  0  0  0  0
 21 22  1  0  0  0  0
 21 23  1  0  0  0  0
 21 24  1  0  0  0  0
M  CHG  1  15  -1
M  END
$$$$

  -OEChem-01062216073D

 24 23  0     1  0  0  0  0  0999 V2000
   -3.1477   -3.1851    0.9902 H   0  0  0  0  0  0  0  0  0  0  0  0
   -2.9762   -2.1659    0.6332 C   0  0  0  0  0  0  0  0  0  0  0  0
   -3.5051   -1.4699    1.2895 H   0  0  0  0  0  0  0  0  0  0  0  0
   -3.3761   -2.0732   -0.3797 H   0  0  0  0  0  0  0  0  0  0  0  0
   -1.4911   -1.8496    0.6346 C   0  0  0  0  0  0  0  0  0  0  0  0
   -0.6968   -2.7468    0.8685 O   0  0  0  0  0  0  0  0  0  0  0  0
   -1.0901   -0.5846    0.2619 N   0  0  0  0  0  0  0  0  0  0  0  0
   -1.8401    0.0411   -0.0265 H   0  0  0  0  0  0  0  0  0  0  0  0
    0.2353    0.0590    0.3493 C   0  0  1  0  0  0  0  0  0  0  0  0
    0.6795    0.0720   -0.6511 H   0  0  0  0  0  0  0  0  0  0  0  0
   -0.0789    1.5087    0.7843 C   0  0  0  0  0  0  0  0  0  0  0  0
   -0.6810    1.5034    1.6979 H   0  0  0  0  0  0  0  0  0  0  0  0
    0.8561    2.0302    1.0049 H   0  0  0  0  0  0  0  0  0  0  0  0
   -0.7874    2.3149   -0.3016 C   0  0  0  0  0  0  0  0  0  0  0  0
   -0.5720    2.0296   -1.5054 O   0  5  0  0  0  0  0  0  0  0  0  0
   -1.6634    3.1232    0.0871 O   0  0  0  0  0  0  0  0  0  0  0  0
    1.3095   -0.6088    1.2586 C   0  0  0  0  0  0  0  0  0  0  0  0
    1.7148   -0.0788    2.2910 O   0  0  0  0  0  0  0  0  0  0  0  0
    1.9418   -1.7611    0.8271 N   0  0  0  0  0  0  0  0  0  0  0  0
    1.3446   -2.3288    0.2267 H   0  0  0  0  0  0  0  0  0  0  0  0
    2.9121   -2.4693    1.6493 C   0  0  0  0  0  0  0  0  0  0  0  0
    2.4466   -2.8148    2.5779 H   0  0  0  0  0  0  0  0  0  0  0  0
    3.2966   -3.3385    1.1078 H   0  0  0  0  0  0  0  0  0  0  0  0
    3.7561   -1.8173    1.8962 H   0  0  0  0  0  0  0  0  0  0  0  0
  1  2  1  0  0  0  0
  2  3  1  0  0  0  0
  2  4  1  0  0  0  0
  2  5  1  0  0  0  0
  5  6  2  0  0  0  0
  5  7  1  0  0  0  0
  7  8  1  0  0  0  0
  7  9  1  0  0  0  0
  9 10  1  0  0  0  0
  9 11  1  0  0  0  0
  9 17  1  0  0  0  0
 11 12  1  0  0  0  0
 11 13  1  0  0  0  0
 11 14  1  0  0  0  0
 14 15  1  0  0  0  0
 14 16  2  0  0  0  0
 17 18  2  0  0  0  0
 17 19  1  0  0  0  0
 19 20  1  0  0  0  0
 19 21  1  0  0  0  0
 21 22  1  0  0  0  0
 21 23  1  0  0  0  0
 21 24  1  0  0  0  0
M  CHG  1  15  -1
M  END
$$$$

  -OEChem-01062216073D

 24 23  0     1  0  0  0  0  0999 V2000
   -3.0449   -3.2309    1.0473 H   0  0  0  0  0  0  0  0  0  0  0  0
   -2.9138   -2.2094    0.6794 C   0  0  0  0  0  0  0  0  0  0  0  0
   -3.4424   -1.5247    1.3476 H   0  0  0  0  0  0  0  0  0  0  0  0
   -3.3466   -2.1348   -0.3215 H   0  0  0  0  0  0  0  0  0  0  0  0
   -1.4390   -1.8509    0.6340 C   0  0  0  0  0  0  0  0  0  0  0  0
   -0.6102   -2.7244    0.8380 O   0  0  0  0  0  0  0  0  0  0  0  0
   -1.0824   -0.5770    0.2453 N   0  0  0  0  0  0  0  0  0  0  0  0
   -1.8524    0.0391   -0.0069 H   0  0  0  0  0  0  0  0  0  0  0  0
    0.2323    0.0833    0.3364 C   0  0  1  0  0  0  0  0  0  0  0  0
    0.6826    0.0978   -0.6611 H   0  0  0  0  0  0  0  0  0  0  0  0
   -0.0758    1.5324    0.7719 C   0  0  0  0  0  0  0  0  0  0  0  0
   -0.6790    1.5283    1.6847 H   0  0  0  0  0  0  0  0  0  0  0  0
    0.8628    2.0458    0.9959 H   0  0  0  0  0  0  0  0  0  0  0  0
   -0.7835    2.3415   -0.3121 C   0  0  0  0  0  0  0  0  0  0  0  0
   -0.5701    2.0548   -1.5163 O   0  5  0  0  0  0  0  0  0  0  0  0
   -1.6437    3.1664    0.0765 O   0  0  0  0  0  0  0  0  0  0  0  0
    1.2895   -0.5829    1.2613 C   0  0  0  0  0  0  0  0  0  0  0  0
    1.4731   -0.2092    2.4179 O   0  0  0  0  0  0  0  0  0  0  0  0
    2.1426   -1.5342    0.7298 N   0  0  0  0  0  0  0  0  0  0  0  0
    1.7740   -1.9974   -0.0961 H   0  0  0  0  0  0  0  0  0  0  0  0
    3.0882   -2.2754    1.5507 C   0  0  0  0  0  0  0  0  0  0  0  0
    2.5571   -2.8653    2.3047 H   0  0  0  0  0  0  0  0  0  0  0  0
    3.6753   -2.9541    0.9252 H   0  0  0  0  0  0  0  0  0  0  0  0
    3.7773   -1.5912    2.0560 H   0  0  0  0  0  0  0  0  0  0  0  0
  1  2  1  0  0  0  0
  2  3  1  0  0  0  0
  2  4  1  0  0  0  0
  2  5  1  0  0  0  0
  5  6  2  0  0  0  0
  5  7  1  0  0  0  0
  7  8  1  0  0  0  0
  7  9  1  0  0  0  0
  9 10  1  0  0  0  0
  9 11  1  0  0  0  0
  9 17  1  0  0  0  0
 11 12  1  0  0  0  0
 11 13  1  0  0  0  0
 11 14  1  0  0  0  0
 14 15  1  0  0  0  0
 14 16  2  0  0  0  0
 17 18  2  0  0  0  0
 17 19  1  0  0  0  0
 19 20  1  0  0  0  0
 19 21  1  0  0  0  0
 21 22  1  0  0  0  0
 21 23  1  0  0  0  0
 21 24  1  0  0  0  0
M  CHG  1  15  -1
M  END
$$$$

  -OEChem-01062216073D

 24 23  0     1  0  0  0  0  0999 V2000
   -3.0052   -3.2483    1.0761 H   0  0  0  0  0  0  0  0  0  0  0  0
   -2.8910   -2.2273    0.7020 C   0  0  0  0  0  0  0  0  0  0  0  0
   -3.4092   -1.5444    1.3800 H   0  0  0  0  0  0  0  0  0  0  0  0
   -3.3466   -2.1592   -0.2890 H   0  0  0  0  0  0  0  0  0  0  0  0
   -1.4207   -1.8573    0.6222 C   0  0  0  0  0  0  0  0  0  0  0  0
   -0.5793   -2.7253    0.7993 O   0  0  0  0  0  0  0  0  0  0  0  0
   -1.0832   -0.5804    0.2255 N   0  0  0  0  0  0  0  0  0  0  0  0
   -1.8627    0.0355    0.0062 H   0  0  0  0  0  0  0  0  0  0  0  0
    0.2259    0.0865    0.3286 C   0  0  1  0  0  0  0  0  0  0  0  0
    0.6836    0.1023   -0.6654 H   0  0  0  0  0  0  0  0  0  0  0  0
   -0.0794    1.5337    0.7674 C   0  0  0  0  0  0  0  0  0  0  0  0
   -0.6901    1.5266    1.6753 H   0  0  0  0  0  0  0  0  0  0  0  0
    0.8595    2.0416    1.0019 H   0  0  0  0  0  0  0  0  0  0  0  0
   -0.7787    2.3489   -0.3175 C   0  0  0  0  0  0  0  0  0  0  0  0
   -0.5595    2.0656   -1.5214 O   0  5  0  0  0  0  0  0  0  0  0  0
   -1.6302    3.1836    0.0693 O   0  0  0  0  0  0  0  0  0  0  0  0
    1.2697   -0.5733    1.2697 C   0  0  0  0  0  0  0  0  0  0  0  0
    1.2583   -0.3823    2.4839 O   0  0  0  0  0  0  0  0  0  0  0  0
    2.3249   -1.2780    0.7167 N   0  0  0  0  0  0  0  0  0  0  0  0
    2.1906   -1.5656   -0.2474 H   0  0  0  0  0  0  0  0  0  0  0  0
    3.2857   -2.0126    1.5254 C   0  0  0  0  0  0  0  0  0  0  0  0
    2.7776   -2.7807    2.1175 H   0  0  0  0  0  0  0  0  0  0  0  0
    4.0224   -2.4999    0.8805 H   0  0  0  0  0  0  0  0  0  0  0  0
    3.8153   -1.3348    2.2023 H   0  0  0  0  0  0  0  0  0  0  0  0
  1  2  1  0  0  0  0
  2  3  1  0  0  0  0
  2  4  1  0  0  0  0
  2  5  1  0  0  0  0
  5  6  2  0  0  0  0
  5  7  1  0  0  0  0
  7  8  1  0  0  0  0
  7  9  1  0  0  0  0
  9 10  1  0  0  0  0
  9 11  1  0  0  0  0
  9 17  1  0  0  0  0
 11 12  1  0  0  0  0
 11 13  1  0  0  0  0
 11 14  1  0  0  0  0
 14 15  1  0  0  0  0
 14 16  2  0  0  0  0
 17 18  2  0  0  0  0
 17 19  1  0  0  0  0
 19 20  1  0  0  0  0
 19 21  1  0  0  0  0
 21 22  1  0  0  0  0
 21 23  1  0  0  0  0
 21 24  1  0  0  0  0
M  CHG  1  15  -1
M  END
$$$$

  -OEChem-01062216073D

 24 23  0     1  0  0  0  0  0999 V2000
   -3.0032   -3.2650    1.0697 H   0  0  0  0  0  0  0  0  0  0  0  0
   -2.8959   -2.2347    0.7197 C   0  0  0  0  0  0  0  0  0  0  0  0
   -3.3828   -1.5677    1.4356 H   0  0  0  0  0  0  0  0  0  0  0  0
   -3.3883   -2.1366   -0.2511 H   0  0  0  0  0  0  0  0  0  0  0  0
   -1.4269   -1.8721    0.5942 C   0  0  0  0  0  0  0  0  0  0  0  0
   -0.5851   -2.7492    0.7176 O   0  0  0  0  0  0  0  0  0  0  0  0
   -1.0938   -0.5939    0.1980 N   0  0  0  0  0  0  0  0  0  0  0  0
   -1.8763    0.0300    0.0183 H   0  0  0  0  0  0  0  0  0  0  0  0
    0.2149    0.0696    0.3205 C   0  0  1  0  0  0  0  0  0  0  0  0
    0.6811    0.0827   -0.6695 H   0  0  0  0  0  0  0  0  0  0  0  0
   -0.0781    1.5175    0.7634 C   0  0  0  0  0  0  0  0  0  0  0  0
   -0.6974    1.5118    1.6652 H   0  0  0  0  0  0  0  0  0  0  0  0
    0.8641    2.0132    1.0103 H   0  0  0  0  0  0  0  0  0  0  0  0
   -0.7572    2.3494   -0.3211 C   0  0  0  0  0  0  0  0  0  0  0  0
   -0.5304    2.0723   -1.5248 O   0  5  0  0  0  0  0  0  0  0  0  0
   -1.5897    3.2033    0.0648 O   0  0  0  0  0  0  0  0  0  0  0  0
    1.2464   -0.5872    1.2753 C   0  0  0  0  0  0  0  0  0  0  0  0
    1.0841   -0.5875    2.4936 O   0  0  0  0  0  0  0  0  0  0  0  0
    2.4605   -1.0171    0.7679 N   0  0  0  0  0  0  0  0  0  0  0  0
    2.5192   -1.0903   -0.2425 H   0  0  0  0  0  0  0  0  0  0  0  0
    3.4652   -1.6886    1.5783 C   0  0  0  0  0  0  0  0  0  0  0  0
    3.0571   -2.6119    2.0022 H   0  0  0  0  0  0  0  0  0  0  0  0
    4.3347   -1.9415    0.9647 H   0  0  0  0  0  0  0  0  0  0  0  0
    3.7963   -1.0385    2.3944 H   0  0  0  0  0  0  0  0  0  0  0  0
  1  2  1  0  0  0  0
  2  3  1  0  0  0  0
  2  4  1  0  0  0  0
  2  5  1  0  0  0  0
  5  6  2  0  0  0  0
  5  7  1  0  0  0  0
  7  8  1  0  0  0  0
  7  9  1  0  0  0  0
  9 10  1  0  0  0  0
  9 11  1  0  0  0  0
  9 17  1  0  0  0  0
 11 12  1  0  0  0  0
 11 13  1  0  0  0  0
 11 14  1  0  0  0  0
 14 15  1  0  0  0  0
 14 16  2  0  0  0  0
 17 18  2  0  0  0  0
 17 19  1  0  0  0  0
 19 20  1  0  0  0  0
 19 21  1  0  0  0  0
 21 22  1  0  0  0  0
 21 23  1  0  0  0  0
 21 24  1  0  0  0  0
M  CHG  1  15  -1
M  END
$$$$

  -OEChem-01062216073D

 24 23  0     1  0  0  0  0  0999 V2000
   -3.0268   -3.2785    1.0286 H   0  0  0  0  0  0  0  0  0  0  0  0
   -2.9152   -2.2320    0.7322 C   0  0  0  0  0  0  0  0  0  0  0  0
   -3.3489   -1.5982    1.5097 H   0  0  0  0  0  0  0  0  0  0  0  0
   -3.4554   -2.0695   -0.2038 H   0  0  0  0  0  0  0  0  0  0  0  0
   -1.4469   -1.8910    0.5496 C   0  0  0  0  0  0  0  0  0  0  0  0
   -0.6167   -2.7861    0.6039 O   0  0  0  0  0  0  0  0  0  0  0  0
   -1.1057   -0.6121    0.1624 N   0  0  0  0  0  0  0  0  0  0  0  0
   -1.8848    0.0269    0.0298 H   0  0  0  0  0  0  0  0  0  0  0  0
    0.2085    0.0361    0.3091 C   0  0  1  0  0  0  0  0  0  0  0  0
    0.6841    0.0490   -0.6764 H   0  0  0  0  0  0  0  0  0  0  0  0
   -0.0682    1.4828    0.7645 C   0  0  0  0  0  0  0  0  0  0  0  0
   -0.6986    1.4751    1.6587 H   0  0  0  0  0  0  0  0  0  0  0  0
    0.8779    1.9620    1.0290 H   0  0  0  0  0  0  0  0  0  0  0  0
   -0.7217    2.3389   -0.3165 C   0  0  0  0  0  0  0  0  0  0  0  0
   -0.4854    2.0742   -1.5210 O   0  5  0  0  0  0  0  0  0  0  0  0
   -1.5385    3.2066    0.0721 O   0  0  0  0  0  0  0  0  0  0  0  0
    1.2279   -0.6265    1.2723 C   0  0  0  0  0  0  0  0  0  0  0  0
    0.9629   -0.8144    2.4577 O   0  0  0  0  0  0  0  0  0  0  0  0
    2.5422   -0.7721    0.8620 N   0  0  0  0  0  0  0  0  0  0  0  0
    2.7342   -0.6015   -0.1199 H   0  0  0  0  0  0  0  0  0  0  0  0
    3.5922   -1.3225    1.7056 C   0  0  0  0  0  0  0  0  0  0  0  0
    3.3391   -2.3427    2.0123 H   0  0  0  0  0  0  0  0  0  0  0  0
    4.5384   -1.3490    1.1574 H   0  0  0  0  0  0  0  0  0  0  0  0
    3.7277   -0.7058    2.6001 H   0  0  0  0  0  0  0  0  0  0  0  0
  1  2  1  0  0  0  0
  2  3  1  0  0  0  0
  2  4  1  0  0  0  0
  2  5  1  0  0  0  0
  5  6  2  0  0  0  0
  5  7  1  0  0  0  0
  7  8  1  0  0  0  0
  7  9  1  0  0  0  0
  9 10  1  0  0  0  0
  9 11  1  0  0  0  0
  9 17  1  0  0  0  0
 11 12  1  0  0  0  0
 11 13  1  0  0  0  0
 11 14  1  0  0  0  0
 14 15  1  0  0  0  0
 14 16  2  0  0  0  0
 17 18  2  0  0  0  0
 17 19  1  0  0  0  0
 19 20  1  0  0  0  0
 19 21  1  0  0  0  0
 21 22  1  0  0  0  0
 21 23  1  0  0  0  0
 21 24  1  0  0  0  0
M  CHG  1  15  -1
M  END
$$$$

  -OEChem-01062216073D

 24 23  0     1  0  0  0  0  0999 V2000
   -3.0561   -3.2684    1.0274 H   0  0  0  0  0  0  0  0  0  0  0  0
   -2.9336   -2.2195    0.7436 C   0  0  0  0  0  0  0  0  0  0  0  0
   -3.3084   -1.5902    1.5547 H   0  0  0  0  0  0  0  0  0  0  0  0
   -3.5176   -2.0254   -0.1594 H   0  0  0  0  0  0  0  0  0  0  0  0
   -1.4688   -1.9120    0.4893 C   0  0  0  0  0  0  0  0  0  0  0  0
   -0.6636   -2.8307    0.4539 O   0  0  0  0  0  0  0  0  0  0  0  0
   -1.1120   -0.6322    0.1205 N   0  0  0  0  0  0  0  0  0  0  0  0
   -1.8826    0.0257    0.0421 H   0  0  0  0  0  0  0  0  0  0  0  0
    0.2128   -0.0103    0.2861 C   0  0  1  0  0  0  0  0  0  0  0  0
    0.6922    0.0129   -0.6975 H   0  0  0  0  0  0  0  0  0  0  0  0
   -0.0447    1.4298    0.7739 C   0  0  0  0  0  0  0  0  0  0  0  0
   -0.6790    1.4087    1.6651 H   0  0  0  0  0  0  0  0  0  0  0  0
    0.9060    1.8901    1.0546 H   0  0  0  0  0  0  0  0  0  0  0  0
   -0.6801    2.3245   -0.2854 C   0  0  0  0  0  0  0  0  0  0  0  0
   -0.4436    2.0884   -1.4953 O   0  5  0  0  0  0  0  0  0  0  0  0
   -1.4774    3.1999    0.1252 O   0  0  0  0  0  0  0  0  0  0  0  0
    1.2264   -0.6914    1.2430 C   0  0  0  0  0  0  0  0  0  0  0  0
    0.9037   -1.0618    2.3698 O   0  0  0  0  0  0  0  0  0  0  0  0
    2.5778   -0.5620    0.9693 N   0  0  0  0  0  0  0  0  0  0  0  0
    2.8255   -0.1250    0.0871 H   0  0  0  0  0  0  0  0  0  0  0  0
    3.6330   -0.9437    1.8959 C   0  0  0  0  0  0  0  0  0  0  0  0
    3.5400   -2.0003    2.1672 H   0  0  0  0  0  0  0  0  0  0  0  0
    4.6122   -0.7906    1.4332 H   0  0  0  0  0  0  0  0  0  0  0  0
    3.5797   -0.3373    2.8058 H   0  0  0  0  0  0  0  0  0  0  0  0
  1  2  1  0  0  0  0
  2  3  1  0  0  0  0
  2  4  1  0  0  0  0
  2  5  1  0  0  0  0
  5  6  2  0  0  0  0
  5  7  1  0  0  0  0
  7  8  1  0  0  0  0
  7  9  1  0  0  0  0
  9 10  1  0  0  0  0
  9 11  1  0  0  0  0
  9 17  1  0  0  0  0
 11 12  1  0  0  0  0
 11 13  1  0  0  0  0
 11 14  1  0  0  0  0
 14 15  1  0  0  0  0
 14 16  2  0  0  0  0
 17 18  2  0  0  0  0
 17 19  1  0  0  0  0
 19 20  1  0  0  0  0
 19 21  1  0  0  0  0
 21 22  1  0  0  0  0
 21 23  1  0  0  0  0
 21 24  1  0  0  0  0
M  CHG  1  15  -1
M  END
$$$$

  -OEChem-01062216073D

 24 23  0     1  0  0  0  0  0999 V2000
   -3.0569   -3.2522    1.0506 H   0  0  0  0  0  0  0  0  0  0  0  0
   -2.9289   -2.2047    0.7646 C   0  0  0  0  0  0  0  0  0  0  0  0
   -3.2556   -1.5719    1.5937 H   0  0  0  0  0  0  0  0  0  0  0  0
   -3.5493   -1.9970   -0.1107 H   0  0  0  0  0  0  0  0  0  0  0  0
   -1.4716   -1.9228    0.4456 C   0  0  0  0  0  0  0  0  0  0  0  0
   -0.6957   -2.8589    0.3220 O   0  0  0  0  0  0  0  0  0  0  0  0
   -1.1019   -0.6430    0.0906 N   0  0  0  0  0  0  0  0  0  0  0  0
   -1.8654    0.0262    0.0570 H   0  0  0  0  0  0  0  0  0  0  0  0
    0.2301   -0.0366    0.2656 C   0  0  1  0  0  0  0  0  0  0  0  0
    0.7095   -0.0005   -0.7179 H   0  0  0  0  0  0  0  0  0  0  0  0
   -0.0329    1.3963    0.7785 C   0  0  0  0  0  0  0  0  0  0  0  0
   -0.6694    1.3571    1.6676 H   0  0  0  0  0  0  0  0  0  0  0  0
    0.9128    1.8592    1.0707 H   0  0  0  0  0  0  0  0  0  0  0  0
   -0.6670    2.3107   -0.2644 C   0  0  0  0  0  0  0  0  0  0  0  0
   -0.4275    2.1000   -1.4778 O   0  5  0  0  0  0  0  0  0  0  0  0
   -1.4635    3.1785    0.1635 O   0  0  0  0  0  0  0  0  0  0  0  0
    1.2513   -0.7218    1.2148 C   0  0  0  0  0  0  0  0  0  0  0  0
    0.9081   -1.2797    2.2543 O   0  0  0  0  0  0  0  0  0  0  0  0
    2.5785   -0.3347    1.1210 N   0  0  0  0  0  0  0  0  0  0  0  0
    2.8123    0.2987    0.3624 H   0  0  0  0  0  0  0  0  0  0  0  0
    3.5856   -0.6336    2.1289 C   0  0  0  0  0  0  0  0  0  0  0  0
    3.6386   -1.7121    2.3090 H   0  0  0  0  0  0  0  0  0  0  0  0
    4.5680   -0.2921    1.7903 H   0  0  0  0  0  0  0  0  0  0  0  0
    3.3457   -0.1277    3.0696 H   0  0  0  0  0  0  0  0  0  0  0  0
  1  2  1  0  0  0  0
  2  3  1  0  0  0  0
  2  4  1  0  0  0  0
  2  5  1  0  0  0  0
  5  6  2  0  0  0  0
  5  7  1  0  0  0  0
  7  8  1  0  0  0  0
  7  9  1  0  0  0  0
  9 10  1  0  0  0  0
  9 11  1  0  0  0  0
  9 17  1  0  0  0  0
 11 12  1  0  0  0  0
 11 13  1  0  0  0  0
 11 14  1  0  0  0  0
 14 15  1  0  0  0  0
 14 16  2  0  0  0  0
 17 18  2  0  0  0  0
 17 19  1  0  0  0  0
 19 20  1  0  0  0  0
 19 21  1  0  0  0  0
 21 22  1  0  0  0  0
 21 23  1  0  0  0  0
 21 24  1  0  0  0  0
M  CHG  1  15  -1
M  END
$$$$

  -OEChem-01062216073D

 24 23  0     1  0  0  0  0  0999 V2000
   -3.2278   -3.2681    0.8836 H   0  0  0  0  0  0  0  0  0  0  0  0
   -2.9415   -2.3320    0.3962 C   0  0  0  0  0  0  0  0  0  0  0  0
   -3.7658   -1.6201    0.4851 H   0  0  0  0  0  0  0  0  0  0  0  0
   -2.7522   -2.5303   -0.6615 H   0  0  0  0  0  0  0  0  0  0  0  0
   -1.6924   -1.7618    1.0454 C   0  0  0  0  0  0  0  0  0  0  0  0
   -1.2968   -2.2678    2.0815 O   0  0  0  0  0  0  0  0  0  0  0  0
   -1.2065   -0.5607    0.5712 N   0  0  0  0  0  0  0  0  0  0  0  0
   -1.7864   -0.1395   -0.1503 H   0  0  0  0  0  0  0  0  0  0  0  0
    0.1674   -0.0194    0.5864 C   0  0  1  0  0  0  0  0  0  0  0  0
    0.4642    0.1127   -0.4587 H   0  0  0  0  0  0  0  0  0  0  0  0
    0.0229    1.3691    1.2550 C   0  0  0  0  0  0  0  0  0  0  0  0
   -0.4903    1.2614    2.2153 H   0  0  0  0  0  0  0  0  0  0  0  0
    1.0032    1.8070    1.4511 H   0  0  0  0  0  0  0  0  0  0  0  0
   -0.7348    2.3646    0.3789 C   0  0  0  0  0  0  0  0  0  0  0  0
   -0.6715    2.2314   -0.8698 O   0  5  0  0  0  0  0  0  0  0  0  0
   -1.3636    3.2766    0.9643 O   0  0  0  0  0  0  0  0  0  0  0  0
    1.3696   -0.8045    1.1894 C   0  0  0  0  0  0  0  0  0  0  0  0
    1.4043   -2.0255    1.2814 O   0  0  0  0  0  0  0  0  0  0  0  0
    2.6114   -0.1883    1.1498 N   0  0  0  0  0  0  0  0  0  0  0  0
    2.6168    0.8025    0.9259 H   0  0  0  0  0  0  0  0  0  0  0  0
    3.8763   -0.8604    1.4138 C   0  0  0  0  0  0  0  0  0  0  0  0
    4.0529   -1.6488    0.6750 H   0  0  0  0  0  0  0  0  0  0  0  0
    4.7005   -0.1433    1.3582 H   0  0  0  0  0  0  0  0  0  0  0  0
    3.8710   -1.3051    2.4140 H   0  0  0  0  0  0  0  0  0  0  0  0
  1  2  1  0  0  0  0
  2  3  1  0  0  0  0
  2  4  1  0  0  0  0
  2  5  1  0  0  0  0
  5  6  2  0  0  0  0
  5  7  1  0  0  0  0
  7  8  1  0  0  0  0
  7  9  1  0  0  0  0
  9 10  1  0  0  0  0
  9 11  1  0  0  0  0
  9 17  1  0  0  0  0
 11 12  1  0  0  0  0
 11 13  1  0  0  0  0
 11 14  1  0  0  0  0
 14 15  1  0  0  0  0
 14 16  2  0  0  0  0
 17 18  2  0  0  0  0
 17 19  1  0  0  0  0
 19 20  1  0  0  0  0
 19 21  1  0  0  0  0
 21 22  1  0  0  0  0
 21 23  1  0  0  0  0
 21 24  1  0  0  0  0
M  CHG  1  15  -1
M  END
$$$$

  -OEChem-01062216073D

 24 23  0     1  0  0  0  0  0999 V2000
   -3.1320   -3.3119    0.9010 H   0  0  0  0  0  0  0  0  0  0  0  0
   -2.9103   -2.3498    0.4310 C   0  0  0  0  0  0  0  0  0  0  0  0
   -3.7602   -1.6787    0.5785 H   0  0  0  0  0  0  0  0  0  0  0  0
   -2.7615   -2.5083   -0.6399 H   0  0  0  0  0  0  0  0  0  0  0  0
   -1.6597   -1.7431    1.0427 C   0  0  0  0  0  0  0  0  0  0  0  0
   -1.2197   -2.2278    2.0725 O   0  0  0  0  0  0  0  0  0  0  0  0
   -1.2113   -0.5338    0.5521 N   0  0  0  0  0  0  0  0  0  0  0  0
   -1.7994   -0.1351   -0.1755 H   0  0  0  0  0  0  0  0  0  0  0  0
    0.1565    0.0205    0.5570 C   0  0  1  0  0  0  0  0  0  0  0  0
    0.4624    0.1542   -0.4854 H   0  0  0  0  0  0  0  0  0  0  0  0
    0.0002    1.4101    1.2228 C   0  0  0  0  0  0  0  0  0  0  0  0
   -0.5026    1.3015    2.1885 H   0  0  0  0  0  0  0  0  0  0  0  0
    0.9748    1.8653    1.4034 H   0  0  0  0  0  0  0  0  0  0  0  0
   -0.7744    2.3935    0.3478 C   0  0  0  0  0  0  0  0  0  0  0  0
   -0.7195    2.2596   -0.9010 O   0  5  0  0  0  0  0  0  0  0  0  0
   -1.4082    3.2996    0.9374 O   0  0  0  0  0  0  0  0  0  0  0  0
    1.3289   -0.7996    1.1729 C   0  0  0  0  0  0  0  0  0  0  0  0
    1.4284   -2.0082    0.9846 O   0  0  0  0  0  0  0  0  0  0  0  0
    2.5219   -0.1531    1.4592 N   0  0  0  0  0  0  0  0  0  0  0  0
    2.4948    0.8616    1.4724 H   0  0  0  0  0  0  0  0  0  0  0  0
    3.7740   -0.8313    1.7647 C   0  0  0  0  0  0  0  0  0  0  0  0
    4.1232   -1.3991    0.8963 H   0  0  0  0  0  0  0  0  0  0  0  0
    4.5414   -0.0990    2.0319 H   0  0  0  0  0  0  0  0  0  0  0  0
    3.6420   -1.5167    2.6080 H   0  0  0  0  0  0  0  0  0  0  0  0
  1  2  1  0  0  0  0
  2  3  1  0  0  0  0
  2  4  1  0  0  0  0
  2  5  1  0  0  0  0
  5  6  2  0  0  0  0
  5  7  1  0  0  0  0
  7  8  1  0  0  0  0
  7  9  1  0  0  0  0
  9 10  1  0  0  0  0
  9 11  1  0  0  0  0
  9 17  1  0  0  0  0
 11 12  1  0  0  0  0
 11 13  1  0  0  0  0
 11 14  1  0  0  0  0
 14 15  1  0  0  0  0
 14 16  2  0  0  0  0
 17 18  2  0  0  0  0
 17 19  1  0  0  0  0
 19 20  1  0  0  0  0
 19 21  1  0  0  0  0
 21 22  1  0  0  0  0
 21 23  1  0  0  0  0
 21 24  1  0  0  0  0
M  CHG  1  15  -1
M  END
$$$$

  -OEChem-01062216073D

 24 23  0     1  0  0  0  0  0999 V2000
   -3.0953   -3.3201    0.9255 H   0  0  0  0  0  0  0  0  0  0  0  0
   -2.9042   -2.3477    0.4628 C   0  0  0  0  0  0  0  0  0  0  0  0
   -3.7469   -1.6839    0.6712 H   0  0  0  0  0  0  0  0  0  0  0  0
   -2.8156   -2.4844   -0.6177 H   0  0  0  0  0  0  0  0  0  0  0  0
   -1.6233   -1.7468    1.0144 C   0  0  0  0  0  0  0  0  0  0  0  0
   -1.1105   -2.2622    1.9950 O   0  0  0  0  0  0  0  0  0  0  0  0
   -1.2053   -0.5268    0.5226 N   0  0  0  0  0  0  0  0  0  0  0  0
   -1.8188   -0.1209   -0.1800 H   0  0  0  0  0  0  0  0  0  0  0  0
    0.1533    0.0481    0.5131 C   0  0  1  0  0  0  0  0  0  0  0  0
    0.4530    0.1906   -0.5302 H   0  0  0  0  0  0  0  0  0  0  0  0
   -0.0074    1.4330    1.1869 C   0  0  0  0  0  0  0  0  0  0  0  0
   -0.4877    1.3179    2.1633 H   0  0  0  0  0  0  0  0  0  0  0  0
    0.9672    1.8987    1.3407 H   0  0  0  0  0  0  0  0  0  0  0  0
   -0.8063    2.4119    0.3288 C   0  0  0  0  0  0  0  0  0  0  0  0
   -0.7721    2.2868   -0.9212 O   0  5  0  0  0  0  0  0  0  0  0  0
   -1.4500    3.2992    0.9364 O   0  0  0  0  0  0  0  0  0  0  0  0
    1.3158   -0.7912    1.1207 C   0  0  0  0  0  0  0  0  0  0  0  0
    1.5119   -1.9395    0.7310 O   0  0  0  0  0  0  0  0  0  0  0  0
    2.4023   -0.1623    1.7084 N   0  0  0  0  0  0  0  0  0  0  0  0
    2.2704    0.8088    1.9727 H   0  0  0  0  0  0  0  0  0  0  0  0
    3.6134   -0.8517    2.1300 C   0  0  0  0  0  0  0  0  0  0  0  0
    4.1397   -1.2650    1.2636 H   0  0  0  0  0  0  0  0  0  0  0  0
    4.2834   -0.1547    2.6416 H   0  0  0  0  0  0  0  0  0  0  0  0
    3.3690   -1.6665    2.8193 H   0  0  0  0  0  0  0  0  0  0  0  0
  1  2  1  0  0  0  0
  2  3  1  0  0  0  0
  2  4  1  0  0  0  0
  2  5  1  0  0  0  0
  5  6  2  0  0  0  0
  5  7  1  0  0  0  0
  7  8  1  0  0  0  0
  7  9  1  0  0  0  0
  9 10  1  0  0  0  0
  9 11  1  0  0  0  0
  9 17  1  0  0  0  0
 11 12  1  0  0  0  0
 11 13  1  0  0  0  0
 11 14  1  0  0  0  0
 14 15  1  0  0  0  0
 14 16  2  0  0  0  0
 17 18  2  0  0  0  0
 17 19  1  0  0  0  0
 19 20  1  0  0  0  0
 19 21  1  0  0  0  0
 21 22  1  0  0  0  0
 21 23  1  0  0  0  0
 21 24  1  0  0  0  0
M  CHG  1  15  -1
M  END
$$$$

  -OEChem-01062216073D

 24 23  0     1  0  0  0  0  0999 V2000
   -3.1105   -3.3026    0.9478 H   0  0  0  0  0  0  0  0  0  0  0  0
   -2.9188   -2.3313    0.4832 C   0  0  0  0  0  0  0  0  0  0  0  0
   -3.7357   -1.6506    0.7356 H   0  0  0  0  0  0  0  0  0  0  0  0
   -2.8840   -2.4612   -0.6013 H   0  0  0  0  0  0  0  0  0  0  0  0
   -1.6003   -1.7627    0.9776 C   0  0  0  0  0  0  0  0  0  0  0  0
   -1.0241   -2.3283    1.8929 O   0  0  0  0  0  0  0  0  0  0  0  0
   -1.1951   -0.5362    0.4912 N   0  0  0  0  0  0  0  0  0  0  0  0
   -1.8325   -0.1099   -0.1774 H   0  0  0  0  0  0  0  0  0  0  0  0
    0.1553    0.0554    0.4802 C   0  0  1  0  0  0  0  0  0  0  0  0
    0.4529    0.2084   -0.5624 H   0  0  0  0  0  0  0  0  0  0  0  0
   -0.0088    1.4327    1.1661 C   0  0  0  0  0  0  0  0  0  0  0  0
   -0.4775    1.3079    2.1467 H   0  0  0  0  0  0  0  0  0  0  0  0
    0.9676    1.8994    1.3099 H   0  0  0  0  0  0  0  0  0  0  0  0
   -0.8210    2.4142    0.3247 C   0  0  0  0  0  0  0  0  0  0  0  0
   -0.7989    2.3029   -0.9266 O   0  5  0  0  0  0  0  0  0  0  0  0
   -1.4729    3.2836    0.9494 O   0  0  0  0  0  0  0  0  0  0  0  0
    1.3148   -0.7873    1.0857 C   0  0  0  0  0  0  0  0  0  0  0  0
    1.6295   -1.8519    0.5594 O   0  0  0  0  0  0  0  0  0  0  0  0
    2.2419   -0.2159    1.9429 N   0  0  0  0  0  0  0  0  0  0  0  0
    1.9762    0.6709    2.3599 H   0  0  0  0  0  0  0  0  0  0  0  0
    3.4141   -0.9135    2.4501 C   0  0  0  0  0  0  0  0  0  0  0  0
    4.0853   -1.1811    1.6278 H   0  0  0  0  0  0  0  0  0  0  0  0
    3.9604   -0.2711    3.1469 H   0  0  0  0  0  0  0  0  0  0  0  0
    3.1170   -1.8255    2.9779 H   0  0  0  0  0  0  0  0  0  0  0  0
  1  2  1  0  0  0  0
  2  3  1  0  0  0  0
  2  4  1  0  0  0  0
  2  5  1  0  0  0  0
  5  6  2  0  0  0  0
  5  7  1  0  0  0  0
  7  8  1  0  0  0  0
  7  9  1  0  0  0  0
  9 10  1  0  0  0  0
  9 11  1  0  0  0  0
  9 17  1  0  0  0  0
 11 12  1  0  0  0  0
 11 13  1  0  0  0  0
 11 14  1  0  0  0  0
 14 15  1  0  0  0  0
 14 16  2  0  0  0  0
 17 18  2  0  0  0  0
 17 19  1  0  0  0  0
 19 20  1  0  0  0  0
 19 21  1  0  0  0  0
 21 22  1  0  0  0  0
 21 23  1  0  0  0  0
 21 24  1  0  0  0  0
M  CHG  1  15  -1
M  END
$$$$

  -OEChem-01062216073D

 24 23  0     1  0  0  0  0  0999 V2000
   -3.0993   -3.3005    0.9433 H   0  0  0  0  0  0  0  0  0  0  0  0
   -2.9264   -2.3146    0.5031 C   0  0  0  0  0  0  0  0  0  0  0  0
   -3.7173   -1.6361    0.8327 H   0  0  0  0  0  0  0  0  0  0  0  0
   -2.9630   -2.4042   -0.5854 H   0  0  0  0  0  0  0  0  0  0  0  0
   -1.5724   -1.7771    0.9320 C   0  0  0  0  0  0  0  0  0  0  0  0
   -0.9411   -2.3899    1.7778 O   0  0  0  0  0  0  0  0  0  0  0  0
   -1.1768   -0.5449    0.4517 N   0  0  0  0  0  0  0  0  0  0  0  0
   -1.8378   -0.0926   -0.1759 H   0  0  0  0  0  0  0  0  0  0  0  0
    0.1662    0.0624    0.4436 C   0  0  1  0  0  0  0  0  0  0  0  0
    0.4624    0.2293   -0.5973 H   0  0  0  0  0  0  0  0  0  0  0  0
   -0.0070    1.4283    1.1475 C   0  0  0  0  0  0  0  0  0  0  0  0
   -0.4711    1.2880    2.1282 H   0  0  0  0  0  0  0  0  0  0  0  0
    0.9705    1.8938    1.2936 H   0  0  0  0  0  0  0  0  0  0  0  0
   -0.8319    2.4142    0.3244 C   0  0  0  0  0  0  0  0  0  0  0  0
   -0.8167    2.3220   -0.9282 O   0  5  0  0  0  0  0  0  0  0  0  0
   -1.5042    3.2545    0.9671 O   0  0  0  0  0  0  0  0  0  0  0  0
    1.3273   -0.7753    1.0493 C   0  0  0  0  0  0  0  0  0  0  0  0
    1.7760   -1.7320    0.4227 O   0  0  0  0  0  0  0  0  0  0  0  0
    2.0591   -0.3118    2.1306 N   0  0  0  0  0  0  0  0  0  0  0  0
    1.6401    0.4531    2.6507 H   0  0  0  0  0  0  0  0  0  0  0  0
    3.1660   -1.0457    2.7246 C   0  0  0  0  0  0  0  0  0  0  0  0
    3.9740   -1.1743    1.9975 H   0  0  0  0  0  0  0  0  0  0  0  0
    3.5599   -0.4975    3.5853 H   0  0  0  0  0  0  0  0  0  0  0  0
    2.8320   -2.0317    3.0633 H   0  0  0  0  0  0  0  0  0  0  0  0
  1  2  1  0  0  0  0
  2  3  1  0  0  0  0
  2  4  1  0  0  0  0
  2  5  1  0  0  0  0
  5  6  2  0  0  0  0
  5  7  1  0  0  0  0
  7  8  1  0  0  0  0
  7  9  1  0  0  0  0
  9 10  1  0  0  0  0
  9 11  1  0  0  0  0
  9 17  1  0  0  0  0
 11 12  1  0  0  0  0
 11 13  1  0  0  0  0
 11 14  1  0  0  0  0
 14 15  1  0  0  0  0
 14 16  2  0  0  0  0
 17 18  2  0  0  0  0
 17 19  1  0  0  0  0
 19 20  1  0  0  0  0
 19 21  1  0  0  0  0
 21 22  1  0  0  0  0
 21 23  1  0  0  0  0
 21 24  1  0  0  0  0
M  CHG  1  15  -1
M  END
$$$$

  -OEChem-01062216073D

 24 23  0     1  0  0  0  0  0999 V2000
   -3.1057   -3.2864    0.9480 H   0  0  0  0  0  0  0  0  0  0  0  0
   -2.9346   -2.2959    0.5173 C   0  0  0  0  0  0  0  0  0  0  0  0
   -3.6968   -1.6098    0.8953 H   0  0  0  0  0  0  0  0  0  0  0  0
   -3.0238   -2.3654   -0.5696 H   0  0  0  0  0  0  0  0  0  0  0  0
   -1.5523   -1.7904    0.8915 C   0  0  0  0  0  0  0  0  0  0  0  0
   -0.8817   -2.4448    1.6732 O   0  0  0  0  0  0  0  0  0  0  0  0
   -1.1590   -0.5559    0.4155 N   0  0  0  0  0  0  0  0  0  0  0  0
   -1.8369   -0.0805   -0.1765 H   0  0  0  0  0  0  0  0  0  0  0  0
    0.1783    0.0633    0.4144 C   0  0  1  0  0  0  0  0  0  0  0  0
    0.4764    0.2434   -0.6241 H   0  0  0  0  0  0  0  0  0  0  0  0
   -0.0038    1.4172    1.1367 C   0  0  0  0  0  0  0  0  0  0  0  0
   -0.4683    1.2607    2.1148 H   0  0  0  0  0  0  0  0  0  0  0  0
    0.9738    1.8805    1.2926 H   0  0  0  0  0  0  0  0  0  0  0  0
   -0.8373    2.4093    0.3303 C   0  0  0  0  0  0  0  0  0  0  0  0
   -0.8248    2.3367   -0.9234 O   0  5  0  0  0  0  0  0  0  0  0  0
   -1.5262    3.2242    0.9881 O   0  0  0  0  0  0  0  0  0  0  0  0
    1.3421   -0.7634    1.0263 C   0  0  0  0  0  0  0  0  0  0  0  0
    1.9370   -1.5865    0.3352 O   0  0  0  0  0  0  0  0  0  0  0  0
    1.8571   -0.4545    2.2744 N   0  0  0  0  0  0  0  0  0  0  0  0
    1.2858    0.1647    2.8411 H   0  0  0  0  0  0  0  0  0  0  0  0
    2.9030   -1.2324    2.9196 C   0  0  0  0  0  0  0  0  0  0  0  0
    3.8206   -1.2104    2.3229 H   0  0  0  0  0  0  0  0  0  0  0  0
    3.1230   -0.8171    3.9073 H   0  0  0  0  0  0  0  0  0  0  0  0
    2.5838   -2.2722    3.0425 H   0  0  0  0  0  0  0  0  0  0  0  0
  1  2  1  0  0  0  0
  2  3  1  0  0  0  0
  2  4  1  0  0  0  0
  2  5  1  0  0  0  0
  5  6  2  0  0  0  0
  5  7  1  0  0  0  0
  7  8  1  0  0  0  0
  7  9  1  0  0  0  0
  9 10  1  0  0  0  0
  9 11  1  0  0  0  0
  9 17  1  0  0  0  0
 11 12  1  0  0  0  0
 11 13  1  0  0  0  0
 11 14  1  0  0  0  0
 14 15  1  0  0  0  0
 14 16  2  0  0  0  0
 17 18  2  0  0  0  0
 17 19  1  0  0  0  0
 19 20  1  0  0  0  0
 19 21  1  0  0  0  0
 21 22  1  0  0  0  0
 21 23  1  0  0  0  0
 21 24  1  0  0  0  0
M  CHG  1  15  -1
M  END
$$$$

  -OEChem-01062216073D

 24 23  0     1  0  0  0  0  0999 V2000
   -3.1167   -3.2711    0.9440 H   0  0  0  0  0  0  0  0  0  0  0  0
   -2.9450   -2.2753    0.5257 C   0  0  0  0  0  0  0  0  0  0  0  0
   -3.6814   -1.5843    0.9441 H   0  0  0  0  0  0  0  0  0  0  0  0
   -3.0757   -2.3219   -0.5584 H   0  0  0  0  0  0  0  0  0  0  0  0
   -1.5420   -1.7985    0.8581 C   0  0  0  0  0  0  0  0  0  0  0  0
   -0.8487   -2.4845    1.5912 O   0  0  0  0  0  0  0  0  0  0  0  0
   -1.1437   -0.5649    0.3848 N   0  0  0  0  0  0  0  0  0  0  0  0
   -1.8319   -0.0686   -0.1782 H   0  0  0  0  0  0  0  0  0  0  0  0
    0.1905    0.0615    0.3950 C   0  0  1  0  0  0  0  0  0  0  0  0
    0.4932    0.2509   -0.6404 H   0  0  0  0  0  0  0  0  0  0  0  0
   -0.0024    1.4053    1.1310 C   0  0  0  0  0  0  0  0  0  0  0  0
   -0.4713    1.2365    2.1048 H   0  0  0  0  0  0  0  0  0  0  0  0
    0.9739    1.8670    1.2997 H   0  0  0  0  0  0  0  0  0  0  0  0
   -0.8386    2.4016    0.3326 C   0  0  0  0  0  0  0  0  0  0  0  0
   -0.8211    2.3434   -0.9217 O   0  5  0  0  0  0  0  0  0  0  0  0
   -1.5500    3.1917    0.9970 O   0  0  0  0  0  0  0  0  0  0  0  0
    1.3561   -0.7507    1.0195 C   0  0  0  0  0  0  0  0  0  0  0  0
    2.1075   -1.4021    0.2986 O   0  0  0  0  0  0  0  0  0  0  0  0
    1.6519   -0.6410    2.3678 N   0  0  0  0  0  0  0  0  0  0  0  0
    0.9209   -0.2206    2.9331 H   0  0  0  0  0  0  0  0  0  0  0  0
    2.6525   -1.4660    3.0264 C   0  0  0  0  0  0  0  0  0  0  0  0
    3.6373   -1.3080    2.5753 H   0  0  0  0  0  0  0  0  0  0  0  0
    2.7134   -1.2051    4.0869 H   0  0  0  0  0  0  0  0  0  0  0  0
    2.3880   -2.5250    2.9419 H   0  0  0  0  0  0  0  0  0  0  0  0
  1  2  1  0  0  0  0
  2  3  1  0  0  0  0
  2  4  1  0  0  0  0
  2  5  1  0  0  0  0
  5  6  2  0  0  0  0
  5  7  1  0  0  0  0
  7  8  1  0  0  0  0
  7  9  1  0  0  0  0
  9 10  1  0  0  0  0
  9 11  1  0  0  0  0
  9 17  1  0  0  0  0
 11 12  1  0  0  0  0
 11 13  1  0  0  0  0
 11 14  1  0  0  0  0
 14 15  1  0  0  0  0
 14 16  2  0  0  0  0
 17 18  2  0  0  0  0
 17 19  1  0  0  0  0
 19 20  1  0  0  0  0
 19 21  1  0  0  0  0
 21 22  1  0  0  0  0
 21 23  1  0  0  0  0
 21 24  1  0  0  0  0
M  CHG  1  15  -1
M  END
$$$$

  -OEChem-01062216073D

 24 23  0     1  0  0  0  0  0999 V2000
   -3.1709   -3.2354    0.9303 H   0  0  0  0  0  0  0  0  0  0  0  0
   -2.9805   -2.2396    0.5203 C   0  0  0  0  0  0  0  0  0  0  0  0
   -3.6878   -1.5339    0.9638 H   0  0  0  0  0  0  0  0  0  0  0  0
   -3.1363   -2.2685   -0.5610 H   0  0  0  0  0  0  0  0  0  0  0  0
   -1.5579   -1.8060    0.8266 C   0  0  0  0  0  0  0  0  0  0  0  0
   -0.8618   -2.5281    1.5206 O   0  0  0  0  0  0  0  0  0  0  0  0
   -1.1370   -0.5782    0.3594 N   0  0  0  0  0  0  0  0  0  0  0  0
   -1.8280   -0.0537   -0.1746 H   0  0  0  0  0  0  0  0  0  0  0  0
    0.1985    0.0467    0.3873 C   0  0  1  0  0  0  0  0  0  0  0  0
    0.5106    0.2414   -0.6447 H   0  0  0  0  0  0  0  0  0  0  0  0
   -0.0037    1.3830    1.1318 C   0  0  0  0  0  0  0  0  0  0  0  0
   -0.4799    1.2062    2.1006 H   0  0  0  0  0  0  0  0  0  0  0  0
    0.9713    1.8425    1.3147 H   0  0  0  0  0  0  0  0  0  0  0  0
   -0.8330    2.3844    0.3322 C   0  0  0  0  0  0  0  0  0  0  0  0
   -0.8019    2.3362   -0.9223 O   0  5  0  0  0  0  0  0  0  0  0  0
   -1.5697    3.1529    0.9945 O   0  0  0  0  0  0  0  0  0  0  0  0
    1.3646   -0.7502    1.0296 C   0  0  0  0  0  0  0  0  0  0  0  0
    2.2756   -1.1831    0.3288 O   0  0  0  0  0  0  0  0  0  0  0  0
    1.4586   -0.8752    2.4051 N   0  0  0  0  0  0  0  0  0  0  0  0
    0.5828   -0.7170    2.8947 H   0  0  0  0  0  0  0  0  0  0  0  0
    2.4582   -1.7131    3.0488 C   0  0  0  0  0  0  0  0  0  0  0  0
    3.4668   -1.3808    2.7832 H   0  0  0  0  0  0  0  0  0  0  0  0
    2.3514   -1.6544    4.1358 H   0  0  0  0  0  0  0  0  0  0  0  0
    2.3351   -2.7568    2.7420 H   0  0  0  0  0  0  0  0  0  0  0  0
  1  2  1  0  0  0  0
  2  3  1  0  0  0  0
  2  4  1  0  0  0  0
  2  5  1  0  0  0  0
  5  6  2  0  0  0  0
  5  7  1  0  0  0  0
  7  8  1  0  0  0  0
  7  9  1  0  0  0  0
  9 10  1  0  0  0  0
  9 11  1  0  0  0  0
  9 17  1  0  0  0  0
 11 12  1  0  0  0  0
 11 13  1  0  0  0  0
 11 14  1  0  0  0  0
 14 15  1  0  0  0  0
 14 16  2  0  0  0  0
 17 18  2  0  0  0  0
 17 19  1  0  0  0  0
 19 20  1  0  0  0  0
 19 21  1  0  0  0  0
 21 22  1  0  0  0  0
 21 23  1  0  0  0  0
 21 24  1  0  0  0  0
M  CHG  1  15  -1
M  END
$$$$

  -OEChem-01062216073D

 24 23  0     1  0  0  0  0  0999 V2000
   -3.2829   -3.1760    0.8926 H   0  0  0  0  0  0  0  0  0  0  0  0
   -3.0552   -2.1831    0.4949 C   0  0  0  0  0  0  0  0  0  0  0  0
   -3.7304   -1.4561    0.9534 H   0  0  0  0  0  0  0  0  0  0  0  0
   -3.2199   -2.1908   -0.5855 H   0  0  0  0  0  0  0  0  0  0  0  0
   -1.6142   -1.8111    0.7958 C   0  0  0  0  0  0  0  0  0  0  0  0
   -0.9413   -2.5753    1.4668 O   0  0  0  0  0  0  0  0  0  0  0  0
   -1.1479   -0.5955    0.3410 N   0  0  0  0  0  0  0  0  0  0  0  0
   -1.8276   -0.0386   -0.1751 H   0  0  0  0  0  0  0  0  0  0  0  0
    0.1965    0.0132    0.3909 C   0  0  1  0  0  0  0  0  0  0  0  0
    0.5207    0.2098   -0.6370 H   0  0  0  0  0  0  0  0  0  0  0  0
   -0.0104    1.3452    1.1397 C   0  0  0  0  0  0  0  0  0  0  0  0
   -0.5022    1.1643    2.1000 H   0  0  0  0  0  0  0  0  0  0  0  0
    0.9640    1.7978    1.3423 H   0  0  0  0  0  0  0  0  0  0  0  0
   -0.8201    2.3563    0.3316 C   0  0  0  0  0  0  0  0  0  0  0  0
   -0.7675    2.3150   -0.9225 O   0  5  0  0  0  0  0  0  0  0  0  0
   -1.5746    3.1158    0.9841 O   0  0  0  0  0  0  0  0  0  0  0  0
    1.3655   -0.7685    1.0489 C   0  0  0  0  0  0  0  0  0  0  0  0
    2.4125   -0.9382    0.4300 O   0  0  0  0  0  0  0  0  0  0  0  0
    1.3092   -1.1530    2.3767 N   0  0  0  0  0  0  0  0  0  0  0  0
    0.3551   -1.2923    2.7049 H   0  0  0  0  0  0  0  0  0  0  0  0
    2.3512   -1.9562    2.9974 C   0  0  0  0  0  0  0  0  0  0  0  0
    3.3139   -1.4369    2.9534 H   0  0  0  0  0  0  0  0  0  0  0  0
    2.1059   -2.1387    4.0476 H   0  0  0  0  0  0  0  0  0  0  0  0
    2.4436   -2.9207    2.4879 H   0  0  0  0  0  0  0  0  0  0  0  0
  1  2  1  0  0  0  0
  2  3  1  0  0  0  0
  2  4  1  0  0  0  0
  2  5  1  0  0  0  0
  5  6  2  0  0  0  0
  5  7  1  0  0  0  0
  7  8  1  0  0  0  0
  7  9  1  0  0  0  0
  9 10  1  0  0  0  0
  9 11  1  0  0  0  0
  9 17  1  0  0  0  0
 11 12  1  0  0  0  0
 11 13  1  0  0  0  0
 11 14  1  0  0  0  0
 14 15  1  0  0  0  0
 14 16  2  0  0  0  0
 17 18  2  0  0  0  0
 17 19  1  0  0  0  0
 19 20  1  0  0  0  0
 19 21  1  0  0  0  0
 21 22  1  0  0  0  0
 21 23  1  0  0  0  0
 21 24  1  0  0  0  0
M  CHG  1  15  -1
M  END
$$$$

  -OEChem-01062216073D

 24 23  0     1  0  0  0  0  0999 V2000
   -3.4241   -3.0948    0.8409 H   0  0  0  0  0  0  0  0  0  0  0  0
   -3.1471   -2.1067    0.4633 C   0  0  0  0  0  0  0  0  0  0  0  0
   -3.7740   -1.3550    0.9498 H   0  0  0  0  0  0  0  0  0  0  0  0
   -3.3286   -2.0782   -0.6141 H   0  0  0  0  0  0  0  0  0  0  0  0
   -1.6831   -1.8219    0.7491 C   0  0  0  0  0  0  0  0  0  0  0  0
   -1.0374   -2.6542    1.3633 O   0  0  0  0  0  0  0  0  0  0  0  0
   -1.1629   -0.6200    0.3171 N   0  0  0  0  0  0  0  0  0  0  0  0
   -1.8315   -0.0207   -0.1655 H   0  0  0  0  0  0  0  0  0  0  0  0
    0.1908   -0.0291    0.3927 C   0  0  1  0  0  0  0  0  0  0  0  0
    0.5260    0.1723   -0.6306 H   0  0  0  0  0  0  0  0  0  0  0  0
   -0.0270    1.2972    1.1489 C   0  0  0  0  0  0  0  0  0  0  0  0
   -0.5361    1.1090    2.0990 H   0  0  0  0  0  0  0  0  0  0  0  0
    0.9441    1.7461    1.3737 H   0  0  0  0  0  0  0  0  0  0  0  0
   -0.8162    2.3191    0.3340 C   0  0  0  0  0  0  0  0  0  0  0  0
   -0.7379    2.2895   -0.9190 O   0  5  0  0  0  0  0  0  0  0  0  0
   -1.5937    3.0635    0.9771 O   0  0  0  0  0  0  0  0  0  0  0  0
    1.3703   -0.7898    1.0618 C   0  0  0  0  0  0  0  0  0  0  0  0
    2.4915   -0.7179    0.5660 O   0  0  0  0  0  0  0  0  0  0  0  0
    1.2371   -1.4405    2.2743 N   0  0  0  0  0  0  0  0  0  0  0  0
    0.2818   -1.7539    2.4535 H   0  0  0  0  0  0  0  0  0  0  0  0
    2.3166   -2.2073    2.8776 C   0  0  0  0  0  0  0  0  0  0  0  0
    3.1875   -1.5689    3.0575 H   0  0  0  0  0  0  0  0  0  0  0  0
    1.9895   -2.6209    3.8359 H   0  0  0  0  0  0  0  0  0  0  0  0
    2.6105   -3.0337    2.2229 H   0  0  0  0  0  0  0  0  0  0  0  0
  1  2  1  0  0  0  0
  2  3  1  0  0  0  0
  2  4  1  0  0  0  0
  2  5  1  0  0  0  0
  5  6  2  0  0  0  0
  5  7  1  0  0  0  0
  7  8  1  0  0  0  0
  7  9  1  0  0  0  0
  9 10  1  0  0  0  0
  9 11  1  0  0  0  0
  9 17  1  0  0  0  0
 11 12  1  0  0  0  0
 11 13  1  0  0  0  0
 11 14  1  0  0  0  0
 14 15  1  0  0  0  0
 14 16  2  0  0  0  0
 17 18  2  0  0  0  0
 17 19  1  0  0  0  0
 19 20  1  0  0  0  0
 19 21  1  0  0  0  0
 21 22  1  0  0  0  0
 21 23  1  0  0  0  0
 21 24  1  0  0  0  0
M  CHG  1  15  -1
M  END
$$$$

  -OEChem-01062216073D

 24 23  0     1  0  0  0  0  0999 V2000
   -3.5514   -2.9988    0.8274 H   0  0  0  0  0  0  0  0  0  0  0  0
   -3.2257   -2.0256    0.4497 C   0  0  0  0  0  0  0  0  0  0  0  0
   -3.7925   -1.2425    0.9601 H   0  0  0  0  0  0  0  0  0  0  0  0
   -3.4353   -1.9751   -0.6217 H   0  0  0  0  0  0  0  0  0  0  0  0
   -1.7398   -1.8312    0.6963 C   0  0  0  0  0  0  0  0  0  0  0  0
   -1.1188   -2.7360    1.2271 O   0  0  0  0  0  0  0  0  0  0  0  0
   -1.1743   -0.6398    0.2923 N   0  0  0  0  0  0  0  0  0  0  0  0
   -1.8346   -0.0005   -0.1491 H   0  0  0  0  0  0  0  0  0  0  0  0
    0.1859   -0.0630    0.3942 C   0  0  1  0  0  0  0  0  0  0  0  0
    0.5332    0.1459   -0.6236 H   0  0  0  0  0  0  0  0  0  0  0  0
   -0.0511    1.2579    1.1565 C   0  0  0  0  0  0  0  0  0  0  0  0
   -0.5796    1.0608    2.0938 H   0  0  0  0  0  0  0  0  0  0  0  0
    0.9131    1.7086    1.4071 H   0  0  0  0  0  0  0  0  0  0  0  0
   -0.8228    2.2867    0.3329 C   0  0  0  0  0  0  0  0  0  0  0  0
   -0.7166    2.2688   -0.9181 O   0  5  0  0  0  0  0  0  0  0  0  0
   -1.6274    3.0125    0.9640 O   0  0  0  0  0  0  0  0  0  0  0  0
    1.3755   -0.8071    1.0705 C   0  0  0  0  0  0  0  0  0  0  0  0
    2.5203   -0.5368    0.7183 O   0  0  0  0  0  0  0  0  0  0  0  0
    1.2303   -1.7071    2.1088 N   0  0  0  0  0  0  0  0  0  0  0  0
    0.2913   -2.1015    2.1902 H   0  0  0  0  0  0  0  0  0  0  0  0
    2.3371   -2.4651    2.6727 C   0  0  0  0  0  0  0  0  0  0  0  0
    3.1116   -1.7904    3.0509 H   0  0  0  0  0  0  0  0  0  0  0  0
    1.9819   -3.0812    3.5037 H   0  0  0  0  0  0  0  0  0  0  0  0
    2.7765   -3.1210    1.9147 H   0  0  0  0  0  0  0  0  0  0  0  0
  1  2  1  0  0  0  0
  2  3  1  0  0  0  0
  2  4  1  0  0  0  0
  2  5  1  0  0  0  0
  5  6  2  0  0  0  0
  5  7  1  0  0  0  0
  7  8  1  0  0  0  0
  7  9  1  0  0  0  0
  9 10  1  0  0  0  0
  9 11  1  0  0  0  0
  9 17  1  0  0  0  0
 11 12  1  0  0  0  0
 11 13  1  0  0  0  0
 11 14  1  0  0  0  0
 14 15  1  0  0  0  0
 14 16  2  0  0  0  0
 17 18  2  0  0  0  0
 17 19  1  0  0  0  0
 19 20  1  0  0  0  0
 19 21  1  0  0  0  0
 21 22  1  0  0  0  0
 21 23  1  0  0  0  0
 21 24  1  0  0  0  0
M  CHG  1  15  -1
M  END
$$$$

  -OEChem-01062216073D

 24 23  0     1  0  0  0  0  0999 V2000
   -3.2670   -3.2816    1.0035 H   0  0  0  0  0  0  0  0  0  0  0  0
   -2.9883   -2.3214    0.5605 C   0  0  0  0  0  0  0  0  0  0  0  0
   -3.6689   -1.5512    0.9327 H   0  0  0  0  0  0  0  0  0  0  0  0
   -3.0908   -2.3916   -0.5252 H   0  0  0  0  0  0  0  0  0  0  0  0
   -1.5575   -1.9639    0.9245 C   0  0  0  0  0  0  0  0  0  0  0  0
   -0.9483   -2.7327    1.6422 O   0  0  0  0  0  0  0  0  0  0  0  0
   -1.0513   -0.7960    0.3935 N   0  0  0  0  0  0  0  0  0  0  0  0
   -1.7203   -0.3084   -0.2011 H   0  0  0  0  0  0  0  0  0  0  0  0
    0.2167   -0.0428    0.5296 C   0  0  1  0  0  0  0  0  0  0  0  0
    0.6550    0.0231   -0.4713 H   0  0  0  0  0  0  0  0  0  0  0  0
   -0.2886    1.3504    0.9772 C   0  0  0  0  0  0  0  0  0  0  0  0
   -0.9197    1.2509    1.8654 H   0  0  0  0  0  0  0  0  0  0  0  0
    0.5597    1.9850    1.2457 H   0  0  0  0  0  0  0  0  0  0  0  0
   -1.0510    2.0869   -0.1226 C   0  0  0  0  0  0  0  0  0  0  0  0
   -0.7618    1.8559   -1.3228 O   0  5  0  0  0  0  0  0  0  0  0  0
   -2.0216    2.7889    0.2475 O   0  0  0  0  0  0  0  0  0  0  0  0
    1.4296   -0.4575    1.4254 C   0  0  0  0  0  0  0  0  0  0  0  0
    2.4357    0.2418    1.4513 O   0  0  0  0  0  0  0  0  0  0  0  0
    1.4875   -1.3827    2.4374 N   0  0  0  0  0  0  0  0  0  0  0  0
    2.0677   -1.0044    3.1777 H   0  0  0  0  0  0  0  0  0  0  0  0
    1.9100   -2.7245    2.0587 C   0  0  0  0  0  0  0  0  0  0  0  0
    3.0016   -2.7962    2.0887 H   0  0  0  0  0  0  0  0  0  0  0  0
    1.4905   -3.4586    2.7533 H   0  0  0  0  0  0  0  0  0  0  0  0
    1.5779   -2.9769    1.0461 H   0  0  0  0  0  0  0  0  0  0  0  0
  1  2  1  0  0  0  0
  2  3  1  0  0  0  0
  2  4  1  0  0  0  0
  2  5  1  0  0  0  0
  5  6  2  0  0  0  0
  5  7  1  0  0  0  0
  7  8  1  0  0  0  0
  7  9  1  0  0  0  0
  9 10  1  0  0  0  0
  9 11  1  0  0  0  0
  9 17  1  0  0  0  0
 11 12  1  0  0  0  0
 11 13  1  0  0  0  0
 11 14  1  0  0  0  0
 14 15  1  0  0  0  0
 14 16  2  0  0  0  0
 17 18  2  0  0  0  0
 17 19  1  0  0  0  0
 19 20  1  0  0  0  0
 19 21  1  0  0  0  0
 21 22  1  0  0  0  0
 21 23  1  0  0  0  0
 21 24  1  0  0  0  0
M  CHG  1  15  -1
M  END
$$$$

  -OEChem-01062216073D

 24 23  0     1  0  0  0  0  0999 V2000
   -3.0074   -3.4268    0.8851 H   0  0  0  0  0  0  0  0  0  0  0  0
   -2.8795   -2.3643    0.6609 C   0  0  0  0  0  0  0  0  0  0  0  0
   -3.2316   -1.7805    1.5153 H   0  0  0  0  0  0  0  0  0  0  0  0
   -3.4826   -2.1119   -0.2150 H   0  0  0  0  0  0  0  0  0  0  0  0
   -1.4182   -2.0536    0.3892 C   0  0  0  0  0  0  0  0  0  0  0  0
   -0.6547   -2.9876    0.2255 O   0  0  0  0  0  0  0  0  0  0  0  0
   -1.0756   -0.7349    0.1823 N   0  0  0  0  0  0  0  0  0  0  0  0
   -1.8816   -0.1116    0.1753 H   0  0  0  0  0  0  0  0  0  0  0  0
    0.2022    0.0134    0.2160 C   0  0  1  0  0  0  0  0  0  0  0  0
    0.3261    0.4897   -0.7625 H   0  0  0  0  0  0  0  0  0  0  0  0
   -0.0763    1.0766    1.3037 C   0  0  0  0  0  0  0  0  0  0  0  0
   -0.3993    0.5900    2.2289 H   0  0  0  0  0  0  0  0  0  0  0  0
    0.8452    1.6226    1.5229 H   0  0  0  0  0  0  0  0  0  0  0  0
   -1.1071    2.1199    0.8818 C   0  0  0  0  0  0  0  0  0  0  0  0
   -1.2245    2.4077   -0.3336 O   0  5  0  0  0  0  0  0  0  0  0  0
   -1.8825    2.5196    1.7823 O   0  0  0  0  0  0  0  0  0  0  0  0
    1.6036   -0.5998    0.5364 C   0  0  0  0  0  0  0  0  0  0  0  0
    2.6082    0.0210    0.2110 O   0  0  0  0  0  0  0  0  0  0  0  0
    1.9571   -1.8887    0.8491 N   0  0  0  0  0  0  0  0  0  0  0  0
    2.9431   -2.0291    0.6589 H   0  0  0  0  0  0  0  0  0  0  0  0
    1.4921   -2.4574    2.1066 C   0  0  0  0  0  0  0  0  0  0  0  0
    0.5553   -1.9959    2.4343 H   0  0  0  0  0  0  0  0  0  0  0  0
    1.3285   -3.5335    1.9942 H   0  0  0  0  0  0  0  0  0  0  0  0
    2.2412   -2.2969    2.8877 H   0  0  0  0  0  0  0  0  0  0  0  0
  1  2  1  0  0  0  0
  2  3  1  0  0  0  0
  2  4  1  0  0  0  0
  2  5  1  0  0  0  0
  5  6  2  0  0  0  0
  5  7  1  0  0  0  0
  7  8  1  0  0  0  0
  7  9  1  0  0  0  0
  9 10  1  0  0  0  0
  9 11  1  0  0  0  0
  9 17  1  0  0  0  0
 11 12  1  0  0  0  0
 11 13  1  0  0  0  0
 11 14  1  0  0  0  0
 14 15  1  0  0  0  0
 14 16  2  0  0  0  0
 17 18  2  0  0  0  0
 17 19  1  0  0  0  0
 19 20  1  0  0  0  0
 19 21  1  0  0  0  0
 21 22  1  0  0  0  0
 21 23  1  0  0  0  0
 21 24  1  0  0  0  0
M  CHG  1  15  -1
M  END
$$$$

  -OEChem-01062216073D

 24 23  0     1  0  0  0  0  0999 V2000
   -3.6047   -2.9964    0.8321 H   0  0  0  0  0  0  0  0  0  0  0  0
   -3.2727   -2.0116    0.4919 C   0  0  0  0  0  0  0  0  0  0  0  0
   -3.7952   -1.2454    1.0709 H   0  0  0  0  0  0  0  0  0  0  0  0
   -3.5313   -1.8972   -0.5639 H   0  0  0  0  0  0  0  0  0  0  0  0
   -1.7727   -1.8638    0.6767 C   0  0  0  0  0  0  0  0  0  0  0  0
   -1.1532   -2.8176    1.1146 O   0  0  0  0  0  0  0  0  0  0  0  0
   -1.2096   -0.6534    0.3275 N   0  0  0  0  0  0  0  0  0  0  0  0
   -1.8927    0.0152   -0.0285 H   0  0  0  0  0  0  0  0  0  0  0  0
    0.1541   -0.0715    0.3770 C   0  0  1  0  0  0  0  0  0  0  0  0
    0.4341    0.1879   -0.6491 H   0  0  0  0  0  0  0  0  0  0  0  0
   -0.0923    1.2181    1.1989 C   0  0  0  0  0  0  0  0  0  0  0  0
   -0.5768    0.9712    2.1483 H   0  0  0  0  0  0  0  0  0  0  0  0
    0.8596    1.7011    1.4316 H   0  0  0  0  0  0  0  0  0  0  0  0
   -0.9252    2.2497    0.4400 C   0  0  0  0  0  0  0  0  0  0  0  0
   -0.8641    2.2759   -0.8143 O   0  5  0  0  0  0  0  0  0  0  0  0
   -1.7440    2.9119    1.1205 O   0  0  0  0  0  0  0  0  0  0  0  0
    1.4132   -0.8281    0.9149 C   0  0  0  0  0  0  0  0  0  0  0  0
    2.4628   -0.2124    1.0822 O   0  0  0  0  0  0  0  0  0  0  0  0
    1.4813   -2.1908    1.1271 N   0  0  0  0  0  0  0  0  0  0  0  0
    0.5912   -2.6891    1.0882 H   0  0  0  0  0  0  0  0  0  0  0  0
    2.6403   -2.8830    1.6709 C   0  0  0  0  0  0  0  0  0  0  0  0
    2.8860   -2.4955    2.6648 H   0  0  0  0  0  0  0  0  0  0  0  0
    2.4283   -3.9528    1.7577 H   0  0  0  0  0  0  0  0  0  0  0  0
    3.5066   -2.7546    1.0143 H   0  0  0  0  0  0  0  0  0  0  0  0
  1  2  1  0  0  0  0
  2  3  1  0  0  0  0
  2  4  1  0  0  0  0
  2  5  1  0  0  0  0
  5  6  2  0  0  0  0
  5  7  1  0  0  0  0
  7  8  1  0  0  0  0
  7  9  1  0  0  0  0
  9 10  1  0  0  0  0
  9 11  1  0  0  0  0
  9 17  1  0  0  0  0
 11 12  1  0  0  0  0
 11 13  1  0  0  0  0
 11 14  1  0  0  0  0
 14 15  1  0  0  0  0
 14 16  2  0  0  0  0
 17 18  2  0  0  0  0
 17 19  1  0  0  0  0
 19 20  1  0  0  0  0
 19 21  1  0  0  0  0
 21 22  1  0  0  0  0
 21 23  1  0  0  0  0
 21 24  1  0  0  0  0
M  CHG  1  15  -1
M  END
$$$$

  -OEChem-01062216073D

 24 23  0     1  0  0  0  0  0999 V2000
   -3.5612   -2.9570    0.9217 H   0  0  0  0  0  0  0  0  0  0  0  0
   -3.2389   -1.9757    0.5625 C   0  0  0  0  0  0  0  0  0  0  0  0
   -3.7440   -1.2033    1.1485 H   0  0  0  0  0  0  0  0  0  0  0  0
   -3.5273   -1.8713   -0.4865 H   0  0  0  0  0  0  0  0  0  0  0  0
   -1.7342   -1.8283    0.7036 C   0  0  0  0  0  0  0  0  0  0  0  0
   -1.1000   -2.7797    1.1262 O   0  0  0  0  0  0  0  0  0  0  0  0
   -1.1756   -0.6237    0.3295 N   0  0  0  0  0  0  0  0  0  0  0  0
   -1.8599    0.0497   -0.0148 H   0  0  0  0  0  0  0  0  0  0  0  0
    0.1955   -0.0602    0.3575 C   0  0  1  0  0  0  0  0  0  0  0  0
    0.4758    0.1692   -0.6754 H   0  0  0  0  0  0  0  0  0  0  0  0
   -0.0222    1.2567    1.1441 C   0  0  0  0  0  0  0  0  0  0  0  0
   -0.5028    1.0460    2.1040 H   0  0  0  0  0  0  0  0  0  0  0  0
    0.9389    1.7317    1.3540 H   0  0  0  0  0  0  0  0  0  0  0  0
   -0.8415    2.2801    0.3598 C   0  0  0  0  0  0  0  0  0  0  0  0
   -0.7868    2.2675   -0.8952 O   0  5  0  0  0  0  0  0  0  0  0  0
   -1.6463    2.9753    1.0238 O   0  0  0  0  0  0  0  0  0  0  0  0
    1.4300   -0.8556    0.8969 C   0  0  0  0  0  0  0  0  0  0  0  0
    2.4317   -0.2618    1.2882 O   0  0  0  0  0  0  0  0  0  0  0  0
    1.5326   -2.2319    0.8273 N   0  0  0  0  0  0  0  0  0  0  0  0
    0.6395   -2.7158    0.7184 H   0  0  0  0  0  0  0  0  0  0  0  0
    2.6508   -2.9860    1.3752 C   0  0  0  0  0  0  0  0  0  0  0  0
    2.7440   -2.8048    2.4508 H   0  0  0  0  0  0  0  0  0  0  0  0
    2.4933   -4.0565    1.2151 H   0  0  0  0  0  0  0  0  0  0  0  0
    3.5852   -2.6977    0.8834 H   0  0  0  0  0  0  0  0  0  0  0  0
  1  2  1  0  0  0  0
  2  3  1  0  0  0  0
  2  4  1  0  0  0  0
  2  5  1  0  0  0  0
  5  6  2  0  0  0  0
  5  7  1  0  0  0  0
  7  8  1  0  0  0  0
  7  9  1  0  0  0  0
  9 10  1  0  0  0  0
  9 11  1  0  0  0  0
  9 17  1  0  0  0  0
 11 12  1  0  0  0  0
 11 13  1  0  0  0  0
 11 14  1  0  0  0  0
 14 15  1  0  0  0  0
 14 16  2  0  0  0  0
 17 18  2  0  0  0  0
 17 19  1  0  0  0  0
 19 20  1  0  0  0  0
 19 21  1  0  0  0  0
 21 22  1  0  0  0  0
 21 23  1  0  0  0  0
 21 24  1  0  0  0  0
M  CHG  1  15  -1
M  END
$$$$

  -OEChem-01062216073D

 24 23  0     1  0  0  0  0  0999 V2000
   -3.4239   -3.0246    0.9892 H   0  0  0  0  0  0  0  0  0  0  0  0
   -3.1499   -2.0318    0.6212 C   0  0  0  0  0  0  0  0  0  0  0  0
   -3.6485   -1.2790    1.2374 H   0  0  0  0  0  0  0  0  0  0  0  0
   -3.4934   -1.9301   -0.4112 H   0  0  0  0  0  0  0  0  0  0  0  0
   -1.6452   -1.8385    0.6875 C   0  0  0  0  0  0  0  0  0  0  0  0
   -0.9526   -2.7842    1.0230 O   0  0  0  0  0  0  0  0  0  0  0  0
   -1.1387   -0.6110    0.3146 N   0  0  0  0  0  0  0  0  0  0  0  0
   -1.8500    0.0563    0.0173 H   0  0  0  0  0  0  0  0  0  0  0  0
    0.2183   -0.0194    0.3524 C   0  0  1  0  0  0  0  0  0  0  0  0
    0.5078    0.2146   -0.6769 H   0  0  0  0  0  0  0  0  0  0  0  0
   -0.0165    1.2968    1.1345 C   0  0  0  0  0  0  0  0  0  0  0  0
   -0.4965    1.0836    2.0941 H   0  0  0  0  0  0  0  0  0  0  0  0
    0.9400    1.7818    1.3431 H   0  0  0  0  0  0  0  0  0  0  0  0
   -0.8456    2.3091    0.3462 C   0  0  0  0  0  0  0  0  0  0  0  0
   -0.7872    2.2940   -0.9085 O   0  5  0  0  0  0  0  0  0  0  0  0
   -1.6607    2.9960    1.0061 O   0  0  0  0  0  0  0  0  0  0  0  0
    1.4363   -0.8296    0.9016 C   0  0  0  0  0  0  0  0  0  0  0  0
    2.3323   -0.2847    1.5421 O   0  0  0  0  0  0  0  0  0  0  0  0
    1.6454   -2.1474    0.5387 N   0  0  0  0  0  0  0  0  0  0  0  0
    0.7786   -2.6394    0.3135 H   0  0  0  0  0  0  0  0  0  0  0  0
    2.7430   -2.9463    1.0650 C   0  0  0  0  0  0  0  0  0  0  0  0
    2.6768   -3.0151    2.1556 H   0  0  0  0  0  0  0  0  0  0  0  0
    2.7016   -3.9573    0.6490 H   0  0  0  0  0  0  0  0  0  0  0  0
    3.7062   -2.5020    0.7941 H   0  0  0  0  0  0  0  0  0  0  0  0
  1  2  1  0  0  0  0
  2  3  1  0  0  0  0
  2  4  1  0  0  0  0
  2  5  1  0  0  0  0
  5  6  2  0  0  0  0
  5  7  1  0  0  0  0
  7  8  1  0  0  0  0
  7  9  1  0  0  0  0
  9 10  1  0  0  0  0
  9 11  1  0  0  0  0
  9 17  1  0  0  0  0
 11 12  1  0  0  0  0
 11 13  1  0  0  0  0
 11 14  1  0  0  0  0
 14 15  1  0  0  0  0
 14 16  2  0  0  0  0
 17 18  2  0  0  0  0
 17 19  1  0  0  0  0
 19 20  1  0  0  0  0
 19 21  1  0  0  0  0
 21 22  1  0  0  0  0
 21 23  1  0  0  0  0
 21 24  1  0  0  0  0
M  CHG  1  15  -1
M  END
$$$$

  -OEChem-01062216073D

 24 23  0     1  0  0  0  0  0999 V2000
   -3.2703   -3.0976    1.0514 H   0  0  0  0  0  0  0  0  0  0  0  0
   -3.0556   -2.0934    0.6757 C   0  0  0  0  0  0  0  0  0  0  0  0
   -3.5424   -1.3632    1.3275 H   0  0  0  0  0  0  0  0  0  0  0  0
   -3.4642   -1.9980   -0.3335 H   0  0  0  0  0  0  0  0  0  0  0  0
   -1.5575   -1.8470    0.6532 C   0  0  0  0  0  0  0  0  0  0  0  0
   -0.8076   -2.7809    0.8846 O   0  0  0  0  0  0  0  0  0  0  0  0
   -1.1091   -0.5971    0.2811 N   0  0  0  0  0  0  0  0  0  0  0  0
   -1.8473    0.0647    0.0446 H   0  0  0  0  0  0  0  0  0  0  0  0
    0.2327    0.0206    0.3435 C   0  0  1  0  0  0  0  0  0  0  0  0
    0.5426    0.2622   -0.6780 H   0  0  0  0  0  0  0  0  0  0  0  0
   -0.0148    1.3318    1.1266 C   0  0  0  0  0  0  0  0  0  0  0  0
   -0.5013    1.1131    2.0816 H   0  0  0  0  0  0  0  0  0  0  0  0
    0.9410    1.8154    1.3433 H   0  0  0  0  0  0  0  0  0  0  0  0
   -0.8423    2.3427    0.3357 C   0  0  0  0  0  0  0  0  0  0  0  0
   -0.7733    2.3317   -0.9186 O   0  5  0  0  0  0  0  0  0  0  0  0
   -1.6637    3.0262    0.9911 O   0  0  0  0  0  0  0  0  0  0  0  0
    1.4244   -0.8052    0.9182 C   0  0  0  0  0  0  0  0  0  0  0  0
    2.1634   -0.3630    1.7949 O   0  0  0  0  0  0  0  0  0  0  0  0
    1.7898   -1.9940    0.3124 N   0  0  0  0  0  0  0  0  0  0  0  0
    0.9899   -2.4777   -0.0961 H   0  0  0  0  0  0  0  0  0  0  0  0
    2.8669   -2.8276    0.8260 C   0  0  0  0  0  0  0  0  0  0  0  0
    2.6511   -3.1407    1.8527 H   0  0  0  0  0  0  0  0  0  0  0  0
    2.9759   -3.7212    0.2048 H   0  0  0  0  0  0  0  0  0  0  0  0
    3.8157   -2.2814    0.8127 H   0  0  0  0  0  0  0  0  0  0  0  0
  1  2  1  0  0  0  0
  2  3  1  0  0  0  0
  2  4  1  0  0  0  0
  2  5  1  0  0  0  0
  5  6  2  0  0  0  0
  5  7  1  0  0  0  0
  7  8  1  0  0  0  0
  7  9  1  0  0  0  0
  9 10  1  0  0  0  0
  9 11  1  0  0  0  0
  9 17  1  0  0  0  0
 11 12  1  0  0  0  0
 11 13  1  0  0  0  0
 11 14  1  0  0  0  0
 14 15  1  0  0  0  0
 14 16  2  0  0  0  0
 17 18  2  0  0  0  0
 17 19  1  0  0  0  0
 19 20  1  0  0  0  0
 19 21  1  0  0  0  0
 21 22  1  0  0  0  0
 21 23  1  0  0  0  0
 21 24  1  0  0  0  0
M  CHG  1  15  -1
M  END
$$$$

  -OEChem-01062216073D

 24 23  0     1  0  0  0  0  0999 V2000
   -3.1424   -3.1586    1.0883 H   0  0  0  0  0  0  0  0  0  0  0  0
   -2.9751   -2.1419    0.7222 C   0  0  0  0  0  0  0  0  0  0  0  0
   -3.4474   -1.4382    1.4126 H   0  0  0  0  0  0  0  0  0  0  0  0
   -3.4377   -2.0390   -0.2625 H   0  0  0  0  0  0  0  0  0  0  0  0
   -1.4873   -1.8528    0.6287 C   0  0  0  0  0  0  0  0  0  0  0  0
   -0.6975   -2.7681    0.7959 O   0  0  0  0  0  0  0  0  0  0  0  0
   -1.0890   -0.5876    0.2515 N   0  0  0  0  0  0  0  0  0  0  0  0
   -1.8488    0.0646    0.0637 H   0  0  0  0  0  0  0  0  0  0  0  0
    0.2389    0.0515    0.3335 C   0  0  1  0  0  0  0  0  0  0  0  0
    0.5640    0.3002   -0.6817 H   0  0  0  0  0  0  0  0  0  0  0  0
   -0.0187    1.3585    1.1172 C   0  0  0  0  0  0  0  0  0  0  0  0
   -0.5133    1.1347    2.0672 H   0  0  0  0  0  0  0  0  0  0  0  0
    0.9367    1.8388    1.3438 H   0  0  0  0  0  0  0  0  0  0  0  0
   -0.8455    2.3679    0.3240 C   0  0  0  0  0  0  0  0  0  0  0  0
   -0.7679    2.3596   -0.9298 O   0  5  0  0  0  0  0  0  0  0  0  0
   -1.6674    3.0541    0.9760 O   0  0  0  0  0  0  0  0  0  0  0  0
    1.4108   -0.7804    0.9312 C   0  0  0  0  0  0  0  0  0  0  0  0
    1.9538   -0.4842    1.9933 O   0  0  0  0  0  0  0  0  0  0  0  0
    1.9771   -1.7828    0.1629 N   0  0  0  0  0  0  0  0  0  0  0  0
    1.3289   -2.1817   -0.5111 H   0  0  0  0  0  0  0  0  0  0  0  0
    3.0227   -2.6554    0.6765 C   0  0  0  0  0  0  0  0  0  0  0  0
    2.6574   -3.2209    1.5398 H   0  0  0  0  0  0  0  0  0  0  0  0
    3.3328   -3.3628   -0.0981 H   0  0  0  0  0  0  0  0  0  0  0  0
    3.8978   -2.0712    0.9791 H   0  0  0  0  0  0  0  0  0  0  0  0
  1  2  1  0  0  0  0
  2  3  1  0  0  0  0
  2  4  1  0  0  0  0
  2  5  1  0  0  0  0
  5  6  2  0  0  0  0
  5  7  1  0  0  0  0
  7  8  1  0  0  0  0
  7  9  1  0  0  0  0
  9 10  1  0  0  0  0
  9 11  1  0  0  0  0
  9 17  1  0  0  0  0
 11 12  1  0  0  0  0
 11 13  1  0  0  0  0
 11 14  1  0  0  0  0
 14 15  1  0  0  0  0
 14 16  2  0  0  0  0
 17 18  2  0  0  0  0
 17 19  1  0  0  0  0
 19 20  1  0  0  0  0
 19 21  1  0  0  0  0
 21 22  1  0  0  0  0
 21 23  1  0  0  0  0
 21 24  1  0  0  0  0
M  CHG  1  15  -1
M  END
$$$$

  -OEChem-01062216073D

 24 23  0     1  0  0  0  0  0999 V2000
   -3.0722   -3.1992    1.1116 H   0  0  0  0  0  0  0  0  0  0  0  0
   -2.9327   -2.1790    0.7435 C   0  0  0  0  0  0  0  0  0  0  0  0
   -3.4073   -1.4857    1.4427 H   0  0  0  0  0  0  0  0  0  0  0  0
   -3.4145   -2.0852   -0.2329 H   0  0  0  0  0  0  0  0  0  0  0  0
   -1.4529   -1.8599    0.6240 C   0  0  0  0  0  0  0  0  0  0  0  0
   -0.6427   -2.7626    0.7609 O   0  0  0  0  0  0  0  0  0  0  0  0
   -1.0852   -0.5873    0.2386 N   0  0  0  0  0  0  0  0  0  0  0  0
   -1.8577    0.0566    0.0792 H   0  0  0  0  0  0  0  0  0  0  0  0
    0.2340    0.0655    0.3303 C   0  0  1  0  0  0  0  0  0  0  0  0
    0.5641    0.3150   -0.6829 H   0  0  0  0  0  0  0  0  0  0  0  0
   -0.0195    1.3732    1.1112 C   0  0  0  0  0  0  0  0  0  0  0  0
   -0.5172    1.1523    2.0601 H   0  0  0  0  0  0  0  0  0  0  0  0
    0.9392    1.8458    1.3403 H   0  0  0  0  0  0  0  0  0  0  0  0
   -0.8430    2.3843    0.3169 C   0  0  0  0  0  0  0  0  0  0  0  0
   -0.7646    2.3732   -0.9370 O   0  5  0  0  0  0  0  0  0  0  0  0
   -1.6527    3.0856    0.9678 O   0  0  0  0  0  0  0  0  0  0  0  0
    1.3969   -0.7625    0.9440 C   0  0  0  0  0  0  0  0  0  0  0  0
    1.7386   -0.6426    2.1185 O   0  0  0  0  0  0  0  0  0  0  0  0
    2.1776   -1.5376    0.1037 N   0  0  0  0  0  0  0  0  0  0  0  0
    1.7406   -1.7684   -0.7828 H   0  0  0  0  0  0  0  0  0  0  0  0
    3.2134   -2.4284    0.6047 C   0  0  0  0  0  0  0  0  0  0  0  0
    2.7791   -3.1795    1.2729 H   0  0  0  0  0  0  0  0  0  0  0  0
    3.7003   -2.9426   -0.2290 H   0  0  0  0  0  0  0  0  0  0  0  0
    3.9745   -1.8633    1.1525 H   0  0  0  0  0  0  0  0  0  0  0  0
  1  2  1  0  0  0  0
  2  3  1  0  0  0  0
  2  4  1  0  0  0  0
  2  5  1  0  0  0  0
  5  6  2  0  0  0  0
  5  7  1  0  0  0  0
  7  8  1  0  0  0  0
  7  9  1  0  0  0  0
  9 10  1  0  0  0  0
  9 11  1  0  0  0  0
  9 17  1  0  0  0  0
 11 12  1  0  0  0  0
 11 13  1  0  0  0  0
 11 14  1  0  0  0  0
 14 15  1  0  0  0  0
 14 16  2  0  0  0  0
 17 18  2  0  0  0  0
 17 19  1  0  0  0  0
 19 20  1  0  0  0  0
 19 21  1  0  0  0  0
 21 22  1  0  0  0  0
 21 23  1  0  0  0  0
 21 24  1  0  0  0  0
M  CHG  1  15  -1
M  END
$$$$

  -OEChem-01062216073D

 24 23  0     1  0  0  0  0  0999 V2000
   -3.0588   -3.2127    1.1176 H   0  0  0  0  0  0  0  0  0  0  0  0
   -2.9288   -2.1834    0.7720 C   0  0  0  0  0  0  0  0  0  0  0  0
   -3.3624   -1.5071    1.5132 H   0  0  0  0  0  0  0  0  0  0  0  0
   -3.4563   -2.0585   -0.1768 H   0  0  0  0  0  0  0  0  0  0  0  0
   -1.4540   -1.8718    0.5894 C   0  0  0  0  0  0  0  0  0  0  0  0
   -0.6448   -2.7833    0.6608 O   0  0  0  0  0  0  0  0  0  0  0  0
   -1.0940   -0.5969    0.2044 N   0  0  0  0  0  0  0  0  0  0  0  0
   -1.8688    0.0521    0.0851 H   0  0  0  0  0  0  0  0  0  0  0  0
    0.2240    0.0534    0.3183 C   0  0  1  0  0  0  0  0  0  0  0  0
    0.5653    0.3043   -0.6908 H   0  0  0  0  0  0  0  0  0  0  0  0
   -0.0251    1.3593    1.1021 C   0  0  0  0  0  0  0  0  0  0  0  0
   -0.5361    1.1370    2.0436 H   0  0  0  0  0  0  0  0  0  0  0  0
    0.9359    1.8198    1.3456 H   0  0  0  0  0  0  0  0  0  0  0  0
   -0.8310    2.3834    0.3068 C   0  0  0  0  0  0  0  0  0  0  0  0
   -0.7407    2.3794   -0.9462 O   0  5  0  0  0  0  0  0  0  0  0  0
   -1.6314    3.0969    0.9558 O   0  0  0  0  0  0  0  0  0  0  0  0
    1.3762   -0.7728    0.9518 C   0  0  0  0  0  0  0  0  0  0  0  0
    1.5362   -0.8359    2.1688 O   0  0  0  0  0  0  0  0  0  0  0  0
    2.3598   -1.2946    0.1286 N   0  0  0  0  0  0  0  0  0  0  0  0
    2.1285   -1.3353   -0.8584 H   0  0  0  0  0  0  0  0  0  0  0  0
    3.4366   -2.1383    0.6248 C   0  0  0  0  0  0  0  0  0  0  0  0
    3.0290   -3.0487    1.0761 H   0  0  0  0  0  0  0  0  0  0  0  0
    4.0994   -2.4233   -0.1974 H   0  0  0  0  0  0  0  0  0  0  0  0
    4.0286   -1.6043    1.3749 H   0  0  0  0  0  0  0  0  0  0  0  0
  1  2  1  0  0  0  0
  2  3  1  0  0  0  0
  2  4  1  0  0  0  0
  2  5  1  0  0  0  0
  5  6  2  0  0  0  0
  5  7  1  0  0  0  0
  7  8  1  0  0  0  0
  7  9  1  0  0  0  0
  9 10  1  0  0  0  0
  9 11  1  0  0  0  0
  9 17  1  0  0  0  0
 11 12  1  0  0  0  0
 11 13  1  0  0  0  0
 11 14  1  0  0  0  0
 14 15  1  0  0  0  0
 14 16  2  0  0  0  0
 17 18  2  0  0  0  0
 17 19  1  0  0  0  0
 19 20  1  0  0  0  0
 19 21  1  0  0  0  0
 21 22  1  0  0  0  0
 21 23  1  0  0  0  0
 21 24  1  0  0  0  0
M  CHG  1  15  -1
M  END
$$$$

  -OEChem-01062216073D

 24 23  0     1  0  0  0  0  0999 V2000
   -3.0751   -3.2120    1.1149 H   0  0  0  0  0  0  0  0  0  0  0  0
   -2.9424   -2.1748    0.7950 C   0  0  0  0  0  0  0  0  0  0  0  0
   -3.3183   -1.5143    1.5808 H   0  0  0  0  0  0  0  0  0  0  0  0
   -3.5199   -2.0082   -0.1176 H   0  0  0  0  0  0  0  0  0  0  0  0
   -1.4737   -1.8866    0.5396 C   0  0  0  0  0  0  0  0  0  0  0  0
   -0.6808   -2.8152    0.5286 O   0  0  0  0  0  0  0  0  0  0  0  0
   -1.1080   -0.6116    0.1619 N   0  0  0  0  0  0  0  0  0  0  0  0
   -1.8777    0.0498    0.0903 H   0  0  0  0  0  0  0  0  0  0  0  0
    0.2144    0.0232    0.3011 C   0  0  1  0  0  0  0  0  0  0  0  0
    0.5682    0.2761   -0.7029 H   0  0  0  0  0  0  0  0  0  0  0  0
   -0.0238    1.3241    1.0951 C   0  0  0  0  0  0  0  0  0  0  0  0
   -0.5496    1.0992    2.0280 H   0  0  0  0  0  0  0  0  0  0  0  0
    0.9413    1.7662    1.3555 H   0  0  0  0  0  0  0  0  0  0  0  0
   -0.8042    2.3701    0.3037 C   0  0  0  0  0  0  0  0  0  0  0  0
   -0.6999    2.3793   -0.9480 O   0  5  0  0  0  0  0  0  0  0  0  0
   -1.5952    3.0931    0.9535 O   0  0  0  0  0  0  0  0  0  0  0  0
    1.3542   -0.8080    0.9488 C   0  0  0  0  0  0  0  0  0  0  0  0
    1.3698   -1.0510    2.1535 O   0  0  0  0  0  0  0  0  0  0  0  0
    2.4991   -1.0645    0.2135 N   0  0  0  0  0  0  0  0  0  0  0  0
    2.4435   -0.8868   -0.7839 H   0  0  0  0  0  0  0  0  0  0  0  0
    3.6375   -1.8047    0.7365 C   0  0  0  0  0  0  0  0  0  0  0  0
    3.3352   -2.8175    1.0221 H   0  0  0  0  0  0  0  0  0  0  0  0
    4.4197   -1.8764   -0.0248 H   0  0  0  0  0  0  0  0  0  0  0  0
    4.0543   -1.2979    1.6127 H   0  0  0  0  0  0  0  0  0  0  0  0
  1  2  1  0  0  0  0
  2  3  1  0  0  0  0
  2  4  1  0  0  0  0
  2  5  1  0  0  0  0
  5  6  2  0  0  0  0
  5  7  1  0  0  0  0
  7  8  1  0  0  0  0
  7  9  1  0  0  0  0
  9 10  1  0  0  0  0
  9 11  1  0  0  0  0
  9 17  1  0  0  0  0
 11 12  1  0  0  0  0
 11 13  1  0  0  0  0
 11 14  1  0  0  0  0
 14 15  1  0  0  0  0
 14 16  2  0  0  0  0
 17 18  2  0  0  0  0
 17 19  1  0  0  0  0
 19 20  1  0  0  0  0
 19 21  1  0  0  0  0
 21 22  1  0  0  0  0
 21 23  1  0  0  0  0
 21 24  1  0  0  0  0
M  CHG  1  15  -1
M  END
$$$$

  -OEChem-01062216073D

 24 23  0     1  0  0  0  0  0999 V2000
   -3.1036   -3.2031    1.1207 H   0  0  0  0  0  0  0  0  0  0  0  0
   -2.9638   -2.1653    0.8056 C   0  0  0  0  0  0  0  0  0  0  0  0
   -3.2952   -1.5060    1.6120 H   0  0  0  0  0  0  0  0  0  0  0  0
   -3.5731   -1.9781   -0.0820 H   0  0  0  0  0  0  0  0  0  0  0  0
   -1.5009   -1.9031    0.4953 C   0  0  0  0  0  0  0  0  0  0  0  0
   -0.7352   -2.8503    0.4058 O   0  0  0  0  0  0  0  0  0  0  0  0
   -1.1209   -0.6295    0.1271 N   0  0  0  0  0  0  0  0  0  0  0  0
   -1.8813    0.0450    0.0920 H   0  0  0  0  0  0  0  0  0  0  0  0
    0.2108   -0.0166    0.2796 C   0  0  1  0  0  0  0  0  0  0  0  0
    0.5683    0.2397   -0.7222 H   0  0  0  0  0  0  0  0  0  0  0  0
   -0.0068    1.2769    1.0916 C   0  0  0  0  0  0  0  0  0  0  0  0
   -0.5384    1.0466    2.0199 H   0  0  0  0  0  0  0  0  0  0  0  0
    0.9647    1.6991    1.3612 H   0  0  0  0  0  0  0  0  0  0  0  0
   -0.7664    2.3499    0.3170 C   0  0  0  0  0  0  0  0  0  0  0  0
   -0.6596    2.3777   -0.9339 O   0  5  0  0  0  0  0  0  0  0  0  0
   -1.5372    3.0832    0.9791 O   0  0  0  0  0  0  0  0  0  0  0  0
    1.3449   -0.8556    0.9266 C   0  0  0  0  0  0  0  0  0  0  0  0
    1.2618   -1.2709    2.0802 O   0  0  0  0  0  0  0  0  0  0  0  0
    2.5958   -0.8512    0.3321 N   0  0  0  0  0  0  0  0  0  0  0  0
    2.6653   -0.4270   -0.5872 H   0  0  0  0  0  0  0  0  0  0  0  0
    3.7769   -1.4582    0.9276 C   0  0  0  0  0  0  0  0  0  0  0  0
    3.5979   -2.5180    1.1358 H   0  0  0  0  0  0  0  0  0  0  0  0
    4.6258   -1.3787    0.2424 H   0  0  0  0  0  0  0  0  0  0  0  0
    4.0365   -0.9513    1.8625 H   0  0  0  0  0  0  0  0  0  0  0  0
  1  2  1  0  0  0  0
  2  3  1  0  0  0  0
  2  4  1  0  0  0  0
  2  5  1  0  0  0  0
  5  6  2  0  0  0  0
  5  7  1  0  0  0  0
  7  8  1  0  0  0  0
  7  9  1  0  0  0  0
  9 10  1  0  0  0  0
  9 11  1  0  0  0  0
  9 17  1  0  0  0  0
 11 12  1  0  0  0  0
 11 13  1  0  0  0  0
 11 14  1  0  0  0  0
 14 15  1  0  0  0  0
 14 16  2  0  0  0  0
 17 18  2  0  0  0  0
 17 19  1  0  0  0  0
 19 20  1  0  0  0  0
 19 21  1  0  0  0  0
 21 22  1  0  0  0  0
 21 23  1  0  0  0  0
 21 24  1  0  0  0  0
M  CHG  1  15  -1
M  END
$$$$

  -OEChem-01062216073D

 24 23  0     1  0  0  0  0  0999 V2000
   -3.1075   -3.1873    1.1447 H   0  0  0  0  0  0  0  0  0  0  0  0
   -2.9625   -2.1475    0.8396 C   0  0  0  0  0  0  0  0  0  0  0  0
   -3.2217   -1.4964    1.6783 H   0  0  0  0  0  0  0  0  0  0  0  0
   -3.6247   -1.9276   -0.0013 H   0  0  0  0  0  0  0  0  0  0  0  0
   -1.5173   -1.9159    0.4366 C   0  0  0  0  0  0  0  0  0  0  0  0
   -0.7934   -2.8799    0.2403 O   0  0  0  0  0  0  0  0  0  0  0  0
   -1.1242   -0.6436    0.0795 N   0  0  0  0  0  0  0  0  0  0  0  0
   -1.8736    0.0434    0.0965 H   0  0  0  0  0  0  0  0  0  0  0  0
    0.2172   -0.0542    0.2431 C   0  0  1  0  0  0  0  0  0  0  0  0
    0.5780    0.2111   -0.7555 H   0  0  0  0  0  0  0  0  0  0  0  0
    0.0156    1.2266    1.0801 C   0  0  0  0  0  0  0  0  0  0  0  0
   -0.5203    0.9837    2.0027 H   0  0  0  0  0  0  0  0  0  0  0  0
    0.9910    1.6321    1.3607 H   0  0  0  0  0  0  0  0  0  0  0  0
   -0.7280    2.3272    0.3302 C   0  0  0  0  0  0  0  0  0  0  0  0
   -0.6203    2.3816   -0.9192 O   0  5  0  0  0  0  0  0  0  0  0  0
   -1.4827    3.0605    1.0105 O   0  0  0  0  0  0  0  0  0  0  0  0
    1.3493   -0.9011    0.8842 C   0  0  0  0  0  0  0  0  0  0  0  0
    1.1953   -1.4908    1.9507 O   0  0  0  0  0  0  0  0  0  0  0  0
    2.6516   -0.6520    0.4829 N   0  0  0  0  0  0  0  0  0  0  0  0
    2.7738   -0.0071   -0.2915 H   0  0  0  0  0  0  0  0  0  0  0  0
    3.8263   -1.1406    1.1901 C   0  0  0  0  0  0  0  0  0  0  0  0
    3.7829   -2.2292    1.2976 H   0  0  0  0  0  0  0  0  0  0  0  0
    4.7326   -0.8852    0.6336 H   0  0  0  0  0  0  0  0  0  0  0  0
    3.8886   -0.6876    2.1846 H   0  0  0  0  0  0  0  0  0  0  0  0
  1  2  1  0  0  0  0
  2  3  1  0  0  0  0
  2  4  1  0  0  0  0
  2  5  1  0  0  0  0
  5  6  2  0  0  0  0
  5  7  1  0  0  0  0
  7  8  1  0  0  0  0
  7  9  1  0  0  0  0
  9 10  1  0  0  0  0
  9 11  1  0  0  0  0
  9 17  1  0  0  0  0
 11 12  1  0  0  0  0
 11 13  1  0  0  0  0
 11 14  1  0  0  0  0
 14 15  1  0  0  0  0
 14 16  2  0  0  0  0
 17 18  2  0  0  0  0
 17 19  1  0  0  0  0
 19 20  1  0  0  0  0
 19 21  1  0  0  0  0
 21 22  1  0  0  0  0
 21 23  1  0  0  0  0
 21 24  1  0  0  0  0
M  CHG  1  15  -1
M  END
$$$$

  -OEChem-01062216073D

 24 23  0     1  0  0  0  0  0999 V2000
   -3.1244   -3.1729    1.1352 H   0  0  0  0  0  0  0  0  0  0  0  0
   -2.9577   -2.1269    0.8636 C   0  0  0  0  0  0  0  0  0  0  0  0
   -3.1593   -1.5012    1.7369 H   0  0  0  0  0  0  0  0  0  0  0  0
   -3.6467   -1.8532    0.0609 H   0  0  0  0  0  0  0  0  0  0  0  0
   -1.5237   -1.9263    0.4073 C   0  0  0  0  0  0  0  0  0  0  0  0
   -0.8447   -2.9050    0.1375 O   0  0  0  0  0  0  0  0  0  0  0  0
   -1.1115   -0.6588    0.0560 N   0  0  0  0  0  0  0  0  0  0  0  0
   -1.8511    0.0377    0.0954 H   0  0  0  0  0  0  0  0  0  0  0  0
    0.2363   -0.0826    0.2231 C   0  0  1  0  0  0  0  0  0  0  0  0
    0.5975    0.1881   -0.7739 H   0  0  0  0  0  0  0  0  0  0  0  0
    0.0250    1.1919    1.0712 C   0  0  0  0  0  0  0  0  0  0  0  0
   -0.5173    0.9384    1.9872 H   0  0  0  0  0  0  0  0  0  0  0  0
    0.9940    1.6023    1.3655 H   0  0  0  0  0  0  0  0  0  0  0  0
   -0.7154    2.2989    0.3281 C   0  0  0  0  0  0  0  0  0  0  0  0
   -0.5992    2.3668   -0.9195 O   0  5  0  0  0  0  0  0  0  0  0  0
   -1.4744    3.0241    1.0119 O   0  0  0  0  0  0  0  0  0  0  0  0
    1.3819   -0.9160    0.8619 C   0  0  0  0  0  0  0  0  0  0  0  0
    1.2004   -1.6858    1.8005 O   0  0  0  0  0  0  0  0  0  0  0  0
    2.6752   -0.4462    0.6938 N   0  0  0  0  0  0  0  0  0  0  0  0
    2.7874    0.3521    0.0760 H   0  0  0  0  0  0  0  0  0  0  0  0
    3.8119   -0.8850    1.4911 C   0  0  0  0  0  0  0  0  0  0  0  0
    3.9205   -1.9731    1.4363 H   0  0  0  0  0  0  0  0  0  0  0  0
    4.7318   -0.4274    1.1156 H   0  0  0  0  0  0  0  0  0  0  0  0
    3.6796   -0.5935    2.5380 H   0  0  0  0  0  0  0  0  0  0  0  0
  1  2  1  0  0  0  0
  2  3  1  0  0  0  0
  2  4  1  0  0  0  0
  2  5  1  0  0  0  0
  5  6  2  0  0  0  0
  5  7  1  0  0  0  0
  7  8  1  0  0  0  0
  7  9  1  0  0  0  0
  9 10  1  0  0  0  0
  9 11  1  0  0  0  0
  9 17  1  0  0  0  0
 11 12  1  0  0  0  0
 11 13  1  0  0  0  0
 11 14  1  0  0  0  0
 14 15  1  0  0  0  0
 14 16  2  0  0  0  0
 17 18  2  0  0  0  0
 17 19  1  0  0  0  0
 19 20  1  0  0  0  0
 19 21  1  0  0  0  0
 21 22  1  0  0  0  0
 21 23  1  0  0  0  0
 21 24  1  0  0  0  0
M  CHG  1  15  -1
M  END
$$$$

  -OEChem-01062216073D

 24 23  0     1  0  0  0  0  0999 V2000
   -3.1243   -3.3238    0.9749 H   0  0  0  0  0  0  0  0  0  0  0  0
   -2.9321   -2.3462    0.5241 C   0  0  0  0  0  0  0  0  0  0  0  0
   -3.7468   -1.6674    0.7889 H   0  0  0  0  0  0  0  0  0  0  0  0
   -2.8996   -2.4607   -0.5621 H   0  0  0  0  0  0  0  0  0  0  0  0
   -1.6111   -1.7895    1.0254 C   0  0  0  0  0  0  0  0  0  0  0  0
   -1.0785   -2.3239    1.9849 O   0  0  0  0  0  0  0  0  0  0  0  0
   -1.1765   -0.5784    0.5259 N   0  0  0  0  0  0  0  0  0  0  0  0
   -1.8175   -0.1216   -0.1166 H   0  0  0  0  0  0  0  0  0  0  0  0
    0.1894   -0.0221    0.5147 C   0  0  1  0  0  0  0  0  0  0  0  0
    0.3744    0.3470   -0.4988 H   0  0  0  0  0  0  0  0  0  0  0  0
    0.1507    1.1792    1.4873 C   0  0  0  0  0  0  0  0  0  0  0  0
   -0.2475    0.8552    2.4535 H   0  0  0  0  0  0  0  0  0  0  0  0
    1.1565    1.5681    1.6553 H   0  0  0  0  0  0  0  0  0  0  0  0
   -0.6879    2.3383    0.9517 C   0  0  0  0  0  0  0  0  0  0  0  0
   -0.7761    2.4888   -0.2939 O   0  5  0  0  0  0  0  0  0  0  0  0
   -1.2124    3.1006    1.7970 O   0  0  0  0  0  0  0  0  0  0  0  0
    1.4173   -0.9390    0.7844 C   0  0  0  0  0  0  0  0  0  0  0  0
    1.4052   -2.1433    0.5497 O   0  0  0  0  0  0  0  0  0  0  0  0
    2.6723   -0.3502    0.7651 N   0  0  0  0  0  0  0  0  0  0  0  0
    2.6957    0.6640    0.8144 H   0  0  0  0  0  0  0  0  0  0  0  0
    3.9280   -1.0867    0.7323 C   0  0  0  0  0  0  0  0  0  0  0  0
    4.0251   -1.6348   -0.2103 H   0  0  0  0  0  0  0  0  0  0  0  0
    4.7705   -0.3946    0.8198 H   0  0  0  0  0  0  0  0  0  0  0  0
    3.9770   -1.7974    1.5637 H   0  0  0  0  0  0  0  0  0  0  0  0
  1  2  1  0  0  0  0
  2  3  1  0  0  0  0
  2  4  1  0  0  0  0
  2  5  1  0  0  0  0
  5  6  2  0  0  0  0
  5  7  1  0  0  0  0
  7  8  1  0  0  0  0
  7  9  1  0  0  0  0
  9 10  1  0  0  0  0
  9 11  1  0  0  0  0
  9 17  1  0  0  0  0
 11 12  1  0  0  0  0
 11 13  1  0  0  0  0
 11 14  1  0  0  0  0
 14 15  1  0  0  0  0
 14 16  2  0  0  0  0
 17 18  2  0  0  0  0
 17 19  1  0  0  0  0
 19 20  1  0  0  0  0
 19 21  1  0  0  0  0
 21 22  1  0  0  0  0
 21 23  1  0  0  0  0
 21 24  1  0  0  0  0
M  CHG  1  15  -1
M  END
$$$$

  -OEChem-01062216073D

 24 23  0     1  0  0  0  0  0999 V2000
   -3.0825   -3.3285    0.9920 H   0  0  0  0  0  0  0  0  0  0  0  0
   -2.9119   -2.3466    0.5419 C   0  0  0  0  0  0  0  0  0  0  0  0
   -3.7216   -1.6752    0.8382 H   0  0  0  0  0  0  0  0  0  0  0  0
   -2.9153   -2.4538   -0.5455 H   0  0  0  0  0  0  0  0  0  0  0  0
   -1.5791   -1.7829    1.0020 C   0  0  0  0  0  0  0  0  0  0  0  0
   -0.9942   -2.3335    1.9218 O   0  0  0  0  0  0  0  0  0  0  0  0
   -1.1734   -0.5615    0.5034 N   0  0  0  0  0  0  0  0  0  0  0  0
   -1.8313   -0.1047   -0.1221 H   0  0  0  0  0  0  0  0  0  0  0  0
    0.1836    0.0142    0.4879 C   0  0  1  0  0  0  0  0  0  0  0  0
    0.3716    0.3951   -0.5207 H   0  0  0  0  0  0  0  0  0  0  0  0
    0.1264    1.2058    1.4734 C   0  0  0  0  0  0  0  0  0  0  0  0
   -0.2574    0.8662    2.4401 H   0  0  0  0  0  0  0  0  0  0  0  0
    1.1227    1.6191    1.6347 H   0  0  0  0  0  0  0  0  0  0  0  0
   -0.7364    2.3537    0.9522 C   0  0  0  0  0  0  0  0  0  0  0  0
   -0.8346    2.5163   -0.2909 O   0  5  0  0  0  0  0  0  0  0  0  0
   -1.2738    3.0938    1.8094 O   0  0  0  0  0  0  0  0  0  0  0  0
    1.3948   -0.9268    0.7536 C   0  0  0  0  0  0  0  0  0  0  0  0
    1.4239   -2.0630    0.2876 O   0  0  0  0  0  0  0  0  0  0  0  0
    2.6286   -0.3732    1.0584 N   0  0  0  0  0  0  0  0  0  0  0  0
    2.6282    0.6005    1.3457 H   0  0  0  0  0  0  0  0  0  0  0  0
    3.8753   -1.1241    1.1017 C   0  0  0  0  0  0  0  0  0  0  0  0
    4.1316   -1.4973    0.1052 H   0  0  0  0  0  0  0  0  0  0  0  0
    4.6887   -0.4813    1.4506 H   0  0  0  0  0  0  0  0  0  0  0  0
    3.7868   -1.9730    1.7873 H   0  0  0  0  0  0  0  0  0  0  0  0
  1  2  1  0  0  0  0
  2  3  1  0  0  0  0
  2  4  1  0  0  0  0
  2  5  1  0  0  0  0
  5  6  2  0  0  0  0
  5  7  1  0  0  0  0
  7  8  1  0  0  0  0
  7  9  1  0  0  0  0
  9 10  1  0  0  0  0
  9 11  1  0  0  0  0
  9 17  1  0  0  0  0
 11 12  1  0  0  0  0
 11 13  1  0  0  0  0
 11 14  1  0  0  0  0
 14 15  1  0  0  0  0
 14 16  2  0  0  0  0
 17 18  2  0  0  0  0
 17 19  1  0  0  0  0
 19 20  1  0  0  0  0
 19 21  1  0  0  0  0
 21 22  1  0  0  0  0
 21 23  1  0  0  0  0
 21 24  1  0  0  0  0
M  CHG  1  15  -1
M  END
$$$$

  -OEChem-01062216073D

 24 23  0     1  0  0  0  0  0999 V2000
   -3.0377   -3.3424    0.9904 H   0  0  0  0  0  0  0  0  0  0  0  0
   -2.8970   -2.3453    0.5639 C   0  0  0  0  0  0  0  0  0  0  0  0
   -3.6969   -1.6912    0.9197 H   0  0  0  0  0  0  0  0  0  0  0  0
   -2.9519   -2.4182   -0.5250 H   0  0  0  0  0  0  0  0  0  0  0  0
   -1.5480   -1.7836    0.9764 C   0  0  0  0  0  0  0  0  0  0  0  0
   -0.9098   -2.3615    1.8428 O   0  0  0  0  0  0  0  0  0  0  0  0
   -1.1683   -0.5520    0.4818 N   0  0  0  0  0  0  0  0  0  0  0  0
   -1.8494   -0.0856   -0.1111 H   0  0  0  0  0  0  0  0  0  0  0  0
    0.1785    0.0456    0.4584 C   0  0  1  0  0  0  0  0  0  0  0  0
    0.3598    0.4361   -0.5479 H   0  0  0  0  0  0  0  0  0  0  0  0
    0.1157    1.2291    1.4527 C   0  0  0  0  0  0  0  0  0  0  0  0
   -0.2477    0.8784    2.4234 H   0  0  0  0  0  0  0  0  0  0  0  0
    1.1081    1.6593    1.5966 H   0  0  0  0  0  0  0  0  0  0  0  0
   -0.7696    2.3676    0.9498 C   0  0  0  0  0  0  0  0  0  0  0  0
   -0.8870    2.5402   -0.2900 O   0  5  0  0  0  0  0  0  0  0  0  0
   -1.3163    3.0839    1.8213 O   0  0  0  0  0  0  0  0  0  0  0  0
    1.3832   -0.9059    0.7120 C   0  0  0  0  0  0  0  0  0  0  0  0
    1.4833   -1.9517    0.0744 O   0  0  0  0  0  0  0  0  0  0  0  0
    2.5403   -0.4345    1.3113 N   0  0  0  0  0  0  0  0  0  0  0  0
    2.4582    0.4435    1.8143 H   0  0  0  0  0  0  0  0  0  0  0  0
    3.7560   -1.2215    1.4575 C   0  0  0  0  0  0  0  0  0  0  0  0
    4.1710   -1.4699    0.4755 H   0  0  0  0  0  0  0  0  0  0  0  0
    4.5055   -0.6533    2.0160 H   0  0  0  0  0  0  0  0  0  0  0  0
    3.5473   -2.1491    2.0002 H   0  0  0  0  0  0  0  0  0  0  0  0
  1  2  1  0  0  0  0
  2  3  1  0  0  0  0
  2  4  1  0  0  0  0
  2  5  1  0  0  0  0
  5  6  2  0  0  0  0
  5  7  1  0  0  0  0
  7  8  1  0  0  0  0
  7  9  1  0  0  0  0
  9 10  1  0  0  0  0
  9 11  1  0  0  0  0
  9 17  1  0  0  0  0
 11 12  1  0  0  0  0
 11 13  1  0  0  0  0
 11 14  1  0  0  0  0
 14 15  1  0  0  0  0
 14 16  2  0  0  0  0
 17 18  2  0  0  0  0
 17 19  1  0  0  0  0
 19 20  1  0  0  0  0
 19 21  1  0  0  0  0
 21 22  1  0  0  0  0
 21 23  1  0  0  0  0
 21 24  1  0  0  0  0
M  CHG  1  15  -1
M  END
$$$$

  -OEChem-01062216073D

 24 23  0     1  0  0  0  0  0999 V2000
   -3.0311   -3.3301    1.0053 H   0  0  0  0  0  0  0  0  0  0  0  0
   -2.8939   -2.3321    0.5799 C   0  0  0  0  0  0  0  0  0  0  0  0
   -3.6664   -1.6686    0.9769 H   0  0  0  0  0  0  0  0  0  0  0  0
   -3.0001   -2.3952   -0.5059 H   0  0  0  0  0  0  0  0  0  0  0  0
   -1.5190   -1.7938    0.9342 C   0  0  0  0  0  0  0  0  0  0  0  0
   -0.8355   -2.4092    1.7379 O   0  0  0  0  0  0  0  0  0  0  0  0
   -1.1544   -0.5542    0.4485 N   0  0  0  0  0  0  0  0  0  0  0  0
   -1.8569   -0.0699   -0.1044 H   0  0  0  0  0  0  0  0  0  0  0  0
    0.1821    0.0648    0.4269 C   0  0  1  0  0  0  0  0  0  0  0  0
    0.3586    0.4686   -0.5753 H   0  0  0  0  0  0  0  0  0  0  0  0
    0.1106    1.2346    1.4358 C   0  0  0  0  0  0  0  0  0  0  0  0
   -0.2377    0.8685    2.4061 H   0  0  0  0  0  0  0  0  0  0  0  0
    1.1012    1.6739    1.5705 H   0  0  0  0  0  0  0  0  0  0  0  0
   -0.7931    2.3679    0.9555 C   0  0  0  0  0  0  0  0  0  0  0  0
   -0.9240    2.5571   -0.2801 O   0  5  0  0  0  0  0  0  0  0  0  0
   -1.3531    3.0544    1.8425 O   0  0  0  0  0  0  0  0  0  0  0  0
    1.3888   -0.8838    0.6754 C   0  0  0  0  0  0  0  0  0  0  0  0
    1.5902   -1.8236   -0.0906 O   0  0  0  0  0  0  0  0  0  0  0  0
    2.4151   -0.5295    1.5357 N   0  0  0  0  0  0  0  0  0  0  0  0
    2.2077    0.2258    2.1820 H   0  0  0  0  0  0  0  0  0  0  0  0
    3.5812   -1.3647    1.7800 C   0  0  0  0  0  0  0  0  0  0  0  0
    4.1586   -1.4949    0.8592 H   0  0  0  0  0  0  0  0  0  0  0  0
    4.2265   -0.8972    2.5293 H   0  0  0  0  0  0  0  0  0  0  0  0
    3.2749   -2.3487    2.1495 H   0  0  0  0  0  0  0  0  0  0  0  0
  1  2  1  0  0  0  0
  2  3  1  0  0  0  0
  2  4  1  0  0  0  0
  2  5  1  0  0  0  0
  5  6  2  0  0  0  0
  5  7  1  0  0  0  0
  7  8  1  0  0  0  0
  7  9  1  0  0  0  0
  9 10  1  0  0  0  0
  9 11  1  0  0  0  0
  9 17  1  0  0  0  0
 11 12  1  0  0  0  0
 11 13  1  0  0  0  0
 11 14  1  0  0  0  0
 14 15  1  0  0  0  0
 14 16  2  0  0  0  0
 17 18  2  0  0  0  0
 17 19  1  0  0  0  0
 19 20  1  0  0  0  0
 19 21  1  0  0  0  0
 21 22  1  0  0  0  0
 21 23  1  0  0  0  0
 21 24  1  0  0  0  0
M  CHG  1  15  -1
M  END
$$$$

  -OEChem-01062216073D

 24 23  0     1  0  0  0  0  0999 V2000
   -3.0345   -3.3157    1.0105 H   0  0  0  0  0  0  0  0  0  0  0  0
   -2.8972   -2.3162    0.5886 C   0  0  0  0  0  0  0  0  0  0  0  0
   -3.6444   -1.6448    1.0190 H   0  0  0  0  0  0  0  0  0  0  0  0
   -3.0440   -2.3679   -0.4929 H   0  0  0  0  0  0  0  0  0  0  0  0
   -1.5020   -1.8020    0.8969 C   0  0  0  0  0  0  0  0  0  0  0  0
   -0.7865   -2.4533    1.6420 O   0  0  0  0  0  0  0  0  0  0  0  0
   -1.1415   -0.5581    0.4193 N   0  0  0  0  0  0  0  0  0  0  0  0
   -1.8596   -0.0513   -0.0924 H   0  0  0  0  0  0  0  0  0  0  0  0
    0.1887    0.0737    0.4061 C   0  0  1  0  0  0  0  0  0  0  0  0
    0.3652    0.4871   -0.5923 H   0  0  0  0  0  0  0  0  0  0  0  0
    0.1079    1.2324    1.4258 C   0  0  0  0  0  0  0  0  0  0  0  0
   -0.2388    0.8558    2.3927 H   0  0  0  0  0  0  0  0  0  0  0  0
    1.0991    1.6710    1.5636 H   0  0  0  0  0  0  0  0  0  0  0  0
   -0.8045    2.3635    0.9574 C   0  0  0  0  0  0  0  0  0  0  0  0
   -0.9380    2.5653   -0.2758 O   0  5  0  0  0  0  0  0  0  0  0  0
   -1.3835    3.0239    1.8521 O   0  0  0  0  0  0  0  0  0  0  0  0
    1.3994   -0.8667    0.6576 C   0  0  0  0  0  0  0  0  0  0  0  0
    1.7245   -1.6810   -0.2032 O   0  0  0  0  0  0  0  0  0  0  0  0
    2.2543   -0.6697    1.7294 N   0  0  0  0  0  0  0  0  0  0  0  0
    1.9033   -0.0576    2.4599 H   0  0  0  0  0  0  0  0  0  0  0  0
    3.3707   -1.5526    2.0301 C   0  0  0  0  0  0  0  0  0  0  0  0
    4.0862   -1.5617    1.2016 H   0  0  0  0  0  0  0  0  0  0  0  0
    3.8891   -1.2082    2.9296 H   0  0  0  0  0  0  0  0  0  0  0  0
    3.0139   -2.5732    2.2027 H   0  0  0  0  0  0  0  0  0  0  0  0
  1  2  1  0  0  0  0
  2  3  1  0  0  0  0
  2  4  1  0  0  0  0
  2  5  1  0  0  0  0
  5  6  2  0  0  0  0
  5  7  1  0  0  0  0
  7  8  1  0  0  0  0
  7  9  1  0  0  0  0
  9 10  1  0  0  0  0
  9 11  1  0  0  0  0
  9 17  1  0  0  0  0
 11 12  1  0  0  0  0
 11 13  1  0  0  0  0
 11 14  1  0  0  0  0
 14 15  1  0  0  0  0
 14 16  2  0  0  0  0
 17 18  2  0  0  0  0
 17 19  1  0  0  0  0
 19 20  1  0  0  0  0
 19 21  1  0  0  0  0
 21 22  1  0  0  0  0
 21 23  1  0  0  0  0
 21 24  1  0  0  0  0
M  CHG  1  15  -1
M  END
$$$$

  -OEChem-01062216073D

 24 23  0     1  0  0  0  0  0999 V2000
   -3.0446   -3.2967    1.0147 H   0  0  0  0  0  0  0  0  0  0  0  0
   -2.9045   -2.2955    0.5980 C   0  0  0  0  0  0  0  0  0  0  0  0
   -3.6258   -1.6164    1.0597 H   0  0  0  0  0  0  0  0  0  0  0  0
   -3.0881   -2.3338   -0.4786 H   0  0  0  0  0  0  0  0  0  0  0  0
   -1.4915   -1.8071    0.8647 C   0  0  0  0  0  0  0  0  0  0  0  0
   -0.7560   -2.4878    1.5621 O   0  0  0  0  0  0  0  0  0  0  0  0
   -1.1277   -0.5634    0.3895 N   0  0  0  0  0  0  0  0  0  0  0  0
   -1.8560   -0.0369   -0.0875 H   0  0  0  0  0  0  0  0  0  0  0  0
    0.1990    0.0762    0.3855 C   0  0  1  0  0  0  0  0  0  0  0  0
    0.3782    0.4990   -0.6087 H   0  0  0  0  0  0  0  0  0  0  0  0
    0.1078    1.2219    1.4174 C   0  0  0  0  0  0  0  0  0  0  0  0
   -0.2422    0.8332    2.3782 H   0  0  0  0  0  0  0  0  0  0  0  0
    1.0992    1.6578    1.5655 H   0  0  0  0  0  0  0  0  0  0  0  0
   -0.8106    2.3524    0.9605 C   0  0  0  0  0  0  0  0  0  0  0  0
   -0.9430    2.5685   -0.2702 O   0  5  0  0  0  0  0  0  0  0  0  0
   -1.4102    2.9853    1.8615 O   0  0  0  0  0  0  0  0  0  0  0  0
    1.4153   -0.8521    0.6485 C   0  0  0  0  0  0  0  0  0  0  0  0
    1.8859   -1.5162   -0.2718 O   0  0  0  0  0  0  0  0  0  0  0  0
    2.0720   -0.8437    1.8676 N   0  0  0  0  0  0  0  0  0  0  0  0
    1.5609   -0.4023    2.6262 H   0  0  0  0  0  0  0  0  0  0  0  0
    3.1370   -1.7775    2.1975 C   0  0  0  0  0  0  0  0  0  0  0  0
    3.9736   -1.6671    1.5001 H   0  0  0  0  0  0  0  0  0  0  0  0
    3.5042   -1.5839    3.2095 H   0  0  0  0  0  0  0  0  0  0  0  0
    2.7685   -2.8074    2.1506 H   0  0  0  0  0  0  0  0  0  0  0  0
  1  2  1  0  0  0  0
  2  3  1  0  0  0  0
  2  4  1  0  0  0  0
  2  5  1  0  0  0  0
  5  6  2  0  0  0  0
  5  7  1  0  0  0  0
  7  8  1  0  0  0  0
  7  9  1  0  0  0  0
  9 10  1  0  0  0  0
  9 11  1  0  0  0  0
  9 17  1  0  0  0  0
 11 12  1  0  0  0  0
 11 13  1  0  0  0  0
 11 14  1  0  0  0  0
 14 15  1  0  0  0  0
 14 16  2  0  0  0  0
 17 18  2  0  0  0  0
 17 19  1  0  0  0  0
 19 20  1  0  0  0  0
 19 21  1  0  0  0  0
 21 22  1  0  0  0  0
 21 23  1  0  0  0  0
 21 24  1  0  0  0  0
M  CHG  1  15  -1
M  END
$$$$

  -OEChem-01062216073D

 24 23  0     1  0  0  0  0  0999 V2000
   -3.0876   -3.2608    1.0217 H   0  0  0  0  0  0  0  0  0  0  0  0
   -2.9304   -2.2625    0.6042 C   0  0  0  0  0  0  0  0  0  0  0  0
   -3.6212   -1.5654    1.0854 H   0  0  0  0  0  0  0  0  0  0  0  0
   -3.1418   -2.2916   -0.4676 H   0  0  0  0  0  0  0  0  0  0  0  0
   -1.4988   -1.8131    0.8371 C   0  0  0  0  0  0  0  0  0  0  0  0
   -0.7585   -2.5261    1.4955 O   0  0  0  0  0  0  0  0  0  0  0  0
   -1.1179   -0.5741    0.3643 N   0  0  0  0  0  0  0  0  0  0  0  0
   -1.8500   -0.0232   -0.0792 H   0  0  0  0  0  0  0  0  0  0  0  0
    0.2087    0.0662    0.3741 C   0  0  1  0  0  0  0  0  0  0  0  0
    0.3946    0.4943   -0.6168 H   0  0  0  0  0  0  0  0  0  0  0  0
    0.1052    1.2031    1.4130 C   0  0  0  0  0  0  0  0  0  0  0  0
   -0.2529    0.8078    2.3682 H   0  0  0  0  0  0  0  0  0  0  0  0
    1.0962    1.6355    1.5742 H   0  0  0  0  0  0  0  0  0  0  0  0
   -0.8122    2.3348    0.9564 C   0  0  0  0  0  0  0  0  0  0  0  0
   -0.9344    2.5603   -0.2735 O   0  5  0  0  0  0  0  0  0  0  0  0
   -1.4381    2.9445    1.8556 O   0  0  0  0  0  0  0  0  0  0  0  0
    1.4311   -0.8473    0.6564 C   0  0  0  0  0  0  0  0  0  0  0  0
    2.0679   -1.3249   -0.2792 O   0  0  0  0  0  0  0  0  0  0  0  0
    1.8800   -1.0558    1.9493 N   0  0  0  0  0  0  0  0  0  0  0  0
    1.1968   -0.8331    2.6674 H   0  0  0  0  0  0  0  0  0  0  0  0
    2.9224   -2.0177    2.2716 C   0  0  0  0  0  0  0  0  0  0  0  0
    3.8502   -1.7691    1.7463 H   0  0  0  0  0  0  0  0  0  0  0  0
    3.1225   -2.0069    3.3471 H   0  0  0  0  0  0  0  0  0  0  0  0
    2.6106   -3.0270    1.9842 H   0  0  0  0  0  0  0  0  0  0  0  0
  1  2  1  0  0  0  0
  2  3  1  0  0  0  0
  2  4  1  0  0  0  0
  2  5  1  0  0  0  0
  5  6  2  0  0  0  0
  5  7  1  0  0  0  0
  7  8  1  0  0  0  0
  7  9  1  0  0  0  0
  9 10  1  0  0  0  0
  9 11  1  0  0  0  0
  9 17  1  0  0  0  0
 11 12  1  0  0  0  0
 11 13  1  0  0  0  0
 11 14  1  0  0  0  0
 14 15  1  0  0  0  0
 14 16  2  0  0  0  0
 17 18  2  0  0  0  0
 17 19  1  0  0  0  0
 19 20  1  0  0  0  0
 19 21  1  0  0  0  0
 21 22  1  0  0  0  0
 21 23  1  0  0  0  0
 21 24  1  0  0  0  0
M  CHG  1  15  -1
M  END
$$$$

  -OEChem-01062216073D

 24 23  0     1  0  0  0  0  0999 V2000
   -3.1849   -3.2101    1.0043 H   0  0  0  0  0  0  0  0  0  0  0  0
   -2.9963   -2.2137    0.5951 C   0  0  0  0  0  0  0  0  0  0  0  0
   -3.6592   -1.4982    1.0888 H   0  0  0  0  0  0  0  0  0  0  0  0
   -3.2179   -2.2251   -0.4750 H   0  0  0  0  0  0  0  0  0  0  0  0
   -1.5481   -1.8160    0.8200 C   0  0  0  0  0  0  0  0  0  0  0  0
   -0.8285   -2.5609    1.4652 O   0  0  0  0  0  0  0  0  0  0  0  0
   -1.1270   -0.5896    0.3497 N   0  0  0  0  0  0  0  0  0  0  0  0
   -1.8477   -0.0139   -0.0818 H   0  0  0  0  0  0  0  0  0  0  0  0
    0.2085    0.0358    0.3731 C   0  0  1  0  0  0  0  0  0  0  0  0
    0.4038    0.4641   -0.6161 H   0  0  0  0  0  0  0  0  0  0  0  0
    0.1023    1.1691    1.4143 C   0  0  0  0  0  0  0  0  0  0  0  0
   -0.2678    0.7734    2.3646 H   0  0  0  0  0  0  0  0  0  0  0  0
    1.0958    1.5905    1.5889 H   0  0  0  0  0  0  0  0  0  0  0  0
   -0.8006    2.3101    0.9508 C   0  0  0  0  0  0  0  0  0  0  0  0
   -0.9064    2.5406   -0.2797 O   0  5  0  0  0  0  0  0  0  0  0  0
   -1.4445    2.9118    1.8427 O   0  0  0  0  0  0  0  0  0  0  0  0
    1.4367   -0.8639    0.6770 C   0  0  0  0  0  0  0  0  0  0  0  0
    2.2473   -1.1123   -0.2118 O   0  0  0  0  0  0  0  0  0  0  0  0
    1.6973   -1.3083    1.9614 N   0  0  0  0  0  0  0  0  0  0  0  0
    0.8638   -1.3497    2.5443 H   0  0  0  0  0  0  0  0  0  0  0  0
    2.7695   -2.2457    2.2580 C   0  0  0  0  0  0  0  0  0  0  0  0
    3.7354   -1.8379    1.9431 H   0  0  0  0  0  0  0  0  0  0  0  0
    2.8118   -2.4370    3.3341 H   0  0  0  0  0  0  0  0  0  0  0  0
    2.5991   -3.1954    1.7410 H   0  0  0  0  0  0  0  0  0  0  0  0
  1  2  1  0  0  0  0
  2  3  1  0  0  0  0
  2  4  1  0  0  0  0
  2  5  1  0  0  0  0
  5  6  2  0  0  0  0
  5  7  1  0  0  0  0
  7  8  1  0  0  0  0
  7  9  1  0  0  0  0
  9 10  1  0  0  0  0
  9 11  1  0  0  0  0
  9 17  1  0  0  0  0
 11 12  1  0  0  0  0
 11 13  1  0  0  0  0
 11 14  1  0  0  0  0
 14 15  1  0  0  0  0
 14 16  2  0  0  0  0
 17 18  2  0  0  0  0
 17 19  1  0  0  0  0
 19 20  1  0  0  0  0
 19 21  1  0  0  0  0
 21 22  1  0  0  0  0
 21 23  1  0  0  0  0
 21 24  1  0  0  0  0
M  CHG  1  15  -1
M  END
$$$$

  -OEChem-01062216073D

 24 23  0     1  0  0  0  0  0999 V2000
   -3.3348   -3.1202    0.9953 H   0  0  0  0  0  0  0  0  0  0  0  0
   -3.0926   -2.1353    0.5865 C   0  0  0  0  0  0  0  0  0  0  0  0
   -3.7049   -1.3836    1.0915 H   0  0  0  0  0  0  0  0  0  0  0  0
   -3.3288   -2.1291   -0.4805 H   0  0  0  0  0  0  0  0  0  0  0  0
   -1.6207   -1.8242    0.7928 C   0  0  0  0  0  0  0  0  0  0  0  0
   -0.9336   -2.6281    1.4008 O   0  0  0  0  0  0  0  0  0  0  0  0
   -1.1438   -0.6149    0.3318 N   0  0  0  0  0  0  0  0  0  0  0  0
   -1.8509   -0.0015   -0.0707 H   0  0  0  0  0  0  0  0  0  0  0  0
    0.2035   -0.0106    0.3685 C   0  0  1  0  0  0  0  0  0  0  0  0
    0.4072    0.4191   -0.6184 H   0  0  0  0  0  0  0  0  0  0  0  0
    0.0917    1.1167    1.4145 C   0  0  0  0  0  0  0  0  0  0  0  0
   -0.2924    0.7174    2.3578 H   0  0  0  0  0  0  0  0  0  0  0  0
    1.0859    1.5294    1.6054 H   0  0  0  0  0  0  0  0  0  0  0  0
   -0.7947    2.2681    0.9445 C   0  0  0  0  0  0  0  0  0  0  0  0
   -0.8803    2.5068   -0.2861 O   0  5  0  0  0  0  0  0  0  0  0  0
   -1.4597    2.8588    1.8284 O   0  0  0  0  0  0  0  0  0  0  0  0
    1.4433   -0.8906    0.6890 C   0  0  0  0  0  0  0  0  0  0  0  0
    2.3935   -0.9048   -0.0891 O   0  0  0  0  0  0  0  0  0  0  0  0
    1.5628   -1.5767    1.8835 N   0  0  0  0  0  0  0  0  0  0  0  0
    0.6576   -1.8140    2.2927 H   0  0  0  0  0  0  0  0  0  0  0  0
    2.6782   -2.4665    2.1678 C   0  0  0  0  0  0  0  0  0  0  0  0
    3.6269   -1.9229    2.1135 H   0  0  0  0  0  0  0  0  0  0  0  0
    2.5770   -2.8816    3.1748 H   0  0  0  0  0  0  0  0  0  0  0  0
    2.7000   -3.2926    1.4499 H   0  0  0  0  0  0  0  0  0  0  0  0
  1  2  1  0  0  0  0
  2  3  1  0  0  0  0
  2  4  1  0  0  0  0
  2  5  1  0  0  0  0
  5  6  2  0  0  0  0
  5  7  1  0  0  0  0
  7  8  1  0  0  0  0
  7  9  1  0  0  0  0
  9 10  1  0  0  0  0
  9 11  1  0  0  0  0
  9 17  1  0  0  0  0
 11 12  1  0  0  0  0
 11 13  1  0  0  0  0
 11 14  1  0  0  0  0
 14 15  1  0  0  0  0
 14 16  2  0  0  0  0
 17 18  2  0  0  0  0
 17 19  1  0  0  0  0
 19 20  1  0  0  0  0
 19 21  1  0  0  0  0
 21 22  1  0  0  0  0
 21 23  1  0  0  0  0
 21 24  1  0  0  0  0
M  CHG  1  15  -1
M  END
$$$$

  -OEChem-01062216073D

 24 23  0     1  0  0  0  0  0999 V2000
   -3.4780   -3.0271    0.9867 H   0  0  0  0  0  0  0  0  0  0  0  0
   -3.1852   -2.0541    0.5821 C   0  0  0  0  0  0  0  0  0  0  0  0
   -3.7434   -1.2731    1.1051 H   0  0  0  0  0  0  0  0  0  0  0  0
   -3.4399   -2.0231   -0.4801 H   0  0  0  0  0  0  0  0  0  0  0  0
   -1.6939   -1.8321    0.7635 C   0  0  0  0  0  0  0  0  0  0  0  0
   -1.0413   -2.7042    1.3115 O   0  0  0  0  0  0  0  0  0  0  0  0
   -1.1636   -0.6395    0.3166 N   0  0  0  0  0  0  0  0  0  0  0  0
   -1.8566    0.0104   -0.0525 H   0  0  0  0  0  0  0  0  0  0  0  0
    0.1941   -0.0538    0.3668 C   0  0  1  0  0  0  0  0  0  0  0  0
    0.4045    0.3752   -0.6190 H   0  0  0  0  0  0  0  0  0  0  0  0
    0.0725    1.0722    1.4133 C   0  0  0  0  0  0  0  0  0  0  0  0
   -0.3266    0.6729    2.3505 H   0  0  0  0  0  0  0  0  0  0  0  0
    1.0654    1.4803    1.6205 H   0  0  0  0  0  0  0  0  0  0  0  0
   -0.7985    2.2308    0.9316 C   0  0  0  0  0  0  0  0  0  0  0  0
   -0.8626    2.4731   -0.2994 O   0  5  0  0  0  0  0  0  0  0  0  0
   -1.4848    2.8138    1.8040 O   0  0  0  0  0  0  0  0  0  0  0  0
    1.4503   -0.9093    0.6997 C   0  0  0  0  0  0  0  0  0  0  0  0
    2.4845   -0.7225    0.0645 O   0  0  0  0  0  0  0  0  0  0  0  0
    1.4914   -1.8247    1.7337 N   0  0  0  0  0  0  0  0  0  0  0  0
    0.5692   -2.1477    2.0343 H   0  0  0  0  0  0  0  0  0  0  0  0
    2.6303   -2.6946    1.9846 C   0  0  0  0  0  0  0  0  0  0  0  0
    3.5356   -2.1029    2.1543 H   0  0  0  0  0  0  0  0  0  0  0  0
    2.4457   -3.3035    2.8745 H   0  0  0  0  0  0  0  0  0  0  0  0
    2.7959   -3.3619    1.1329 H   0  0  0  0  0  0  0  0  0  0  0  0
  1  2  1  0  0  0  0
  2  3  1  0  0  0  0
  2  4  1  0  0  0  0
  2  5  1  0  0  0  0
  5  6  2  0  0  0  0
  5  7  1  0  0  0  0
  7  8  1  0  0  0  0
  7  9  1  0  0  0  0
  9 10  1  0  0  0  0
  9 11  1  0  0  0  0
  9 17  1  0  0  0  0
 11 12  1  0  0  0  0
 11 13  1  0  0  0  0
 11 14  1  0  0  0  0
 14 15  1  0  0  0  0
 14 16  2  0  0  0  0
 17 18  2  0  0  0  0
 17 19  1  0  0  0  0
 19 20  1  0  0  0  0
 19 21  1  0  0  0  0
 21 22  1  0  0  0  0
 21 23  1  0  0  0  0
 21 24  1  0  0  0  0
M  CHG  1  15  -1
M  END
$$$$

  -OEChem-01062216073D

 24 23  0     1  0  0  0  0  0999 V2000
   -3.5995   -2.9212    1.2357 H   0  0  0  0  0  0  0  0  0  0  0  0
   -3.2817   -1.9862    0.7658 C   0  0  0  0  0  0  0  0  0  0  0  0
   -3.7698   -1.1520    1.2770 H   0  0  0  0  0  0  0  0  0  0  0  0
   -3.5944   -1.9935   -0.2814 H   0  0  0  0  0  0  0  0  0  0  0  0
   -1.7732   -1.8344    0.8549 C   0  0  0  0  0  0  0  0  0  0  0  0
   -1.1332   -2.7368    1.3670 O   0  0  0  0  0  0  0  0  0  0  0  0
   -1.2202   -0.6747    0.3516 N   0  0  0  0  0  0  0  0  0  0  0  0
   -1.9141   -0.0087    0.0131 H   0  0  0  0  0  0  0  0  0  0  0  0
    0.1504   -0.1139    0.3172 C   0  0  1  0  0  0  0  0  0  0  0  0
    0.3139    0.2803   -0.6917 H   0  0  0  0  0  0  0  0  0  0  0  0
    0.0821    1.0468    1.3316 C   0  0  0  0  0  0  0  0  0  0  0  0
   -0.2809    0.6819    2.2972 H   0  0  0  0  0  0  0  0  0  0  0  0
    1.0858    1.4529    1.4845 H   0  0  0  0  0  0  0  0  0  0  0  0
   -0.7965    2.1990    0.8477 C   0  0  0  0  0  0  0  0  0  0  0  0
   -0.9080    2.4026   -0.3869 O   0  5  0  0  0  0  0  0  0  0  0  0
   -1.4493    2.8099    1.7268 O   0  0  0  0  0  0  0  0  0  0  0  0
    1.4314   -0.9509    0.6126 C   0  0  0  0  0  0  0  0  0  0  0  0
    2.4856   -0.6199    0.0772 O   0  0  0  0  0  0  0  0  0  0  0  0
    1.4808   -2.0362    1.4648 N   0  0  0  0  0  0  0  0  0  0  0  0
    0.5722   -2.3996    1.7591 H   0  0  0  0  0  0  0  0  0  0  0  0
    2.6583   -2.8678    1.6624 C   0  0  0  0  0  0  0  0  0  0  0  0
    3.5012   -2.2629    2.0120 H   0  0  0  0  0  0  0  0  0  0  0  0
    2.4506   -3.6355    2.4136 H   0  0  0  0  0  0  0  0  0  0  0  0
    2.9383   -3.3618    0.7268 H   0  0  0  0  0  0  0  0  0  0  0  0
  1  2  1  0  0  0  0
  2  3  1  0  0  0  0
  2  4  1  0  0  0  0
  2  5  1  0  0  0  0
  5  6  2  0  0  0  0
  5  7  1  0  0  0  0
  7  8  1  0  0  0  0
  7  9  1  0  0  0  0
  9 10  1  0  0  0  0
  9 11  1  0  0  0  0
  9 17  1  0  0  0  0
 11 12  1  0  0  0  0
 11 13  1  0  0  0  0
 11 14  1  0  0  0  0
 14 15  1  0  0  0  0
 14 16  2  0  0  0  0
 17 18  2  0  0  0  0
 17 19  1  0  0  0  0
 19 20  1  0  0  0  0
 19 21  1  0  0  0  0
 21 22  1  0  0  0  0
 21 23  1  0  0  0  0
 21 24  1  0  0  0  0
M  CHG  1  15  -1
M  END
$$$$

  -OEChem-01062216073D

 24 23  0     1  0  0  0  0  0999 V2000
   -3.0167   -3.4424    0.8075 H   0  0  0  0  0  0  0  0  0  0  0  0
   -2.8879   -2.3782    0.5909 C   0  0  0  0  0  0  0  0  0  0  0  0
   -3.2343   -1.8010    1.4523 H   0  0  0  0  0  0  0  0  0  0  0  0
   -3.4951   -2.1176   -0.2795 H   0  0  0  0  0  0  0  0  0  0  0  0
   -1.4270   -2.0676    0.3153 C   0  0  0  0  0  0  0  0  0  0  0  0
   -0.6661   -3.0031    0.1504 O   0  0  0  0  0  0  0  0  0  0  0  0
   -1.0847   -0.7447    0.1317 N   0  0  0  0  0  0  0  0  0  0  0  0
   -1.8903   -0.1226    0.1811 H   0  0  0  0  0  0  0  0  0  0  0  0
    0.1865    0.0114    0.2100 C   0  0  1  0  0  0  0  0  0  0  0  0
    0.2054    0.6949   -0.6457 H   0  0  0  0  0  0  0  0  0  0  0  0
    0.0256    0.8066    1.5251 C   0  0  0  0  0  0  0  0  0  0  0  0
   -0.2036    0.1267    2.3508 H   0  0  0  0  0  0  0  0  0  0  0  0
    0.9676    1.3093    1.7615 H   0  0  0  0  0  0  0  0  0  0  0  0
   -1.0431    1.8931    1.4427 C   0  0  0  0  0  0  0  0  0  0  0  0
   -1.2833    2.4302    0.3343 O   0  5  0  0  0  0  0  0  0  0  0  0
   -1.7106    2.0913    2.4853 O   0  0  0  0  0  0  0  0  0  0  0  0
    1.6144   -0.6206    0.2332 C   0  0  0  0  0  0  0  0  0  0  0  0
    2.5436    0.0004   -0.2677 O   0  0  0  0  0  0  0  0  0  0  0  0
    2.0045   -1.9156    0.4703 N   0  0  0  0  0  0  0  0  0  0  0  0
    2.9491   -2.0646    0.1338 H   0  0  0  0  0  0  0  0  0  0  0  0
    1.6998   -2.5279    1.7563 C   0  0  0  0  0  0  0  0  0  0  0  0
    2.5176   -2.3452    2.4600 H   0  0  0  0  0  0  0  0  0  0  0  0
    0.7812   -2.1200    2.1888 H   0  0  0  0  0  0  0  0  0  0  0  0
    1.5742   -3.6082    1.6362 H   0  0  0  0  0  0  0  0  0  0  0  0
  1  2  1  0  0  0  0
  2  3  1  0  0  0  0
  2  4  1  0  0  0  0
  2  5  1  0  0  0  0
  5  6  2  0  0  0  0
  5  7  1  0  0  0  0
  7  8  1  0  0  0  0
  7  9  1  0  0  0  0
  9 10  1  0  0  0  0
  9 11  1  0  0  0  0
  9 17  1  0  0  0  0
 11 12  1  0  0  0  0
 11 13  1  0  0  0  0
 11 14  1  0  0  0  0
 14 15  1  0  0  0  0
 14 16  2  0  0  0  0
 17 18  2  0  0  0  0
 17 19  1  0  0  0  0
 19 20  1  0  0  0  0
 19 21  1  0  0  0  0
 21 22  1  0  0  0  0
 21 23  1  0  0  0  0
 21 24  1  0  0  0  0
M  CHG  1  15  -1
M  END
$$$$

  -OEChem-01062216073D

 24 23  0     1  0  0  0  0  0999 V2000
   -3.5973   -2.9983    1.0098 H   0  0  0  0  0  0  0  0  0  0  0  0
   -3.2871   -2.0176    0.6379 C   0  0  0  0  0  0  0  0  0  0  0  0
   -3.7826   -1.2442    1.2311 H   0  0  0  0  0  0  0  0  0  0  0  0
   -3.5988   -1.9209   -0.4051 H   0  0  0  0  0  0  0  0  0  0  0  0
   -1.7803   -1.8625    0.7448 C   0  0  0  0  0  0  0  0  0  0  0  0
   -1.1387   -2.7980    1.1909 O   0  0  0  0  0  0  0  0  0  0  0  0
   -1.2370   -0.6559    0.3525 N   0  0  0  0  0  0  0  0  0  0  0  0
   -1.9389    0.0308    0.0778 H   0  0  0  0  0  0  0  0  0  0  0  0
    0.1290   -0.0800    0.3466 C   0  0  1  0  0  0  0  0  0  0  0  0
    0.2710    0.4025   -0.6259 H   0  0  0  0  0  0  0  0  0  0  0  0
    0.0388    0.9915    1.4575 C   0  0  0  0  0  0  0  0  0  0  0  0
   -0.3143    0.5391    2.3891 H   0  0  0  0  0  0  0  0  0  0  0  0
    1.0303    1.4099    1.6479 H   0  0  0  0  0  0  0  0  0  0  0  0
   -0.8660    2.1602    1.0695 C   0  0  0  0  0  0  0  0  0  0  0  0
   -0.9830    2.4613   -0.1449 O   0  5  0  0  0  0  0  0  0  0  0  0
   -1.5419    2.6736    1.9924 O   0  0  0  0  0  0  0  0  0  0  0  0
    1.4339   -0.9186    0.5274 C   0  0  0  0  0  0  0  0  0  0  0  0
    2.5192   -0.3526    0.4271 O   0  0  0  0  0  0  0  0  0  0  0  0
    1.4806   -2.2858    0.7135 N   0  0  0  0  0  0  0  0  0  0  0  0
    0.5844   -2.7375    0.8999 H   0  0  0  0  0  0  0  0  0  0  0  0
    2.7019   -3.0445    0.9370 C   0  0  0  0  0  0  0  0  0  0  0  0
    3.2175   -2.6837    1.8325 H   0  0  0  0  0  0  0  0  0  0  0  0
    2.4631   -4.1029    1.0762 H   0  0  0  0  0  0  0  0  0  0  0  0
    3.3733   -2.9520    0.0775 H   0  0  0  0  0  0  0  0  0  0  0  0
  1  2  1  0  0  0  0
  2  3  1  0  0  0  0
  2  4  1  0  0  0  0
  2  5  1  0  0  0  0
  5  6  2  0  0  0  0
  5  7  1  0  0  0  0
  7  8  1  0  0  0  0
  7  9  1  0  0  0  0
  9 10  1  0  0  0  0
  9 11  1  0  0  0  0
  9 17  1  0  0  0  0
 11 12  1  0  0  0  0
 11 13  1  0  0  0  0
 11 14  1  0  0  0  0
 14 15  1  0  0  0  0
 14 16  2  0  0  0  0
 17 18  2  0  0  0  0
 17 19  1  0  0  0  0
 19 20  1  0  0  0  0
 19 21  1  0  0  0  0
 21 22  1  0  0  0  0
 21 23  1  0  0  0  0
 21 24  1  0  0  0  0
M  CHG  1  15  -1
M  END
$$$$

  -OEChem-01062216073D

 24 23  0     1  0  0  0  0  0999 V2000
   -3.5836   -2.9262    1.0640 H   0  0  0  0  0  0  0  0  0  0  0  0
   -3.2673   -1.9552    0.6728 C   0  0  0  0  0  0  0  0  0  0  0  0
   -3.7407   -1.1668    1.2642 H   0  0  0  0  0  0  0  0  0  0  0  0
   -3.5976   -1.8685   -0.3653 H   0  0  0  0  0  0  0  0  0  0  0  0
   -1.7567   -1.8195    0.7489 C   0  0  0  0  0  0  0  0  0  0  0  0
   -1.1141   -2.7606    1.1822 O   0  0  0  0  0  0  0  0  0  0  0  0
   -1.2025   -0.6259    0.3341 N   0  0  0  0  0  0  0  0  0  0  0  0
   -1.8955    0.0718    0.0641 H   0  0  0  0  0  0  0  0  0  0  0  0
    0.1744   -0.0783    0.3188 C   0  0  1  0  0  0  0  0  0  0  0  0
    0.3322    0.3771   -0.6641 H   0  0  0  0  0  0  0  0  0  0  0  0
    0.0973    1.0247    1.4013 C   0  0  0  0  0  0  0  0  0  0  0  0
   -0.2695    0.6028    2.3417 H   0  0  0  0  0  0  0  0  0  0  0  0
    1.0930    1.4335    1.5889 H   0  0  0  0  0  0  0  0  0  0  0  0
   -0.7836    2.1984    0.9753 C   0  0  0  0  0  0  0  0  0  0  0  0
   -0.8864    2.4673   -0.2481 O   0  5  0  0  0  0  0  0  0  0  0  0
   -1.4598    2.7467    1.8778 O   0  0  0  0  0  0  0  0  0  0  0  0
    1.4492   -0.9602    0.5139 C   0  0  0  0  0  0  0  0  0  0  0  0
    2.5470   -0.4216    0.6281 O   0  0  0  0  0  0  0  0  0  0  0  0
    1.4556   -2.3388    0.4212 N   0  0  0  0  0  0  0  0  0  0  0  0
    0.5389   -2.7751    0.5307 H   0  0  0  0  0  0  0  0  0  0  0  0
    2.6334   -3.1591    0.6626 C   0  0  0  0  0  0  0  0  0  0  0  0
    3.0202   -2.9858    1.6719 H   0  0  0  0  0  0  0  0  0  0  0  0
    2.3760   -4.2177    0.5659 H   0  0  0  0  0  0  0  0  0  0  0  0
    3.4183   -2.9272   -0.0644 H   0  0  0  0  0  0  0  0  0  0  0  0
  1  2  1  0  0  0  0
  2  3  1  0  0  0  0
  2  4  1  0  0  0  0
  2  5  1  0  0  0  0
  5  6  2  0  0  0  0
  5  7  1  0  0  0  0
  7  8  1  0  0  0  0
  7  9  1  0  0  0  0
  9 10  1  0  0  0  0
  9 11  1  0  0  0  0
  9 17  1  0  0  0  0
 11 12  1  0  0  0  0
 11 13  1  0  0  0  0
 11 14  1  0  0  0  0
 14 15  1  0  0  0  0
 14 16  2  0  0  0  0
 17 18  2  0  0  0  0
 17 19  1  0  0  0  0
 19 20  1  0  0  0  0
 19 21  1  0  0  0  0
 21 22  1  0  0  0  0
 21 23  1  0  0  0  0
 21 24  1  0  0  0  0
M  CHG  1  15  -1
M  END
$$$$

  -OEChem-01062216073D

 24 23  0     1  0  0  0  0  0999 V2000
   -3.4607   -2.9825    1.1113 H   0  0  0  0  0  0  0  0  0  0  0  0
   -3.1868   -2.0000    0.7169 C   0  0  0  0  0  0  0  0  0  0  0  0
   -3.6495   -1.2302    1.3404 H   0  0  0  0  0  0  0  0  0  0  0  0
   -3.5692   -1.9089   -0.3027 H   0  0  0  0  0  0  0  0  0  0  0  0
   -1.6779   -1.8296    0.7215 C   0  0  0  0  0  0  0  0  0  0  0  0
   -0.9885   -2.7746    1.0658 O   0  0  0  0  0  0  0  0  0  0  0  0
   -1.1669   -0.6137    0.3173 N   0  0  0  0  0  0  0  0  0  0  0  0
   -1.8804    0.0804    0.0959 H   0  0  0  0  0  0  0  0  0  0  0  0
    0.1989   -0.0414    0.3161 C   0  0  1  0  0  0  0  0  0  0  0  0
    0.3631    0.4205   -0.6626 H   0  0  0  0  0  0  0  0  0  0  0  0
    0.0964    1.0582    1.4008 C   0  0  0  0  0  0  0  0  0  0  0  0
   -0.2686    0.6286    2.3383 H   0  0  0  0  0  0  0  0  0  0  0  0
    1.0831    1.4852    1.5950 H   0  0  0  0  0  0  0  0  0  0  0  0
   -0.8005    2.2181    0.9706 C   0  0  0  0  0  0  0  0  0  0  0  0
   -0.8981    2.4872   -0.2531 O   0  5  0  0  0  0  0  0  0  0  0  0
   -1.4994    2.7472    1.8671 O   0  0  0  0  0  0  0  0  0  0  0  0
    1.4639   -0.9363    0.5114 C   0  0  0  0  0  0  0  0  0  0  0  0
    2.5289   -0.4432    0.8740 O   0  0  0  0  0  0  0  0  0  0  0  0
    1.5016   -2.2569    0.1036 N   0  0  0  0  0  0  0  0  0  0  0  0
    0.5822   -2.7023    0.1001 H   0  0  0  0  0  0  0  0  0  0  0  0
    2.6577   -3.1166    0.3115 C   0  0  0  0  0  0  0  0  0  0  0  0
    2.8945   -3.1879    1.3779 H   0  0  0  0  0  0  0  0  0  0  0  0
    2.4483   -4.1213   -0.0668 H   0  0  0  0  0  0  0  0  0  0  0  0
    3.5295   -2.7228   -0.2207 H   0  0  0  0  0  0  0  0  0  0  0  0
  1  2  1  0  0  0  0
  2  3  1  0  0  0  0
  2  4  1  0  0  0  0
  2  5  1  0  0  0  0
  5  6  2  0  0  0  0
  5  7  1  0  0  0  0
  7  8  1  0  0  0  0
  7  9  1  0  0  0  0
  9 10  1  0  0  0  0
  9 11  1  0  0  0  0
  9 17  1  0  0  0  0
 11 12  1  0  0  0  0
 11 13  1  0  0  0  0
 11 14  1  0  0  0  0
 14 15  1  0  0  0  0
 14 16  2  0  0  0  0
 17 18  2  0  0  0  0
 17 19  1  0  0  0  0
 19 20  1  0  0  0  0
 19 21  1  0  0  0  0
 21 22  1  0  0  0  0
 21 23  1  0  0  0  0
 21 24  1  0  0  0  0
M  CHG  1  15  -1
M  END
$$$$

  -OEChem-01062216073D

 24 23  0     1  0  0  0  0  0999 V2000
   -3.3259   -3.0421    1.1466 H   0  0  0  0  0  0  0  0  0  0  0  0
   -3.0976   -2.0465    0.7562 C   0  0  0  0  0  0  0  0  0  0  0  0
   -3.5417   -1.2992    1.4194 H   0  0  0  0  0  0  0  0  0  0  0  0
   -3.5386   -1.9461   -0.2387 H   0  0  0  0  0  0  0  0  0  0  0  0
   -1.5952   -1.8402    0.6796 C   0  0  0  0  0  0  0  0  0  0  0  0
   -0.8613   -2.7854    0.9151 O   0  0  0  0  0  0  0  0  0  0  0  0
   -1.1308   -0.6026    0.2860 N   0  0  0  0  0  0  0  0  0  0  0  0
   -1.8641    0.0863    0.1201 H   0  0  0  0  0  0  0  0  0  0  0  0
    0.2220   -0.0052    0.3159 C   0  0  1  0  0  0  0  0  0  0  0  0
    0.4060    0.4627   -0.6562 H   0  0  0  0  0  0  0  0  0  0  0  0
    0.0898    1.0906    1.4006 C   0  0  0  0  0  0  0  0  0  0  0  0
   -0.2818    0.6553    2.3331 H   0  0  0  0  0  0  0  0  0  0  0  0
    1.0695    1.5287    1.6059 H   0  0  0  0  0  0  0  0  0  0  0  0
   -0.8145    2.2406    0.9606 C   0  0  0  0  0  0  0  0  0  0  0  0
   -0.8969    2.5114   -0.2638 O   0  5  0  0  0  0  0  0  0  0  0  0
   -1.5373    2.7545    1.8468 O   0  0  0  0  0  0  0  0  0  0  0  0
    1.4692   -0.9172    0.5325 C   0  0  0  0  0  0  0  0  0  0  0  0
    2.4561   -0.5228    1.1492 O   0  0  0  0  0  0  0  0  0  0  0  0
    1.5893   -2.1103   -0.1577 N   0  0  0  0  0  0  0  0  0  0  0  0
    0.6837   -2.5491   -0.3270 H   0  0  0  0  0  0  0  0  0  0  0  0
    2.7279   -3.0009    0.0170 C   0  0  0  0  0  0  0  0  0  0  0  0
    2.8055   -3.3219    1.0608 H   0  0  0  0  0  0  0  0  0  0  0  0
    2.6084   -3.8877   -0.6122 H   0  0  0  0  0  0  0  0  0  0  0  0
    3.6571   -2.4979   -0.2698 H   0  0  0  0  0  0  0  0  0  0  0  0
  1  2  1  0  0  0  0
  2  3  1  0  0  0  0
  2  4  1  0  0  0  0
  2  5  1  0  0  0  0
  5  6  2  0  0  0  0
  5  7  1  0  0  0  0
  7  8  1  0  0  0  0
  7  9  1  0  0  0  0
  9 10  1  0  0  0  0
  9 11  1  0  0  0  0
  9 17  1  0  0  0  0
 11 12  1  0  0  0  0
 11 13  1  0  0  0  0
 11 14  1  0  0  0  0
 14 15  1  0  0  0  0
 14 16  2  0  0  0  0
 17 18  2  0  0  0  0
 17 19  1  0  0  0  0
 19 20  1  0  0  0  0
 19 21  1  0  0  0  0
 21 22  1  0  0  0  0
 21 23  1  0  0  0  0
 21 24  1  0  0  0  0
M  CHG  1  15  -1
M  END
$$$$

  -OEChem-01062216073D

 24 23  0     1  0  0  0  0  0999 V2000
   -3.1843   -3.1092    1.1743 H   0  0  0  0  0  0  0  0  0  0  0  0
   -3.0056   -2.1014    0.7890 C   0  0  0  0  0  0  0  0  0  0  0  0
   -3.4381   -1.3776    1.4851 H   0  0  0  0  0  0  0  0  0  0  0  0
   -3.4983   -2.0003   -0.1811 H   0  0  0  0  0  0  0  0  0  0  0  0
   -1.5157   -1.8492    0.6429 C   0  0  0  0  0  0  0  0  0  0  0  0
   -0.7442   -2.7820    0.7921 O   0  0  0  0  0  0  0  0  0  0  0  0
   -1.1019   -0.5914    0.2569 N   0  0  0  0  0  0  0  0  0  0  0  0
   -1.8553    0.0860    0.1447 H   0  0  0  0  0  0  0  0  0  0  0  0
    0.2363    0.0311    0.3144 C   0  0  1  0  0  0  0  0  0  0  0  0
    0.4350    0.5069   -0.6511 H   0  0  0  0  0  0  0  0  0  0  0  0
    0.0852    1.1218    1.4004 C   0  0  0  0  0  0  0  0  0  0  0  0
   -0.2904    0.6806    2.3285 H   0  0  0  0  0  0  0  0  0  0  0  0
    1.0616    1.5641    1.6132 H   0  0  0  0  0  0  0  0  0  0  0  0
   -0.8257    2.2642    0.9556 C   0  0  0  0  0  0  0  0  0  0  0  0
   -0.8990    2.5366   -0.2690 O   0  5  0  0  0  0  0  0  0  0  0  0
   -1.5600    2.7713    1.8360 O   0  0  0  0  0  0  0  0  0  0  0  0
    1.4683   -0.8925    0.5475 C   0  0  0  0  0  0  0  0  0  0  0  0
    2.3197   -0.6517    1.4003 O   0  0  0  0  0  0  0  0  0  0  0  0
    1.7327   -1.8974   -0.3667 N   0  0  0  0  0  0  0  0  0  0  0  0
    0.8902   -2.2525   -0.8123 H   0  0  0  0  0  0  0  0  0  0  0  0
    2.8329   -2.8341   -0.1905 C   0  0  0  0  0  0  0  0  0  0  0  0
    2.7142   -3.3904    0.7450 H   0  0  0  0  0  0  0  0  0  0  0  0
    2.8534   -3.5471   -1.0197 H   0  0  0  0  0  0  0  0  0  0  0  0
    3.7902   -2.3035   -0.1693 H   0  0  0  0  0  0  0  0  0  0  0  0
  1  2  1  0  0  0  0
  2  3  1  0  0  0  0
  2  4  1  0  0  0  0
  2  5  1  0  0  0  0
  5  6  2  0  0  0  0
  5  7  1  0  0  0  0
  7  8  1  0  0  0  0
  7  9  1  0  0  0  0
  9 10  1  0  0  0  0
  9 11  1  0  0  0  0
  9 17  1  0  0  0  0
 11 12  1  0  0  0  0
 11 13  1  0  0  0  0
 11 14  1  0  0  0  0
 14 15  1  0  0  0  0
 14 16  2  0  0  0  0
 17 18  2  0  0  0  0
 17 19  1  0  0  0  0
 19 20  1  0  0  0  0
 19 21  1  0  0  0  0
 21 22  1  0  0  0  0
 21 23  1  0  0  0  0
 21 24  1  0  0  0  0
M  CHG  1  15  -1
M  END
$$$$

  -OEChem-01062216073D

 24 23  0     1  0  0  0  0  0999 V2000
   -3.0993   -3.1571    1.1842 H   0  0  0  0  0  0  0  0  0  0  0  0
   -2.9505   -2.1391    0.8135 C   0  0  0  0  0  0  0  0  0  0  0  0
   -3.3714   -1.4368    1.5380 H   0  0  0  0  0  0  0  0  0  0  0  0
   -3.4764   -2.0275   -0.1377 H   0  0  0  0  0  0  0  0  0  0  0  0
   -1.4704   -1.8584    0.6234 C   0  0  0  0  0  0  0  0  0  0  0  0
   -0.6787   -2.7808    0.7271 O   0  0  0  0  0  0  0  0  0  0  0  0
   -1.0900   -0.5897    0.2372 N   0  0  0  0  0  0  0  0  0  0  0  0
   -1.8559    0.0777    0.1585 H   0  0  0  0  0  0  0  0  0  0  0  0
    0.2383    0.0480    0.3148 C   0  0  1  0  0  0  0  0  0  0  0  0
    0.4474    0.5260   -0.6473 H   0  0  0  0  0  0  0  0  0  0  0  0
    0.0788    1.1401    1.3964 C   0  0  0  0  0  0  0  0  0  0  0  0
   -0.3043    0.7000    2.3219 H   0  0  0  0  0  0  0  0  0  0  0  0
    1.0560    1.5783    1.6151 H   0  0  0  0  0  0  0  0  0  0  0  0
   -0.8313    2.2800    0.9436 C   0  0  0  0  0  0  0  0  0  0  0  0
   -0.8964    2.5481   -0.2825 O   0  5  0  0  0  0  0  0  0  0  0  0
   -1.5666    2.7951    1.8184 O   0  0  0  0  0  0  0  0  0  0  0  0
    1.4622   -0.8770    0.5659 C   0  0  0  0  0  0  0  0  0  0  0  0
    2.1391   -0.8166    1.5899 O   0  0  0  0  0  0  0  0  0  0  0  0
    1.9215   -1.6585   -0.4804 N   0  0  0  0  0  0  0  0  0  0  0  0
    1.2253   -1.8455   -1.1950 H   0  0  0  0  0  0  0  0  0  0  0  0
    3.0012   -2.6205   -0.3171 C   0  0  0  0  0  0  0  0  0  0  0  0
    2.7251   -3.3810    0.4206 H   0  0  0  0  0  0  0  0  0  0  0  0
    3.2078   -3.1170   -1.2696 H   0  0  0  0  0  0  0  0  0  0  0  0
    3.9159   -2.1191    0.0150 H   0  0  0  0  0  0  0  0  0  0  0  0
  1  2  1  0  0  0  0
  2  3  1  0  0  0  0
  2  4  1  0  0  0  0
  2  5  1  0  0  0  0
  5  6  2  0  0  0  0
  5  7  1  0  0  0  0
  7  8  1  0  0  0  0
  7  9  1  0  0  0  0
  9 10  1  0  0  0  0
  9 11  1  0  0  0  0
  9 17  1  0  0  0  0
 11 12  1  0  0  0  0
 11 13  1  0  0  0  0
 11 14  1  0  0  0  0
 14 15  1  0  0  0  0
 14 16  2  0  0  0  0
 17 18  2  0  0  0  0
 17 19  1  0  0  0  0
 19 20  1  0  0  0  0
 19 21  1  0  0  0  0
 21 22  1  0  0  0  0
 21 23  1  0  0  0  0
 21 24  1  0  0  0  0
M  CHG  1  15  -1
M  END
$$$$

  -OEChem-01062216073D

 24 23  0     1  0  0  0  0  0999 V2000
   -3.0822   -3.1704    1.1962 H   0  0  0  0  0  0  0  0  0  0  0  0
   -2.9419   -2.1499    0.8294 C   0  0  0  0  0  0  0  0  0  0  0  0
   -3.3449   -1.4528    1.5688 H   0  0  0  0  0  0  0  0  0  0  0  0
   -3.4905   -2.0313   -0.1082 H   0  0  0  0  0  0  0  0  0  0  0  0
   -1.4665   -1.8683    0.6064 C   0  0  0  0  0  0  0  0  0  0  0  0
   -0.6743   -2.7942    0.6691 O   0  0  0  0  0  0  0  0  0  0  0  0
   -1.0948   -0.5975    0.2184 N   0  0  0  0  0  0  0  0  0  0  0  0
   -1.8629    0.0689    0.1604 H   0  0  0  0  0  0  0  0  0  0  0  0
    0.2310    0.0410    0.3105 C   0  0  1  0  0  0  0  0  0  0  0  0
    0.4461    0.5207   -0.6492 H   0  0  0  0  0  0  0  0  0  0  0  0
    0.0737    1.1331    1.3910 C   0  0  0  0  0  0  0  0  0  0  0  0
   -0.3180    0.6941    2.3135 H   0  0  0  0  0  0  0  0  0  0  0  0
    1.0539    1.5612    1.6154 H   0  0  0  0  0  0  0  0  0  0  0  0
   -0.8275    2.2793    0.9372 C   0  0  0  0  0  0  0  0  0  0  0  0
   -0.8864    2.5492   -0.2889 O   0  5  0  0  0  0  0  0  0  0  0  0
   -1.5549    2.8058    1.8117 O   0  0  0  0  0  0  0  0  0  0  0  0
    1.4519   -0.8816    0.5784 C   0  0  0  0  0  0  0  0  0  0  0  0
    1.9578   -0.9981    1.6924 O   0  0  0  0  0  0  0  0  0  0  0  0
    2.1221   -1.4211   -0.5063 N   0  0  0  0  0  0  0  0  0  0  0  0
    1.6014   -1.4260   -1.3769 H   0  0  0  0  0  0  0  0  0  0  0  0
    3.2311   -2.3515   -0.3591 C   0  0  0  0  0  0  0  0  0  0  0  0
    2.9072   -3.2462    0.1824 H   0  0  0  0  0  0  0  0  0  0  0  0
    3.6005   -2.6540   -1.3432 H   0  0  0  0  0  0  0  0  0  0  0  0
    4.0548   -1.8833    0.1892 H   0  0  0  0  0  0  0  0  0  0  0  0
  1  2  1  0  0  0  0
  2  3  1  0  0  0  0
  2  4  1  0  0  0  0
  2  5  1  0  0  0  0
  5  6  2  0  0  0  0
  5  7  1  0  0  0  0
  7  8  1  0  0  0  0
  7  9  1  0  0  0  0
  9 10  1  0  0  0  0
  9 11  1  0  0  0  0
  9 17  1  0  0  0  0
 11 12  1  0  0  0  0
 11 13  1  0  0  0  0
 11 14  1  0  0  0  0
 14 15  1  0  0  0  0
 14 16  2  0  0  0  0
 17 18  2  0  0  0  0
 17 19  1  0  0  0  0
 19 20  1  0  0  0  0
 19 21  1  0  0  0  0
 21 22  1  0  0  0  0
 21 23  1  0  0  0  0
 21 24  1  0  0  0  0
M  CHG  1  15  -1
M  END
$$$$

  -OEChem-01062216073D

 24 23  0     1  0  0  0  0  0999 V2000
   -3.0924   -3.1640    1.2160 H   0  0  0  0  0  0  0  0  0  0  0  0
   -2.9531   -2.1386    0.8626 C   0  0  0  0  0  0  0  0  0  0  0  0
   -3.3004   -1.4504    1.6376 H   0  0  0  0  0  0  0  0  0  0  0  0
   -3.5505   -1.9900   -0.0401 H   0  0  0  0  0  0  0  0  0  0  0  0
   -1.4873   -1.8798    0.5637 C   0  0  0  0  0  0  0  0  0  0  0  0
   -0.7137   -2.8232    0.5440 O   0  0  0  0  0  0  0  0  0  0  0  0
   -1.1110   -0.6098    0.1788 N   0  0  0  0  0  0  0  0  0  0  0  0
   -1.8729    0.0654    0.1594 H   0  0  0  0  0  0  0  0  0  0  0  0
    0.2190    0.0151    0.2921 C   0  0  1  0  0  0  0  0  0  0  0  0
    0.4457    0.4980   -0.6632 H   0  0  0  0  0  0  0  0  0  0  0  0
    0.0671    1.1023    1.3773 C   0  0  0  0  0  0  0  0  0  0  0  0
   -0.3405    0.6624    2.2925 H   0  0  0  0  0  0  0  0  0  0  0  0
    1.0520    1.5122    1.6152 H   0  0  0  0  0  0  0  0  0  0  0  0
   -0.8133    2.2651    0.9257 C   0  0  0  0  0  0  0  0  0  0  0  0
   -0.8576    2.5450   -0.2985 O   0  5  0  0  0  0  0  0  0  0  0  0
   -1.5364    2.7987    1.7992 O   0  0  0  0  0  0  0  0  0  0  0  0
    1.4339   -0.9095    0.5779 C   0  0  0  0  0  0  0  0  0  0  0  0
    1.7758   -1.2026    1.7212 O   0  0  0  0  0  0  0  0  0  0  0  0
    2.3074   -1.1984   -0.4571 N   0  0  0  0  0  0  0  0  0  0  0  0
    1.9697   -1.0033   -1.3934 H   0  0  0  0  0  0  0  0  0  0  0  0
    3.4808   -2.0441   -0.2962 C   0  0  0  0  0  0  0  0  0  0  0  0
    3.1874   -3.0439    0.0398 H   0  0  0  0  0  0  0  0  0  0  0  0
    4.0086   -2.1381   -1.2497 H   0  0  0  0  0  0  0  0  0  0  0  0
    4.1684   -1.6106    0.4372 H   0  0  0  0  0  0  0  0  0  0  0  0
  1  2  1  0  0  0  0
  2  3  1  0  0  0  0
  2  4  1  0  0  0  0
  2  5  1  0  0  0  0
  5  6  2  0  0  0  0
  5  7  1  0  0  0  0
  7  8  1  0  0  0  0
  7  9  1  0  0  0  0
  9 10  1  0  0  0  0
  9 11  1  0  0  0  0
  9 17  1  0  0  0  0
 11 12  1  0  0  0  0
 11 13  1  0  0  0  0
 11 14  1  0  0  0  0
 14 15  1  0  0  0  0
 14 16  2  0  0  0  0
 17 18  2  0  0  0  0
 17 19  1  0  0  0  0
 19 20  1  0  0  0  0
 19 21  1  0  0  0  0
 21 22  1  0  0  0  0
 21 23  1  0  0  0  0
 21 24  1  0  0  0  0
M  CHG  1  15  -1
M  END
$$$$

  -OEChem-01062216073D

 24 23  0     1  0  0  0  0  0999 V2000
   -3.1165   -3.1554    1.2293 H   0  0  0  0  0  0  0  0  0  0  0  0
   -2.9713   -2.1261    0.8900 C   0  0  0  0  0  0  0  0  0  0  0  0
   -3.2623   -1.4470    1.6957 H   0  0  0  0  0  0  0  0  0  0  0  0
   -3.6099   -1.9445    0.0220 H   0  0  0  0  0  0  0  0  0  0  0  0
   -1.5166   -1.8942    0.5222 C   0  0  0  0  0  0  0  0  0  0  0  0
   -0.7743   -2.8571    0.4172 O   0  0  0  0  0  0  0  0  0  0  0  0
   -1.1290   -0.6269    0.1407 N   0  0  0  0  0  0  0  0  0  0  0  0
   -1.8813    0.0588    0.1574 H   0  0  0  0  0  0  0  0  0  0  0  0
    0.2087   -0.0207    0.2665 C   0  0  1  0  0  0  0  0  0  0  0  0
    0.4404    0.4624   -0.6875 H   0  0  0  0  0  0  0  0  0  0  0  0
    0.0737    1.0604    1.3590 C   0  0  0  0  0  0  0  0  0  0  0  0
   -0.3430    0.6197    2.2696 H   0  0  0  0  0  0  0  0  0  0  0  0
    1.0652    1.4511    1.6019 H   0  0  0  0  0  0  0  0  0  0  0  0
   -0.7845    2.2427    0.9169 C   0  0  0  0  0  0  0  0  0  0  0  0
   -0.8217    2.5337   -0.3047 O   0  5  0  0  0  0  0  0  0  0  0  0
   -1.4921    2.7877    1.7958 O   0  0  0  0  0  0  0  0  0  0  0  0
    1.4197   -0.9472    0.5604 C   0  0  0  0  0  0  0  0  0  0  0  0
    1.6248   -1.4114    1.6794 O   0  0  0  0  0  0  0  0  0  0  0  0
    2.4603   -0.9896   -0.3527 N   0  0  0  0  0  0  0  0  0  0  0  0
    2.2909   -0.5647   -1.2582 H   0  0  0  0  0  0  0  0  0  0  0  0
    3.6967   -1.7254   -0.1332 C   0  0  0  0  0  0  0  0  0  0  0  0
    3.4827   -2.7811    0.0628 H   0  0  0  0  0  0  0  0  0  0  0  0
    4.3348   -1.6599   -1.0193 H   0  0  0  0  0  0  0  0  0  0  0  0
    4.2430   -1.3091    0.7191 H   0  0  0  0  0  0  0  0  0  0  0  0
  1  2  1  0  0  0  0
  2  3  1  0  0  0  0
  2  4  1  0  0  0  0
  2  5  1  0  0  0  0
  5  6  2  0  0  0  0
  5  7  1  0  0  0  0
  7  8  1  0  0  0  0
  7  9  1  0  0  0  0
  9 10  1  0  0  0  0
  9 11  1  0  0  0  0
  9 17  1  0  0  0  0
 11 12  1  0  0  0  0
 11 13  1  0  0  0  0
 11 14  1  0  0  0  0
 14 15  1  0  0  0  0
 14 16  2  0  0  0  0
 17 18  2  0  0  0  0
 17 19  1  0  0  0  0
 19 20  1  0  0  0  0
 19 21  1  0  0  0  0
 21 22  1  0  0  0  0
 21 23  1  0  0  0  0
 21 24  1  0  0  0  0
M  CHG  1  15  -1
M  END
$$$$

  -OEChem-01062216073D

 24 23  0     1  0  0  0  0  0999 V2000
   -3.1488   -3.1423    1.2382 H   0  0  0  0  0  0  0  0  0  0  0  0
   -2.9872   -2.1069    0.9260 C   0  0  0  0  0  0  0  0  0  0  0  0
   -3.2095   -1.4475    1.7691 H   0  0  0  0  0  0  0  0  0  0  0  0
   -3.6661   -1.8735    0.1021 H   0  0  0  0  0  0  0  0  0  0  0  0
   -1.5481   -1.9101    0.4836 C   0  0  0  0  0  0  0  0  0  0  0  0
   -0.8525   -2.8928    0.2849 O   0  0  0  0  0  0  0  0  0  0  0  0
   -1.1433   -0.6480    0.1033 N   0  0  0  0  0  0  0  0  0  0  0  0
   -1.8808    0.0510    0.1571 H   0  0  0  0  0  0  0  0  0  0  0  0
    0.2050   -0.0654    0.2298 C   0  0  1  0  0  0  0  0  0  0  0  0
    0.4368    0.4162   -0.7249 H   0  0  0  0  0  0  0  0  0  0  0  0
    0.0951    1.0106    1.3304 C   0  0  0  0  0  0  0  0  0  0  0  0
   -0.3259    0.5706    2.2393 H   0  0  0  0  0  0  0  0  0  0  0  0
    1.0945    1.3807    1.5732 H   0  0  0  0  0  0  0  0  0  0  0  0
   -0.7416    2.2131    0.9033 C   0  0  0  0  0  0  0  0  0  0  0  0
   -0.7787    2.5151   -0.3153 O   0  5  0  0  0  0  0  0  0  0  0  0
   -1.4290    2.7681    1.7918 O   0  0  0  0  0  0  0  0  0  0  0  0
    1.4144   -0.9941    0.5220 C   0  0  0  0  0  0  0  0  0  0  0  0
    1.5138   -1.6194    1.5745 O   0  0  0  0  0  0  0  0  0  0  0  0
    2.5740   -0.8072   -0.2132 N   0  0  0  0  0  0  0  0  0  0  0  0
    2.5222   -0.1588   -0.9922 H   0  0  0  0  0  0  0  0  0  0  0  0
    3.8535   -1.4162    0.1199 C   0  0  0  0  0  0  0  0  0  0  0  0
    3.7564   -2.5055    0.1728 H   0  0  0  0  0  0  0  0  0  0  0  0
    4.5958   -1.1722   -0.6457 H   0  0  0  0  0  0  0  0  0  0  0  0
    4.2135   -1.0446    1.0847 H   0  0  0  0  0  0  0  0  0  0  0  0
  1  2  1  0  0  0  0
  2  3  1  0  0  0  0
  2  4  1  0  0  0  0
  2  5  1  0  0  0  0
  5  6  2  0  0  0  0
  5  7  1  0  0  0  0
  7  8  1  0  0  0  0
  7  9  1  0  0  0  0
  9 10  1  0  0  0  0
  9 11  1  0  0  0  0
  9 17  1  0  0  0  0
 11 12  1  0  0  0  0
 11 13  1  0  0  0  0
 11 14  1  0  0  0  0
 14 15  1  0  0  0  0
 14 16  2  0  0  0  0
 17 18  2  0  0  0  0
 17 19  1  0  0  0  0
 19 20  1  0  0  0  0
 19 21  1  0  0  0  0
 21 22  1  0  0  0  0
 21 23  1  0  0  0  0
 21 24  1  0  0  0  0
M  CHG  1  15  -1
M  END
$$$$

  -OEChem-01062216073D

 24 23  0     1  0  0  0  0  0999 V2000
   -3.1185   -3.1144    1.3172 H   0  0  0  0  0  0  0  0  0  0  0  0
   -2.9678   -2.0885    0.9706 C   0  0  0  0  0  0  0  0  0  0  0  0
   -3.1261   -1.4079    1.8112 H   0  0  0  0  0  0  0  0  0  0  0  0
   -3.6971   -1.8655    0.1881 H   0  0  0  0  0  0  0  0  0  0  0  0
   -1.5592   -1.9204    0.4298 C   0  0  0  0  0  0  0  0  0  0  0  0
   -0.9230   -2.9154    0.1224 O   0  0  0  0  0  0  0  0  0  0  0  0
   -1.1426   -0.6620    0.0525 N   0  0  0  0  0  0  0  0  0  0  0  0
   -1.8684    0.0449    0.1445 H   0  0  0  0  0  0  0  0  0  0  0  0
    0.2124   -0.0955    0.1882 C   0  0  1  0  0  0  0  0  0  0  0  0
    0.4498    0.3898   -0.7634 H   0  0  0  0  0  0  0  0  0  0  0  0
    0.1049    0.9688    1.3013 C   0  0  0  0  0  0  0  0  0  0  0  0
   -0.3253    0.5207    2.2021 H   0  0  0  0  0  0  0  0  0  0  0  0
    1.1048    1.3294    1.5562 H   0  0  0  0  0  0  0  0  0  0  0  0
   -0.7186    2.1843    0.8874 C   0  0  0  0  0  0  0  0  0  0  0  0
   -0.7466    2.5029   -0.3267 O   0  5  0  0  0  0  0  0  0  0  0  0
   -1.4003    2.7365    1.7817 O   0  0  0  0  0  0  0  0  0  0  0  0
    1.4280   -1.0143    0.4862 C   0  0  0  0  0  0  0  0  0  0  0  0
    1.4408   -1.8092    1.4213 O   0  0  0  0  0  0  0  0  0  0  0  0
    2.6610   -0.6181   -0.0074 N   0  0  0  0  0  0  0  0  0  0  0  0
    2.6648    0.1932   -0.6179 H   0  0  0  0  0  0  0  0  0  0  0  0
    3.9317   -1.1686    0.4420 C   0  0  0  0  0  0  0  0  0  0  0  0
    3.9345   -2.2585    0.3388 H   0  0  0  0  0  0  0  0  0  0  0  0
    4.7497   -0.7637   -0.1608 H   0  0  0  0  0  0  0  0  0  0  0  0
    4.1106   -0.9107    1.4907 H   0  0  0  0  0  0  0  0  0  0  0  0
  1  2  1  0  0  0  0
  2  3  1  0  0  0  0
  2  4  1  0  0  0  0
  2  5  1  0  0  0  0
  5  6  2  0  0  0  0
  5  7  1  0  0  0  0
  7  8  1  0  0  0  0
  7  9  1  0  0  0  0
  9 10  1  0  0  0  0
  9 11  1  0  0  0  0
  9 17  1  0  0  0  0
 11 12  1  0  0  0  0
 11 13  1  0  0  0  0
 11 14  1  0  0  0  0
 14 15  1  0  0  0  0
 14 16  2  0  0  0  0
 17 18  2  0  0  0  0
 17 19  1  0  0  0  0
 19 20  1  0  0  0  0
 19 21  1  0  0  0  0
 21 22  1  0  0  0  0
 21 23  1  0  0  0  0
 21 24  1  0  0  0  0
M  CHG  1  15  -1
M  END
$$$$

  -OEChem-01062216073D

 24 23  0     1  0  0  0  0  0999 V2000
   -3.2366   -3.2754    0.9800 H   0  0  0  0  0  0  0  0  0  0  0  0
   -2.9887   -2.3128    0.5242 C   0  0  0  0  0  0  0  0  0  0  0  0
   -3.7682   -1.5899    0.7774 H   0  0  0  0  0  0  0  0  0  0  0  0
   -2.9544   -2.4368   -0.5608 H   0  0  0  0  0  0  0  0  0  0  0  0
   -1.6439   -1.8219    1.0311 C   0  0  0  0  0  0  0  0  0  0  0  0
   -1.1364   -2.4015    1.9755 O   0  0  0  0  0  0  0  0  0  0  0  0
   -1.1695   -0.6212    0.5431 N   0  0  0  0  0  0  0  0  0  0  0  0
   -1.8140   -0.1299   -0.0700 H   0  0  0  0  0  0  0  0  0  0  0  0
    0.2003   -0.0726    0.5277 C   0  0  1  0  0  0  0  0  0  0  0  0
    0.3641    0.2838   -0.4939 H   0  0  0  0  0  0  0  0  0  0  0  0
    0.1789    1.1402    1.4834 C   0  0  0  0  0  0  0  0  0  0  0  0
   -0.2190    0.8336    2.4554 H   0  0  0  0  0  0  0  0  0  0  0  0
    1.1931    1.5132    1.6418 H   0  0  0  0  0  0  0  0  0  0  0  0
   -0.6475    2.3024    0.9356 C   0  0  0  0  0  0  0  0  0  0  0  0
   -0.7362    2.4355   -0.3122 O   0  5  0  0  0  0  0  0  0  0  0  0
   -1.1665    3.0796    1.7703 O   0  0  0  0  0  0  0  0  0  0  0  0
    1.4631   -0.9450    0.7837 C   0  0  0  0  0  0  0  0  0  0  0  0
    1.4634   -2.1655    0.8807 O   0  0  0  0  0  0  0  0  0  0  0  0
    2.6793   -0.3795    0.4319 N   0  0  0  0  0  0  0  0  0  0  0  0
    2.6755    0.6193    0.2446 H   0  0  0  0  0  0  0  0  0  0  0  0
    3.9427   -1.1024    0.3887 C   0  0  0  0  0  0  0  0  0  0  0  0
    3.9150   -1.8759   -0.3853 H   0  0  0  0  0  0  0  0  0  0  0  0
    4.7610   -0.4130    0.1611 H   0  0  0  0  0  0  0  0  0  0  0  0
    4.1469   -1.5740    1.3553 H   0  0  0  0  0  0  0  0  0  0  0  0
  1  2  1  0  0  0  0
  2  3  1  0  0  0  0
  2  4  1  0  0  0  0
  2  5  1  0  0  0  0
  5  6  2  0  0  0  0
  5  7  1  0  0  0  0
  7  8  1  0  0  0  0
  7  9  1  0  0  0  0
  9 10  1  0  0  0  0
  9 11  1  0  0  0  0
  9 17  1  0  0  0  0
 11 12  1  0  0  0  0
 11 13  1  0  0  0  0
 11 14  1  0  0  0  0
 14 15  1  0  0  0  0
 14 16  2  0  0  0  0
 17 18  2  0  0  0  0
 17 19  1  0  0  0  0
 19 20  1  0  0  0  0
 19 21  1  0  0  0  0
 21 22  1  0  0  0  0
 21 23  1  0  0  0  0
 21 24  1  0  0  0  0
M  CHG  1  15  -1
M  END
$$$$

  -OEChem-01062216073D

 24 23  0     1  0  0  0  0  0999 V2000
   -3.0716   -3.3378    1.0523 H   0  0  0  0  0  0  0  0  0  0  0  0
   -2.9220   -2.3427    0.6242 C   0  0  0  0  0  0  0  0  0  0  0  0
   -3.6727   -1.6635    1.0360 H   0  0  0  0  0  0  0  0  0  0  0  0
   -3.0496   -2.4035   -0.4593 H   0  0  0  0  0  0  0  0  0  0  0  0
   -1.5298   -1.8333    0.9534 C   0  0  0  0  0  0  0  0  0  0  0  0
   -0.8545   -2.4489    1.7635 O   0  0  0  0  0  0  0  0  0  0  0  0
   -1.1444   -0.6044    0.4559 N   0  0  0  0  0  0  0  0  0  0  0  0
   -1.8547   -0.0808   -0.0463 H   0  0  0  0  0  0  0  0  0  0  0  0
    0.2070   -0.0195    0.4387 C   0  0  1  0  0  0  0  0  0  0  0  0
    0.2853    0.5873   -0.4687 H   0  0  0  0  0  0  0  0  0  0  0  0
    0.2932    0.9117    1.6692 C   0  0  0  0  0  0  0  0  0  0  0  0
    0.0116    0.3577    2.5697 H   0  0  0  0  0  0  0  0  0  0  0  0
    1.3156    1.2696    1.8041 H   0  0  0  0  0  0  0  0  0  0  0  0
   -0.5964    2.1459    1.5290 C   0  0  0  0  0  0  0  0  0  0  0  0
   -0.8315    2.5876    0.3747 O   0  5  0  0  0  0  0  0  0  0  0  0
   -1.0083    2.6749    2.5881 O   0  0  0  0  0  0  0  0  0  0  0  0
    1.4307   -0.9733    0.3405 C   0  0  0  0  0  0  0  0  0  0  0  0
    1.3473   -2.0960   -0.1504 O   0  0  0  0  0  0  0  0  0  0  0  0
    2.6950   -0.4054    0.3309 N   0  0  0  0  0  0  0  0  0  0  0  0
    2.7570    0.5628    0.6318 H   0  0  0  0  0  0  0  0  0  0  0  0
    3.9184   -1.1315    0.0220 C   0  0  0  0  0  0  0  0  0  0  0  0
    3.8915   -1.5071   -1.0059 H   0  0  0  0  0  0  0  0  0  0  0  0
    4.7833   -0.4699    0.1259 H   0  0  0  0  0  0  0  0  0  0  0  0
    4.0437   -1.9767    0.7064 H   0  0  0  0  0  0  0  0  0  0  0  0
  1  2  1  0  0  0  0
  2  3  1  0  0  0  0
  2  4  1  0  0  0  0
  2  5  1  0  0  0  0
  5  6  2  0  0  0  0
  5  7  1  0  0  0  0
  7  8  1  0  0  0  0
  7  9  1  0  0  0  0
  9 10  1  0  0  0  0
  9 11  1  0  0  0  0
  9 17  1  0  0  0  0
 11 12  1  0  0  0  0
 11 13  1  0  0  0  0
 11 14  1  0  0  0  0
 14 15  1  0  0  0  0
 14 16  2  0  0  0  0
 17 18  2  0  0  0  0
 17 19  1  0  0  0  0
 19 20  1  0  0  0  0
 19 21  1  0  0  0  0
 21 22  1  0  0  0  0
 21 23  1  0  0  0  0
 21 24  1  0  0  0  0
M  CHG  1  15  -1
M  END
$$$$

  -OEChem-01062216073D

 24 23  0     1  0  0  0  0  0999 V2000
   -3.0198   -3.3423    1.0632 H   0  0  0  0  0  0  0  0  0  0  0  0
   -2.8933   -2.3427    0.6386 C   0  0  0  0  0  0  0  0  0  0  0  0
   -3.6326   -1.6724    1.0839 H   0  0  0  0  0  0  0  0  0  0  0  0
   -3.0602   -2.3948   -0.4399 H   0  0  0  0  0  0  0  0  0  0  0  0
   -1.4935   -1.8264    0.9194 C   0  0  0  0  0  0  0  0  0  0  0  0
   -0.7712   -2.4595    1.6746 O   0  0  0  0  0  0  0  0  0  0  0  0
   -1.1391   -0.5845    0.4313 N   0  0  0  0  0  0  0  0  0  0  0  0
   -1.8704   -0.0543   -0.0327 H   0  0  0  0  0  0  0  0  0  0  0  0
    0.2010    0.0241    0.4140 C   0  0  1  0  0  0  0  0  0  0  0  0
    0.2765    0.6455   -0.4838 H   0  0  0  0  0  0  0  0  0  0  0  0
    0.2707    0.9362    1.6611 C   0  0  0  0  0  0  0  0  0  0  0  0
    0.0073    0.3613    2.5539 H   0  0  0  0  0  0  0  0  0  0  0  0
    1.2823    1.3215    1.7961 H   0  0  0  0  0  0  0  0  0  0  0  0
   -0.6455    2.1532    1.5451 C   0  0  0  0  0  0  0  0  0  0  0  0
   -0.8954    2.6120    0.4010 O   0  5  0  0  0  0  0  0  0  0  0  0
   -1.0689    2.6484    2.6161 O   0  0  0  0  0  0  0  0  0  0  0  0
    1.4137   -0.9427    0.2997 C   0  0  0  0  0  0  0  0  0  0  0  0
    1.3502   -1.9554   -0.3939 O   0  0  0  0  0  0  0  0  0  0  0  0
    2.6858   -0.4785    0.5933 N   0  0  0  0  0  0  0  0  0  0  0  0
    2.7362    0.3861    1.1233 H   0  0  0  0  0  0  0  0  0  0  0  0
    3.9008   -1.2532    0.3884 C   0  0  0  0  0  0  0  0  0  0  0  0
    4.0405   -1.4730   -0.6748 H   0  0  0  0  0  0  0  0  0  0  0  0
    4.7687   -0.6890    0.7418 H   0  0  0  0  0  0  0  0  0  0  0  0
    3.8502   -2.1959    0.9426 H   0  0  0  0  0  0  0  0  0  0  0  0
  1  2  1  0  0  0  0
  2  3  1  0  0  0  0
  2  4  1  0  0  0  0
  2  5  1  0  0  0  0
  5  6  2  0  0  0  0
  5  7  1  0  0  0  0
  7  8  1  0  0  0  0
  7  9  1  0  0  0  0
  9 10  1  0  0  0  0
  9 11  1  0  0  0  0
  9 17  1  0  0  0  0
 11 12  1  0  0  0  0
 11 13  1  0  0  0  0
 11 14  1  0  0  0  0
 14 15  1  0  0  0  0
 14 16  2  0  0  0  0
 17 18  2  0  0  0  0
 17 19  1  0  0  0  0
 19 20  1  0  0  0  0
 19 21  1  0  0  0  0
 21 22  1  0  0  0  0
 21 23  1  0  0  0  0
 21 24  1  0  0  0  0
M  CHG  1  15  -1
M  END
$$$$

  -OEChem-01062216073D

 24 23  0     1  0  0  0  0  0999 V2000
   -2.9852   -3.3448    1.0641 H   0  0  0  0  0  0  0  0  0  0  0  0
   -2.8734   -2.3403    0.6467 C   0  0  0  0  0  0  0  0  0  0  0  0
   -3.6003   -1.6768    1.1218 H   0  0  0  0  0  0  0  0  0  0  0  0
   -3.0736   -2.3810   -0.4268 H   0  0  0  0  0  0  0  0  0  0  0  0
   -1.4665   -1.8235    0.8902 C   0  0  0  0  0  0  0  0  0  0  0  0
   -0.7114   -2.4760    1.5954 O   0  0  0  0  0  0  0  0  0  0  0  0
   -1.1306   -0.5729    0.4113 N   0  0  0  0  0  0  0  0  0  0  0  0
   -1.8761   -0.0370   -0.0234 H   0  0  0  0  0  0  0  0  0  0  0  0
    0.1997    0.0568    0.3999 C   0  0  1  0  0  0  0  0  0  0  0  0
    0.2739    0.6867   -0.4922 H   0  0  0  0  0  0  0  0  0  0  0  0
    0.2554    0.9590    1.6553 C   0  0  0  0  0  0  0  0  0  0  0  0
    0.0065    0.3736    2.5454 H   0  0  0  0  0  0  0  0  0  0  0  0
    1.2600    1.3645    1.7856 H   0  0  0  0  0  0  0  0  0  0  0  0
   -0.6802    2.1620    1.5503 C   0  0  0  0  0  0  0  0  0  0  0  0
   -0.9394    2.6285    0.4118 O   0  5  0  0  0  0  0  0  0  0  0  0
   -1.1205    2.6307    2.6264 O   0  0  0  0  0  0  0  0  0  0  0  0
    1.4079   -0.9151    0.2806 C   0  0  0  0  0  0  0  0  0  0  0  0
    1.3998   -1.8072   -0.5652 O   0  0  0  0  0  0  0  0  0  0  0  0
    2.6293   -0.5983    0.8524 N   0  0  0  0  0  0  0  0  0  0  0  0
    2.6124    0.1285    1.5611 H   0  0  0  0  0  0  0  0  0  0  0  0
    3.8196   -1.4251    0.7199 C   0  0  0  0  0  0  0  0  0  0  0  0
    4.1166   -1.5045   -0.3308 H   0  0  0  0  0  0  0  0  0  0  0  0
    4.6479   -0.9813    1.2797 H   0  0  0  0  0  0  0  0  0  0  0  0
    3.6324   -2.4295    1.1130 H   0  0  0  0  0  0  0  0  0  0  0  0
  1  2  1  0  0  0  0
  2  3  1  0  0  0  0
  2  4  1  0  0  0  0
  2  5  1  0  0  0  0
  5  6  2  0  0  0  0
  5  7  1  0  0  0  0
  7  8  1  0  0  0  0
  7  9  1  0  0  0  0
  9 10  1  0  0  0  0
  9 11  1  0  0  0  0
  9 17  1  0  0  0  0
 11 12  1  0  0  0  0
 11 13  1  0  0  0  0
 11 14  1  0  0  0  0
 14 15  1  0  0  0  0
 14 16  2  0  0  0  0
 17 18  2  0  0  0  0
 17 19  1  0  0  0  0
 19 20  1  0  0  0  0
 19 21  1  0  0  0  0
 21 22  1  0  0  0  0
 21 23  1  0  0  0  0
 21 24  1  0  0  0  0
M  CHG  1  15  -1
M  END
$$$$

  -OEChem-01062216073D

 24 23  0     1  0  0  0  0  0999 V2000
   -2.9635   -3.3406    1.0639 H   0  0  0  0  0  0  0  0  0  0  0  0
   -2.8600   -2.3328    0.6525 C   0  0  0  0  0  0  0  0  0  0  0  0
   -3.5697   -1.6710    1.1556 H   0  0  0  0  0  0  0  0  0  0  0  0
   -3.0933   -2.3627   -0.4146 H   0  0  0  0  0  0  0  0  0  0  0  0
   -1.4441   -1.8240    0.8581 C   0  0  0  0  0  0  0  0  0  0  0  0
   -0.6632   -2.4974    1.5139 O   0  0  0  0  0  0  0  0  0  0  0  0
   -1.1202   -0.5670    0.3884 N   0  0  0  0  0  0  0  0  0  0  0  0
   -1.8789   -0.0197   -0.0085 H   0  0  0  0  0  0  0  0  0  0  0  0
    0.2017    0.0791    0.3852 C   0  0  1  0  0  0  0  0  0  0  0  0
    0.2740    0.7171   -0.5014 H   0  0  0  0  0  0  0  0  0  0  0  0
    0.2488    0.9702    1.6476 C   0  0  0  0  0  0  0  0  0  0  0  0
    0.0099    0.3749    2.5339 H   0  0  0  0  0  0  0  0  0  0  0  0
    1.2508    1.3851    1.7740 H   0  0  0  0  0  0  0  0  0  0  0  0
   -0.7001    2.1632    1.5548 C   0  0  0  0  0  0  0  0  0  0  0  0
   -0.9678    2.6387    0.4222 O   0  5  0  0  0  0  0  0  0  0  0  0
   -1.1539    2.6063    2.6362 O   0  0  0  0  0  0  0  0  0  0  0  0
    1.4116   -0.8887    0.2643 C   0  0  0  0  0  0  0  0  0  0  0  0
    1.4920   -1.6465   -0.7002 O   0  0  0  0  0  0  0  0  0  0  0  0
    2.5269   -0.7486    1.0734 N   0  0  0  0  0  0  0  0  0  0  0  0
    2.3947   -0.1791    1.9039 H   0  0  0  0  0  0  0  0  0  0  0  0
    3.6768   -1.6378    1.0084 C   0  0  0  0  0  0  0  0  0  0  0  0
    4.1313   -1.6046    0.0130 H   0  0  0  0  0  0  0  0  0  0  0  0
    4.4291   -1.3318    1.7411 H   0  0  0  0  0  0  0  0  0  0  0  0
    3.3751   -2.6672    1.2269 H   0  0  0  0  0  0  0  0  0  0  0  0
  1  2  1  0  0  0  0
  2  3  1  0  0  0  0
  2  4  1  0  0  0  0
  2  5  1  0  0  0  0
  5  6  2  0  0  0  0
  5  7  1  0  0  0  0
  7  8  1  0  0  0  0
  7  9  1  0  0  0  0
  9 10  1  0  0  0  0
  9 11  1  0  0  0  0
  9 17  1  0  0  0  0
 11 12  1  0  0  0  0
 11 13  1  0  0  0  0
 11 14  1  0  0  0  0
 14 15  1  0  0  0  0
 14 16  2  0  0  0  0
 17 18  2  0  0  0  0
 17 19  1  0  0  0  0
 19 20  1  0  0  0  0
 19 21  1  0  0  0  0
 21 22  1  0  0  0  0
 21 23  1  0  0  0  0
 21 24  1  0  0  0  0
M  CHG  1  15  -1
M  END
$$$$

  -OEChem-01062216073D

 24 23  0     1  0  0  0  0  0999 V2000
   -2.9586   -3.3329    1.0585 H   0  0  0  0  0  0  0  0  0  0  0  0
   -2.8562   -2.3217    0.6552 C   0  0  0  0  0  0  0  0  0  0  0  0
   -3.5500   -1.6600    1.1800 H   0  0  0  0  0  0  0  0  0  0  0  0
   -3.1126   -2.3388   -0.4068 H   0  0  0  0  0  0  0  0  0  0  0  0
   -1.4325   -1.8249    0.8346 C   0  0  0  0  0  0  0  0  0  0  0  0
   -0.6365   -2.5186    1.4494 O   0  0  0  0  0  0  0  0  0  0  0  0
   -1.1109   -0.5660    0.3690 N   0  0  0  0  0  0  0  0  0  0  0  0
   -1.8778   -0.0058    0.0063 H   0  0  0  0  0  0  0  0  0  0  0  0
    0.2059    0.0898    0.3728 C   0  0  1  0  0  0  0  0  0  0  0  0
    0.2767    0.7327   -0.5105 H   0  0  0  0  0  0  0  0  0  0  0  0
    0.2476    0.9715    1.6411 C   0  0  0  0  0  0  0  0  0  0  0  0
    0.0116    0.3698    2.5237 H   0  0  0  0  0  0  0  0  0  0  0  0
    1.2503    1.3864    1.7672 H   0  0  0  0  0  0  0  0  0  0  0  0
   -0.7085    2.1592    1.5583 C   0  0  0  0  0  0  0  0  0  0  0  0
   -0.9804    2.6421    0.4302 O   0  5  0  0  0  0  0  0  0  0  0  0
   -1.1744    2.5818    2.6429 O   0  0  0  0  0  0  0  0  0  0  0  0
    1.4215   -0.8696    0.2580 C   0  0  0  0  0  0  0  0  0  0  0  0
    1.6146   -1.4845   -0.7884 O   0  0  0  0  0  0  0  0  0  0  0  0
    2.3868   -0.9301    1.2491 N   0  0  0  0  0  0  0  0  0  0  0  0
    2.1159   -0.5213    2.1387 H   0  0  0  0  0  0  0  0  0  0  0  0
    3.4899   -1.8781    1.2251 C   0  0  0  0  0  0  0  0  0  0  0  0
    4.0949   -1.7402    0.3233 H   0  0  0  0  0  0  0  0  0  0  0  0
    4.1327   -1.7270    2.0970 H   0  0  0  0  0  0  0  0  0  0  0  0
    3.1098   -2.9045    1.2448 H   0  0  0  0  0  0  0  0  0  0  0  0
  1  2  1  0  0  0  0
  2  3  1  0  0  0  0
  2  4  1  0  0  0  0
  2  5  1  0  0  0  0
  5  6  2  0  0  0  0
  5  7  1  0  0  0  0
  7  8  1  0  0  0  0
  7  9  1  0  0  0  0
  9 10  1  0  0  0  0
  9 11  1  0  0  0  0
  9 17  1  0  0  0  0
 11 12  1  0  0  0  0
 11 13  1  0  0  0  0
 11 14  1  0  0  0  0
 14 15  1  0  0  0  0
 14 16  2  0  0  0  0
 17 18  2  0  0  0  0
 17 19  1  0  0  0  0
 19 20  1  0  0  0  0
 19 21  1  0  0  0  0
 21 22  1  0  0  0  0
 21 23  1  0  0  0  0
 21 24  1  0  0  0  0
M  CHG  1  15  -1
M  END
$$$$

  -OEChem-01062216073D

 24 23  0     1  0  0  0  0  0999 V2000
   -2.9782   -3.3041    1.0822 H   0  0  0  0  0  0  0  0  0  0  0  0
   -2.8672   -2.2975    0.6698 C   0  0  0  0  0  0  0  0  0  0  0  0
   -3.5336   -1.6196    1.2093 H   0  0  0  0  0  0  0  0  0  0  0  0
   -3.1533   -2.3153   -0.3846 H   0  0  0  0  0  0  0  0  0  0  0  0
   -1.4300   -1.8271    0.8082 C   0  0  0  0  0  0  0  0  0  0  0  0
   -0.6273   -2.5429    1.3876 O   0  0  0  0  0  0  0  0  0  0  0  0
   -1.1006   -0.5702    0.3429 N   0  0  0  0  0  0  0  0  0  0  0  0
   -1.8714    0.0065    0.0147 H   0  0  0  0  0  0  0  0  0  0  0  0
    0.2151    0.0888    0.3583 C   0  0  1  0  0  0  0  0  0  0  0  0
    0.2904    0.7375   -0.5206 H   0  0  0  0  0  0  0  0  0  0  0  0
    0.2445    0.9599    1.6332 C   0  0  0  0  0  0  0  0  0  0  0  0
    0.0009    0.3515    2.5092 H   0  0  0  0  0  0  0  0  0  0  0  0
    1.2487    1.3693    1.7702 H   0  0  0  0  0  0  0  0  0  0  0  0
   -0.7148    2.1452    1.5542 C   0  0  0  0  0  0  0  0  0  0  0  0
   -0.9811    2.6376    0.4290 O   0  5  0  0  0  0  0  0  0  0  0  0
   -1.2043    2.5435    2.6375 O   0  0  0  0  0  0  0  0  0  0  0  0
    1.4395   -0.8598    0.2611 C   0  0  0  0  0  0  0  0  0  0  0  0
    1.7810   -1.3048   -0.8321 O   0  0  0  0  0  0  0  0  0  0  0  0
    2.2197   -1.1389    1.3702 N   0  0  0  0  0  0  0  0  0  0  0  0
    1.7806   -0.9177    2.2593 H   0  0  0  0  0  0  0  0  0  0  0  0
    3.2839   -2.1301    1.3547 C   0  0  0  0  0  0  0  0  0  0  0  0
    4.0397   -1.8698    0.6068 H   0  0  0  0  0  0  0  0  0  0  0  0
    3.7696   -2.1733    2.3339 H   0  0  0  0  0  0  0  0  0  0  0  0
    2.8788   -3.1201    1.1212 H   0  0  0  0  0  0  0  0  0  0  0  0
  1  2  1  0  0  0  0
  2  3  1  0  0  0  0
  2  4  1  0  0  0  0
  2  5  1  0  0  0  0
  5  6  2  0  0  0  0
  5  7  1  0  0  0  0
  7  8  1  0  0  0  0
  7  9  1  0  0  0  0
  9 10  1  0  0  0  0
  9 11  1  0  0  0  0
  9 17  1  0  0  0  0
 11 12  1  0  0  0  0
 11 13  1  0  0  0  0
 11 14  1  0  0  0  0
 14 15  1  0  0  0  0
 14 16  2  0  0  0  0
 17 18  2  0  0  0  0
 17 19  1  0  0  0  0
 19 20  1  0  0  0  0
 19 21  1  0  0  0  0
 21 22  1  0  0  0  0
 21 23  1  0  0  0  0
 21 24  1  0  0  0  0
M  CHG  1  15  -1
M  END
$$$$

  -OEChem-01062216073D

 24 23  0     1  0  0  0  0  0999 V2000
   -3.0328   -3.2695    1.0822 H   0  0  0  0  0  0  0  0  0  0  0  0
   -2.9007   -2.2652    0.6703 C   0  0  0  0  0  0  0  0  0  0  0  0
   -3.5508   -1.5733    1.2120 H   0  0  0  0  0  0  0  0  0  0  0  0
   -3.1893   -2.2756   -0.3837 H   0  0  0  0  0  0  0  0  0  0  0  0
   -1.4537   -1.8261    0.8058 C   0  0  0  0  0  0  0  0  0  0  0  0
   -0.6652   -2.5581    1.3837 O   0  0  0  0  0  0  0  0  0  0  0  0
   -1.0996   -0.5787    0.3349 N   0  0  0  0  0  0  0  0  0  0  0  0
   -1.8643    0.0122    0.0167 H   0  0  0  0  0  0  0  0  0  0  0  0
    0.2199    0.0738    0.3545 C   0  0  1  0  0  0  0  0  0  0  0  0
    0.2996    0.7224   -0.5244 H   0  0  0  0  0  0  0  0  0  0  0  0
    0.2439    0.9407    1.6311 C   0  0  0  0  0  0  0  0  0  0  0  0
   -0.0056    0.3321    2.5052 H   0  0  0  0  0  0  0  0  0  0  0  0
    1.2501    1.3428    1.7740 H   0  0  0  0  0  0  0  0  0  0  0  0
   -0.7122    2.1284    1.5487 C   0  0  0  0  0  0  0  0  0  0  0  0
   -0.9701    2.6238    0.4229 O   0  5  0  0  0  0  0  0  0  0  0  0
   -1.2224    2.5140    2.6272 O   0  0  0  0  0  0  0  0  0  0  0  0
    1.4526   -0.8656    0.2784 C   0  0  0  0  0  0  0  0  0  0  0  0
    1.9607   -1.1187   -0.8110 O   0  0  0  0  0  0  0  0  0  0  0  0
    2.0386   -1.3718    1.4255 N   0  0  0  0  0  0  0  0  0  0  0  0
    1.4177   -1.3678    2.2315 H   0  0  0  0  0  0  0  0  0  0  0  0
    3.0909   -2.3753    1.3876 C   0  0  0  0  0  0  0  0  0  0  0  0
    3.9449   -2.0162    0.8043 H   0  0  0  0  0  0  0  0  0  0  0  0
    3.4356   -2.5938    2.4024 H   0  0  0  0  0  0  0  0  0  0  0  0
    2.7175   -3.3009    0.9379 H   0  0  0  0  0  0  0  0  0  0  0  0
  1  2  1  0  0  0  0
  2  3  1  0  0  0  0
  2  4  1  0  0  0  0
  2  5  1  0  0  0  0
  5  6  2  0  0  0  0
  5  7  1  0  0  0  0
  7  8  1  0  0  0  0
  7  9  1  0  0  0  0
  9 10  1  0  0  0  0
  9 11  1  0  0  0  0
  9 17  1  0  0  0  0
 11 12  1  0  0  0  0
 11 13  1  0  0  0  0
 11 14  1  0  0  0  0
 14 15  1  0  0  0  0
 14 16  2  0  0  0  0
 17 18  2  0  0  0  0
 17 19  1  0  0  0  0
 19 20  1  0  0  0  0
 19 21  1  0  0  0  0
 21 22  1  0  0  0  0
 21 23  1  0  0  0  0
 21 24  1  0  0  0  0
M  CHG  1  15  -1
M  END
$$$$

  -OEChem-01062216073D

 24 23  0     1  0  0  0  0  0999 V2000
   -3.1619   -3.1946    1.1052 H   0  0  0  0  0  0  0  0  0  0  0  0
   -2.9860   -2.2014    0.6829 C   0  0  0  0  0  0  0  0  0  0  0  0
   -3.5971   -1.4747    1.2247 H   0  0  0  0  0  0  0  0  0  0  0  0
   -3.2859   -2.2065   -0.3677 H   0  0  0  0  0  0  0  0  0  0  0  0
   -1.5183   -1.8303    0.8006 C   0  0  0  0  0  0  0  0  0  0  0  0
   -0.7597   -2.6012    1.3669 O   0  0  0  0  0  0  0  0  0  0  0  0
   -1.1154   -0.5994    0.3254 N   0  0  0  0  0  0  0  0  0  0  0  0
   -1.8653    0.0193    0.0235 H   0  0  0  0  0  0  0  0  0  0  0  0
    0.2170    0.0316    0.3468 C   0  0  1  0  0  0  0  0  0  0  0  0
    0.3037    0.6789   -0.5327 H   0  0  0  0  0  0  0  0  0  0  0  0
    0.2404    0.8960    1.6240 C   0  0  0  0  0  0  0  0  0  0  0  0
   -0.0223    0.2888    2.4953 H   0  0  0  0  0  0  0  0  0  0  0  0
    1.2507    1.2844    1.7766 H   0  0  0  0  0  0  0  0  0  0  0  0
   -0.7008    2.0955    1.5342 C   0  0  0  0  0  0  0  0  0  0  0  0
   -0.9427    2.5951    0.4066 O   0  5  0  0  0  0  0  0  0  0  0  0
   -1.2306    2.4745    2.6057 O   0  0  0  0  0  0  0  0  0  0  0  0
    1.4606   -0.8963    0.2919 C   0  0  0  0  0  0  0  0  0  0  0  0
    2.1480   -0.9336   -0.7254 O   0  0  0  0  0  0  0  0  0  0  0  0
    1.8638   -1.6287    1.3935 N   0  0  0  0  0  0  0  0  0  0  0  0
    1.0942   -1.8302    2.0330 H   0  0  0  0  0  0  0  0  0  0  0  0
    2.9564   -2.5873    1.3385 C   0  0  0  0  0  0  0  0  0  0  0  0
    3.8831   -2.0961    1.0249 H   0  0  0  0  0  0  0  0  0  0  0  0
    3.1180   -3.0264    2.3274 H   0  0  0  0  0  0  0  0  0  0  0  0
    2.7233   -3.3909    0.6328 H   0  0  0  0  0  0  0  0  0  0  0  0
  1  2  1  0  0  0  0
  2  3  1  0  0  0  0
  2  4  1  0  0  0  0
  2  5  1  0  0  0  0
  5  6  2  0  0  0  0
  5  7  1  0  0  0  0
  7  8  1  0  0  0  0
  7  9  1  0  0  0  0
  9 10  1  0  0  0  0
  9 11  1  0  0  0  0
  9 17  1  0  0  0  0
 11 12  1  0  0  0  0
 11 13  1  0  0  0  0
 11 14  1  0  0  0  0
 14 15  1  0  0  0  0
 14 16  2  0  0  0  0
 17 18  2  0  0  0  0
 17 19  1  0  0  0  0
 19 20  1  0  0  0  0
 19 21  1  0  0  0  0
 21 22  1  0  0  0  0
 21 23  1  0  0  0  0
 21 24  1  0  0  0  0
M  CHG  1  15  -1
M  END
$$$$

  -OEChem-01062216073D

 24 23  0     1  0  0  0  0  0999 V2000
   -3.3097   -3.1056    1.1223 H   0  0  0  0  0  0  0  0  0  0  0  0
   -3.0825   -2.1252    0.6942 C   0  0  0  0  0  0  0  0  0  0  0  0
   -3.6417   -1.3632    1.2438 H   0  0  0  0  0  0  0  0  0  0  0  0
   -3.3991   -2.1151   -0.3517 H   0  0  0  0  0  0  0  0  0  0  0  0
   -1.5939   -1.8401    0.7875 C   0  0  0  0  0  0  0  0  0  0  0  0
   -0.8735   -2.6712    1.3158 O   0  0  0  0  0  0  0  0  0  0  0  0
   -1.1359   -0.6272    0.3151 N   0  0  0  0  0  0  0  0  0  0  0  0
   -1.8692    0.0219    0.0354 H   0  0  0  0  0  0  0  0  0  0  0  0
    0.2080   -0.0145    0.3387 C   0  0  1  0  0  0  0  0  0  0  0  0
    0.2974    0.6312   -0.5417 H   0  0  0  0  0  0  0  0  0  0  0  0
    0.2275    0.8482    1.6164 C   0  0  0  0  0  0  0  0  0  0  0  0
   -0.0461    0.2418    2.4849 H   0  0  0  0  0  0  0  0  0  0  0  0
    1.2398    1.2281    1.7781 H   0  0  0  0  0  0  0  0  0  0  0  0
   -0.7015    2.0570    1.5195 C   0  0  0  0  0  0  0  0  0  0  0  0
   -0.9285    2.5602    0.3905 O   0  5  0  0  0  0  0  0  0  0  0  0
   -1.2449    2.4337    2.5850 O   0  0  0  0  0  0  0  0  0  0  0  0
    1.4714   -0.9188    0.3018 C   0  0  0  0  0  0  0  0  0  0  0  0
    2.3004   -0.7617   -0.5905 O   0  0  0  0  0  0  0  0  0  0  0  0
    1.7349   -1.8633    1.2754 N   0  0  0  0  0  0  0  0  0  0  0  0
    0.8996   -2.1628    1.7840 H   0  0  0  0  0  0  0  0  0  0  0  0
    2.8505   -2.7934    1.1989 C   0  0  0  0  0  0  0  0  0  0  0  0
    3.7984   -2.2509    1.1258 H   0  0  0  0  0  0  0  0  0  0  0  0
    2.8788   -3.4160    2.0979 H   0  0  0  0  0  0  0  0  0  0  0  0
    2.7452   -3.4452    0.3261 H   0  0  0  0  0  0  0  0  0  0  0  0
  1  2  1  0  0  0  0
  2  3  1  0  0  0  0
  2  4  1  0  0  0  0
  2  5  1  0  0  0  0
  5  6  2  0  0  0  0
  5  7  1  0  0  0  0
  7  8  1  0  0  0  0
  7  9  1  0  0  0  0
  9 10  1  0  0  0  0
  9 11  1  0  0  0  0
  9 17  1  0  0  0  0
 11 12  1  0  0  0  0
 11 13  1  0  0  0  0
 11 14  1  0  0  0  0
 14 15  1  0  0  0  0
 14 16  2  0  0  0  0
 17 18  2  0  0  0  0
 17 19  1  0  0  0  0
 19 20  1  0  0  0  0
 19 21  1  0  0  0  0
 21 22  1  0  0  0  0
 21 23  1  0  0  0  0
 21 24  1  0  0  0  0
M  CHG  1  15  -1
M  END
$$$$

  -OEChem-01062216073D

 24 23  0     1  0  0  0  0  0999 V2000
   -3.4481   -3.0117    1.1515 H   0  0  0  0  0  0  0  0  0  0  0  0
   -3.1750   -2.0462    0.7165 C   0  0  0  0  0  0  0  0  0  0  0  0
   -3.6846   -1.2543    1.2716 H   0  0  0  0  0  0  0  0  0  0  0  0
   -3.5065   -2.0219   -0.3243 H   0  0  0  0  0  0  0  0  0  0  0  0
   -1.6721   -1.8399    0.7874 C   0  0  0  0  0  0  0  0  0  0  0  0
   -0.9905   -2.7210    1.2840 O   0  0  0  0  0  0  0  0  0  0  0  0
   -1.1650   -0.6463    0.3152 N   0  0  0  0  0  0  0  0  0  0  0  0
   -1.8811    0.0303    0.0551 H   0  0  0  0  0  0  0  0  0  0  0  0
    0.1923   -0.0581    0.3312 C   0  0  1  0  0  0  0  0  0  0  0  0
    0.2824    0.5837   -0.5521 H   0  0  0  0  0  0  0  0  0  0  0  0
    0.2165    0.8080    1.6066 C   0  0  0  0  0  0  0  0  0  0  0  0
   -0.0668    0.2071    2.4759 H   0  0  0  0  0  0  0  0  0  0  0  0
    1.2322    1.1773    1.7720 H   0  0  0  0  0  0  0  0  0  0  0  0
   -0.6963    2.0288    1.5014 C   0  0  0  0  0  0  0  0  0  0  0  0
   -0.9112    2.5322    0.3701 O   0  5  0  0  0  0  0  0  0  0  0  0
   -1.2499    2.4073    2.5610 O   0  0  0  0  0  0  0  0  0  0  0  0
    1.4689   -0.9480    0.2988 C   0  0  0  0  0  0  0  0  0  0  0  0
    2.3962   -0.6299   -0.4405 O   0  0  0  0  0  0  0  0  0  0  0  0
    1.6377   -2.0782    1.0743 N   0  0  0  0  0  0  0  0  0  0  0  0
    0.7820   -2.4281    1.5116 H   0  0  0  0  0  0  0  0  0  0  0  0
    2.7750   -2.9783    0.9609 C   0  0  0  0  0  0  0  0  0  0  0  0
    3.7117   -2.4363    1.1257 H   0  0  0  0  0  0  0  0  0  0  0  0
    2.6994   -3.7711    1.7111 H   0  0  0  0  0  0  0  0  0  0  0  0
    2.8000   -3.4384   -0.0319 H   0  0  0  0  0  0  0  0  0  0  0  0
  1  2  1  0  0  0  0
  2  3  1  0  0  0  0
  2  4  1  0  0  0  0
  2  5  1  0  0  0  0
  5  6  2  0  0  0  0
  5  7  1  0  0  0  0
  7  8  1  0  0  0  0
  7  9  1  0  0  0  0
  9 10  1  0  0  0  0
  9 11  1  0  0  0  0
  9 17  1  0  0  0  0
 11 12  1  0  0  0  0
 11 13  1  0  0  0  0
 11 14  1  0  0  0  0
 14 15  1  0  0  0  0
 14 16  2  0  0  0  0
 17 18  2  0  0  0  0
 17 19  1  0  0  0  0
 19 20  1  0  0  0  0
 19 21  1  0  0  0  0
 21 22  1  0  0  0  0
 21 23  1  0  0  0  0
 21 24  1  0  0  0  0
M  CHG  1  15  -1
M  END
$$$$

  -OEChem-01062216073D

 24 23  0     1  0  0  0  0  0999 V2000
   -3.1136   -3.3726    0.6698 H   0  0  0  0  0  0  0  0  0  0  0  0
   -2.9458   -2.3050    0.5026 C   0  0  0  0  0  0  0  0  0  0  0  0
   -3.3028   -1.7525    1.3759 H   0  0  0  0  0  0  0  0  0  0  0  0
   -3.5155   -1.9907   -0.3754 H   0  0  0  0  0  0  0  0  0  0  0  0
   -1.4679   -2.0292    0.2877 C   0  0  0  0  0  0  0  0  0  0  0  0
   -0.7188   -2.9833    0.1957 O   0  0  0  0  0  0  0  0  0  0  0  0
   -1.0893   -0.7132    0.1219 N   0  0  0  0  0  0  0  0  0  0  0  0
   -1.8747   -0.0694    0.2011 H   0  0  0  0  0  0  0  0  0  0  0  0
    0.2037   -0.0010    0.2280 C   0  0  1  0  0  0  0  0  0  0  0  0
    0.1532    0.8419   -0.4699 H   0  0  0  0  0  0  0  0  0  0  0  0
    0.2136    0.5304    1.6779 C   0  0  0  0  0  0  0  0  0  0  0  0
    0.0383   -0.2866    2.3827 H   0  0  0  0  0  0  0  0  0  0  0  0
    1.1952    0.9579    1.8990 H   0  0  0  0  0  0  0  0  0  0  0  0
   -0.8183    1.6310    1.9140 C   0  0  0  0  0  0  0  0  0  0  0  0
   -1.1519    2.3707    0.9558 O   0  5  0  0  0  0  0  0  0  0  0  0
   -1.3448    1.6647    3.0514 O   0  0  0  0  0  0  0  0  0  0  0  0
    1.5920   -0.6500   -0.0707 C   0  0  0  0  0  0  0  0  0  0  0  0
    2.3943   -0.0360   -0.7632 O   0  0  0  0  0  0  0  0  0  0  0  0
    2.0106   -1.9514    0.0718 N   0  0  0  0  0  0  0  0  0  0  0  0
    2.8723   -2.1061   -0.4391 H   0  0  0  0  0  0  0  0  0  0  0  0
    1.9113   -2.6268    1.3585 C   0  0  0  0  0  0  0  0  0  0  0  0
    2.8147   -2.4433    1.9476 H   0  0  0  0  0  0  0  0  0  0  0  0
    1.0517   -2.2765    1.9356 H   0  0  0  0  0  0  0  0  0  0  0  0
    1.8038   -3.7050    1.2057 H   0  0  0  0  0  0  0  0  0  0  0  0
  1  2  1  0  0  0  0
  2  3  1  0  0  0  0
  2  4  1  0  0  0  0
  2  5  1  0  0  0  0
  5  6  2  0  0  0  0
  5  7  1  0  0  0  0
  7  8  1  0  0  0  0
  7  9  1  0  0  0  0
  9 10  1  0  0  0  0
  9 11  1  0  0  0  0
  9 17  1  0  0  0  0
 11 12  1  0  0  0  0
 11 13  1  0  0  0  0
 11 14  1  0  0  0  0
 14 15  1  0  0  0  0
 14 16  2  0  0  0  0
 17 18  2  0  0  0  0
 17 19  1  0  0  0  0
 19 20  1  0  0  0  0
 19 21  1  0  0  0  0
 21 22  1  0  0  0  0
 21 23  1  0  0  0  0
 21 24  1  0  0  0  0
M  CHG  1  15  -1
M  END
$$$$

  -OEChem-01062216073D

 24 23  0     1  0  0  0  0  0999 V2000
   -3.3126   -3.1529    1.3160 H   0  0  0  0  0  0  0  0  0  0  0  0
   -3.1029   -2.1235    1.0124 C   0  0  0  0  0  0  0  0  0  0  0  0
   -3.3618   -1.4550    1.8379 H   0  0  0  0  0  0  0  0  0  0  0  0
   -3.7229   -1.8776    0.1468 H   0  0  0  0  0  0  0  0  0  0  0  0
   -1.6337   -1.9626    0.6606 C   0  0  0  0  0  0  0  0  0  0  0  0
   -0.9321   -2.9545    0.6954 O   0  0  0  0  0  0  0  0  0  0  0  0
   -1.2093   -0.6996    0.3026 N   0  0  0  0  0  0  0  0  0  0  0  0
   -1.9455   -0.0010    0.3898 H   0  0  0  0  0  0  0  0  0  0  0  0
    0.1159   -0.0698    0.1058 C   0  0  1  0  0  0  0  0  0  0  0  0
   -0.0209    0.7181   -0.6426 H   0  0  0  0  0  0  0  0  0  0  0  0
    0.4179    0.5629    1.4812 C   0  0  0  0  0  0  0  0  0  0  0  0
    0.3380   -0.1925    2.2684 H   0  0  0  0  0  0  0  0  0  0  0  0
    1.4424    0.9447    1.4875 H   0  0  0  0  0  0  0  0  0  0  0  0
   -0.4988    1.7417    1.8033 C   0  0  0  0  0  0  0  0  0  0  0  0
   -0.9640    2.4279    0.8593 O   0  5  0  0  0  0  0  0  0  0  0  0
   -0.8007    1.9010    3.0098 O   0  0  0  0  0  0  0  0  0  0  0  0
    1.4000   -0.8182   -0.3721 C   0  0  0  0  0  0  0  0  0  0  0  0
    2.1874   -0.2230   -1.0976 O   0  0  0  0  0  0  0  0  0  0  0  0
    1.6686   -2.1626   -0.4313 N   0  0  0  0  0  0  0  0  0  0  0  0
    2.3669   -2.3319   -1.1467 H   0  0  0  0  0  0  0  0  0  0  0  0
    1.9308   -2.8560    0.8226 C   0  0  0  0  0  0  0  0  0  0  0  0
    1.4047   -2.3860    1.6599 H   0  0  0  0  0  0  0  0  0  0  0  0
    1.6054   -3.8982    0.7499 H   0  0  0  0  0  0  0  0  0  0  0  0
    3.0025   -2.8381    1.0421 H   0  0  0  0  0  0  0  0  0  0  0  0
  1  2  1  0  0  0  0
  2  3  1  0  0  0  0
  2  4  1  0  0  0  0
  2  5  1  0  0  0  0
  5  6  2  0  0  0  0
  5  7  1  0  0  0  0
  7  8  1  0  0  0  0
  7  9  1  0  0  0  0
  9 10  1  0  0  0  0
  9 11  1  0  0  0  0
  9 17  1  0  0  0  0
 11 12  1  0  0  0  0
 11 13  1  0  0  0  0
 11 14  1  0  0  0  0
 14 15  1  0  0  0  0
 14 16  2  0  0  0  0
 17 18  2  0  0  0  0
 17 19  1  0  0  0  0
 19 20  1  0  0  0  0
 19 21  1  0  0  0  0
 21 22  1  0  0  0  0
 21 23  1  0  0  0  0
 21 24  1  0  0  0  0
M  CHG  1  15  -1
M  END
$$$$

  -OEChem-01062216073D

 24 23  0     1  0  0  0  0  0999 V2000
   -3.5177   -2.9551    1.2099 H   0  0  0  0  0  0  0  0  0  0  0  0
   -3.2424   -1.9799    0.7984 C   0  0  0  0  0  0  0  0  0  0  0  0
   -3.6858   -1.1984    1.4212 H   0  0  0  0  0  0  0  0  0  0  0  0
   -3.6435   -1.8983   -0.2148 H   0  0  0  0  0  0  0  0  0  0  0  0
   -1.7320   -1.8233    0.7730 C   0  0  0  0  0  0  0  0  0  0  0  0
   -1.0478   -2.7492    1.1757 O   0  0  0  0  0  0  0  0  0  0  0  0
   -1.2175   -0.6249    0.3211 N   0  0  0  0  0  0  0  0  0  0  0  0
   -1.9275    0.0862    0.1502 H   0  0  0  0  0  0  0  0  0  0  0  0
    0.1557   -0.0726    0.2774 C   0  0  1  0  0  0  0  0  0  0  0  0
    0.2124    0.5925   -0.5905 H   0  0  0  0  0  0  0  0  0  0  0  0
    0.2426    0.7573    1.5772 C   0  0  0  0  0  0  0  0  0  0  0  0
   -0.0170    0.1358    2.4395 H   0  0  0  0  0  0  0  0  0  0  0  0
    1.2669    1.1107    1.7193 H   0  0  0  0  0  0  0  0  0  0  0  0
   -0.6541    1.9944    1.5361 C   0  0  0  0  0  0  0  0  0  0  0  0
   -0.9007    2.5300    0.4256 O   0  5  0  0  0  0  0  0  0  0  0  0
   -1.1817    2.3409    2.6197 O   0  0  0  0  0  0  0  0  0  0  0  0
    1.4194   -0.9750    0.1280 C   0  0  0  0  0  0  0  0  0  0  0  0
    2.5180   -0.4431   -0.0076 O   0  0  0  0  0  0  0  0  0  0  0  0
    1.3861   -2.3521    0.0234 N   0  0  0  0  0  0  0  0  0  0  0  0
    0.5119   -2.7807    0.3316 H   0  0  0  0  0  0  0  0  0  0  0  0
    2.5766   -3.1876   -0.0296 C   0  0  0  0  0  0  0  0  0  0  0  0
    3.1851   -3.0438    0.8689 H   0  0  0  0  0  0  0  0  0  0  0  0
    2.2899   -4.2414   -0.0908 H   0  0  0  0  0  0  0  0  0  0  0  0
    3.1789   -2.9421   -0.9100 H   0  0  0  0  0  0  0  0  0  0  0  0
  1  2  1  0  0  0  0
  2  3  1  0  0  0  0
  2  4  1  0  0  0  0
  2  5  1  0  0  0  0
  5  6  2  0  0  0  0
  5  7  1  0  0  0  0
  7  8  1  0  0  0  0
  7  9  1  0  0  0  0
  9 10  1  0  0  0  0
  9 11  1  0  0  0  0
  9 17  1  0  0  0  0
 11 12  1  0  0  0  0
 11 13  1  0  0  0  0
 11 14  1  0  0  0  0
 14 15  1  0  0  0  0
 14 16  2  0  0  0  0
 17 18  2  0  0  0  0
 17 19  1  0  0  0  0
 19 20  1  0  0  0  0
 19 21  1  0  0  0  0
 21 22  1  0  0  0  0
 21 23  1  0  0  0  0
 21 24  1  0  0  0  0
M  CHG  1  15  -1
M  END
$$$$

  -OEChem-01062216073D

 24 23  0     1  0  0  0  0  0999 V2000
   -3.4206   -2.9887    1.2433 H   0  0  0  0  0  0  0  0  0  0  0  0
   -3.1763   -2.0046    0.8339 C   0  0  0  0  0  0  0  0  0  0  0  0
   -3.5969   -1.2375    1.4898 H   0  0  0  0  0  0  0  0  0  0  0  0
   -3.6269   -1.9121   -0.1572 H   0  0  0  0  0  0  0  0  0  0  0  0
   -1.6712   -1.8301    0.7372 C   0  0  0  0  0  0  0  0  0  0  0  0
   -0.9550   -2.7677    1.0472 O   0  0  0  0  0  0  0  0  0  0  0  0
   -1.1898   -0.6131    0.3002 N   0  0  0  0  0  0  0  0  0  0  0  0
   -1.9122    0.0965    0.1828 H   0  0  0  0  0  0  0  0  0  0  0  0
    0.1751   -0.0418    0.2727 C   0  0  1  0  0  0  0  0  0  0  0  0
    0.2351    0.6319   -0.5883 H   0  0  0  0  0  0  0  0  0  0  0  0
    0.2351    0.7775    1.5822 C   0  0  0  0  0  0  0  0  0  0  0  0
   -0.0229    0.1442    2.4360 H   0  0  0  0  0  0  0  0  0  0  0  0
    1.2508    1.1484    1.7398 H   0  0  0  0  0  0  0  0  0  0  0  0
   -0.6807    2.0003    1.5423 C   0  0  0  0  0  0  0  0  0  0  0  0
   -0.9230    2.5416    0.4338 O   0  5  0  0  0  0  0  0  0  0  0  0
   -1.2374    2.3186    2.6200 O   0  0  0  0  0  0  0  0  0  0  0  0
    1.4341   -0.9501    0.1175 C   0  0  0  0  0  0  0  0  0  0  0  0
    2.5563   -0.4594    0.2088 O   0  0  0  0  0  0  0  0  0  0  0  0
    1.3639   -2.2665   -0.2994 N   0  0  0  0  0  0  0  0  0  0  0  0
    0.4642   -2.7076   -0.1006 H   0  0  0  0  0  0  0  0  0  0  0  0
    2.5298   -3.1330   -0.3961 C   0  0  0  0  0  0  0  0  0  0  0  0
    3.0198   -3.2252    0.5784 H   0  0  0  0  0  0  0  0  0  0  0  0
    2.2274   -4.1301   -0.7290 H   0  0  0  0  0  0  0  0  0  0  0  0
    3.2475   -2.7317   -1.1188 H   0  0  0  0  0  0  0  0  0  0  0  0
  1  2  1  0  0  0  0
  2  3  1  0  0  0  0
  2  4  1  0  0  0  0
  2  5  1  0  0  0  0
  5  6  2  0  0  0  0
  5  7  1  0  0  0  0
  7  8  1  0  0  0  0
  7  9  1  0  0  0  0
  9 10  1  0  0  0  0
  9 11  1  0  0  0  0
  9 17  1  0  0  0  0
 11 12  1  0  0  0  0
 11 13  1  0  0  0  0
 11 14  1  0  0  0  0
 14 15  1  0  0  0  0
 14 16  2  0  0  0  0
 17 18  2  0  0  0  0
 17 19  1  0  0  0  0
 19 20  1  0  0  0  0
 19 21  1  0  0  0  0
 21 22  1  0  0  0  0
 21 23  1  0  0  0  0
 21 24  1  0  0  0  0
M  CHG  1  15  -1
M  END
$$$$

  -OEChem-01062216073D

 24 23  0     1  0  0  0  0  0999 V2000
   -3.2981   -3.0292    1.2766 H   0  0  0  0  0  0  0  0  0  0  0  0
   -3.0941   -2.0373    0.8641 C   0  0  0  0  0  0  0  0  0  0  0  0
   -3.4894   -1.2841    1.5512 H   0  0  0  0  0  0  0  0  0  0  0  0
   -3.6016   -1.9423   -0.0989 H   0  0  0  0  0  0  0  0  0  0  0  0
   -1.6000   -1.8366    0.6849 C   0  0  0  0  0  0  0  0  0  0  0  0
   -0.8532   -2.7813    0.8792 O   0  0  0  0  0  0  0  0  0  0  0  0
   -1.1553   -0.5995    0.2673 N   0  0  0  0  0  0  0  0  0  0  0  0
   -1.8890    0.1060    0.2077 H   0  0  0  0  0  0  0  0  0  0  0  0
    0.2011   -0.0104    0.2758 C   0  0  1  0  0  0  0  0  0  0  0  0
    0.2784    0.6705   -0.5778 H   0  0  0  0  0  0  0  0  0  0  0  0
    0.2225    0.8002    1.5927 C   0  0  0  0  0  0  0  0  0  0  0  0
   -0.0453    0.1573    2.4363 H   0  0  0  0  0  0  0  0  0  0  0  0
    1.2287    1.1846    1.7757 H   0  0  0  0  0  0  0  0  0  0  0  0
   -0.7078    2.0111    1.5391 C   0  0  0  0  0  0  0  0  0  0  0  0
   -0.9309    2.5552    0.4280 O   0  5  0  0  0  0  0  0  0  0  0  0
   -1.3033    2.3076    2.6020 O   0  0  0  0  0  0  0  0  0  0  0  0
    1.4504   -0.9319    0.1322 C   0  0  0  0  0  0  0  0  0  0  0  0
    2.5651   -0.5398    0.4683 O   0  0  0  0  0  0  0  0  0  0  0  0
    1.3851   -2.1140   -0.5832 N   0  0  0  0  0  0  0  0  0  0  0  0
    0.4618   -2.5464   -0.5326 H   0  0  0  0  0  0  0  0  0  0  0  0
    2.5261   -3.0067   -0.7257 C   0  0  0  0  0  0  0  0  0  0  0  0
    2.8776   -3.3377    0.2568 H   0  0  0  0  0  0  0  0  0  0  0  0
    2.2403   -3.8873   -1.3080 H   0  0  0  0  0  0  0  0  0  0  0  0
    3.3468   -2.5017   -1.2453 H   0  0  0  0  0  0  0  0  0  0  0  0
  1  2  1  0  0  0  0
  2  3  1  0  0  0  0
  2  4  1  0  0  0  0
  2  5  1  0  0  0  0
  5  6  2  0  0  0  0
  5  7  1  0  0  0  0
  7  8  1  0  0  0  0
  7  9  1  0  0  0  0
  9 10  1  0  0  0  0
  9 11  1  0  0  0  0
  9 17  1  0  0  0  0
 11 12  1  0  0  0  0
 11 13  1  0  0  0  0
 11 14  1  0  0  0  0
 14 15  1  0  0  0  0
 14 16  2  0  0  0  0
 17 18  2  0  0  0  0
 17 19  1  0  0  0  0
 19 20  1  0  0  0  0
 19 21  1  0  0  0  0
 21 22  1  0  0  0  0
 21 23  1  0  0  0  0
 21 24  1  0  0  0  0
M  CHG  1  15  -1
M  END
$$$$

  -OEChem-01062216073D

 24 23  0     1  0  0  0  0  0999 V2000
   -3.1716   -3.1032    1.2435 H   0  0  0  0  0  0  0  0  0  0  0  0
   -3.0047   -2.0838    0.8846 C   0  0  0  0  0  0  0  0  0  0  0  0
   -3.3747   -1.3820    1.6370 H   0  0  0  0  0  0  0  0  0  0  0  0
   -3.5634   -1.9388   -0.0433 H   0  0  0  0  0  0  0  0  0  0  0  0
   -1.5254   -1.8444    0.6422 C   0  0  0  0  0  0  0  0  0  0  0  0
   -0.7515   -2.7816    0.7437 O   0  0  0  0  0  0  0  0  0  0  0  0
   -1.1229   -0.5883    0.2384 N   0  0  0  0  0  0  0  0  0  0  0  0
   -1.8705    0.1048    0.2262 H   0  0  0  0  0  0  0  0  0  0  0  0
    0.2218    0.0218    0.2809 C   0  0  1  0  0  0  0  0  0  0  0  0
    0.3145    0.7063   -0.5681 H   0  0  0  0  0  0  0  0  0  0  0  0
    0.2135    0.8314    1.5987 C   0  0  0  0  0  0  0  0  0  0  0  0
   -0.0594    0.1850    2.4381 H   0  0  0  0  0  0  0  0  0  0  0  0
    1.2130    1.2270    1.7948 H   0  0  0  0  0  0  0  0  0  0  0  0
   -0.7292    2.0319    1.5320 C   0  0  0  0  0  0  0  0  0  0  0  0
   -0.9401    2.5741    0.4177 O   0  5  0  0  0  0  0  0  0  0  0  0
   -1.3475    2.3190    2.5843 O   0  0  0  0  0  0  0  0  0  0  0  0
    1.4587   -0.9154    0.1502 C   0  0  0  0  0  0  0  0  0  0  0  0
    2.5173   -0.6793    0.7274 O   0  0  0  0  0  0  0  0  0  0  0  0
    1.4601   -1.9028   -0.8193 N   0  0  0  0  0  0  0  0  0  0  0  0
    0.5264   -2.2645   -1.0020 H   0  0  0  0  0  0  0  0  0  0  0  0
    2.5708   -2.8296   -0.9812 C   0  0  0  0  0  0  0  0  0  0  0  0
    2.7238   -3.4051   -0.0627 H   0  0  0  0  0  0  0  0  0  0  0  0
    2.3609   -3.5255   -1.7985 H   0  0  0  0  0  0  0  0  0  0  0  0
    3.4922   -2.2884   -1.2186 H   0  0  0  0  0  0  0  0  0  0  0  0
  1  2  1  0  0  0  0
  2  3  1  0  0  0  0
  2  4  1  0  0  0  0
  2  5  1  0  0  0  0
  5  6  2  0  0  0  0
  5  7  1  0  0  0  0
  7  8  1  0  0  0  0
  7  9  1  0  0  0  0
  9 10  1  0  0  0  0
  9 11  1  0  0  0  0
  9 17  1  0  0  0  0
 11 12  1  0  0  0  0
 11 13  1  0  0  0  0
 11 14  1  0  0  0  0
 14 15  1  0  0  0  0
 14 16  2  0  0  0  0
 17 18  2  0  0  0  0
 17 19  1  0  0  0  0
 19 20  1  0  0  0  0
 19 21  1  0  0  0  0
 21 22  1  0  0  0  0
 21 23  1  0  0  0  0
 21 24  1  0  0  0  0
M  CHG  1  15  -1
M  END
$$$$

  -OEChem-01062216073D

 24 23  0     1  0  0  0  0  0999 V2000
   -3.0725   -3.1452    1.2619 H   0  0  0  0  0  0  0  0  0  0  0  0
   -2.9369   -2.1258    0.8901 C   0  0  0  0  0  0  0  0  0  0  0  0
   -3.3121   -1.4258    1.6415 H   0  0  0  0  0  0  0  0  0  0  0  0
   -3.5135   -2.0038   -0.0300 H   0  0  0  0  0  0  0  0  0  0  0  0
   -1.4676   -1.8534    0.6218 C   0  0  0  0  0  0  0  0  0  0  0  0
   -0.6730   -2.7762    0.6906 O   0  0  0  0  0  0  0  0  0  0  0  0
   -1.1000   -0.5846    0.2242 N   0  0  0  0  0  0  0  0  0  0  0  0
   -1.8612    0.0933    0.2369 H   0  0  0  0  0  0  0  0  0  0  0  0
    0.2330    0.0444    0.2888 C   0  0  1  0  0  0  0  0  0  0  0  0
    0.3329    0.7325   -0.5564 H   0  0  0  0  0  0  0  0  0  0  0  0
    0.2084    0.8541    1.6051 C   0  0  0  0  0  0  0  0  0  0  0  0
   -0.0646    0.2054    2.4427 H   0  0  0  0  0  0  0  0  0  0  0  0
    1.2047    1.2561    1.8053 H   0  0  0  0  0  0  0  0  0  0  0  0
   -0.7448    2.0455    1.5309 C   0  0  0  0  0  0  0  0  0  0  0  0
   -0.9516    2.5834    0.4135 O   0  5  0  0  0  0  0  0  0  0  0  0
   -1.3705    2.3329    2.5786 O   0  0  0  0  0  0  0  0  0  0  0  0
    1.4638   -0.8982    0.1681 C   0  0  0  0  0  0  0  0  0  0  0  0
    2.4115   -0.8552    0.9488 O   0  0  0  0  0  0  0  0  0  0  0  0
    1.6005   -1.6529   -0.9843 N   0  0  0  0  0  0  0  0  0  0  0  0
    0.7218   -1.8365   -1.4582 H   0  0  0  0  0  0  0  0  0  0  0  0
    2.6780   -2.6150   -1.1626 C   0  0  0  0  0  0  0  0  0  0  0  0
    2.6263   -3.3919   -0.3929 H   0  0  0  0  0  0  0  0  0  0  0  0
    2.5960   -3.0905   -2.1443 H   0  0  0  0  0  0  0  0  0  0  0  0
    3.6517   -2.1185   -1.1008 H   0  0  0  0  0  0  0  0  0  0  0  0
  1  2  1  0  0  0  0
  2  3  1  0  0  0  0
  2  4  1  0  0  0  0
  2  5  1  0  0  0  0
  5  6  2  0  0  0  0
  5  7  1  0  0  0  0
  7  8  1  0  0  0  0
  7  9  1  0  0  0  0
  9 10  1  0  0  0  0
  9 11  1  0  0  0  0
  9 17  1  0  0  0  0
 11 12  1  0  0  0  0
 11 13  1  0  0  0  0
 11 14  1  0  0  0  0
 14 15  1  0  0  0  0
 14 16  2  0  0  0  0
 17 18  2  0  0  0  0
 17 19  1  0  0  0  0
 19 20  1  0  0  0  0
 19 21  1  0  0  0  0
 21 22  1  0  0  0  0
 21 23  1  0  0  0  0
 21 24  1  0  0  0  0
M  CHG  1  15  -1
M  END
$$$$

  -OEChem-01062216073D

 24 23  0     1  0  0  0  0  0999 V2000
   -3.0443   -3.1740    1.2452 H   0  0  0  0  0  0  0  0  0  0  0  0
   -2.9169   -2.1424    0.9061 C   0  0  0  0  0  0  0  0  0  0  0  0
   -3.2704   -1.4691    1.6917 H   0  0  0  0  0  0  0  0  0  0  0  0
   -3.5184   -1.9881    0.0071 H   0  0  0  0  0  0  0  0  0  0  0  0
   -1.4546   -1.8629    0.6081 C   0  0  0  0  0  0  0  0  0  0  0  0
   -0.6581   -2.7861    0.6432 O   0  0  0  0  0  0  0  0  0  0  0  0
   -1.0984   -0.5905    0.2106 N   0  0  0  0  0  0  0  0  0  0  0  0
   -1.8620    0.0836    0.2413 H   0  0  0  0  0  0  0  0  0  0  0  0
    0.2313    0.0418    0.2901 C   0  0  1  0  0  0  0  0  0  0  0  0
    0.3387    0.7299   -0.5543 H   0  0  0  0  0  0  0  0  0  0  0  0
    0.2011    0.8566    1.6019 C   0  0  0  0  0  0  0  0  0  0  0  0
   -0.0791    0.2121    2.4404 H   0  0  0  0  0  0  0  0  0  0  0  0
    1.1991    1.2531    1.8052 H   0  0  0  0  0  0  0  0  0  0  0  0
   -0.7492    2.0495    1.5171 C   0  0  0  0  0  0  0  0  0  0  0  0
   -0.9477    2.5821    0.3955 O   0  5  0  0  0  0  0  0  0  0  0  0
   -1.3775    2.3470    2.5601 O   0  0  0  0  0  0  0  0  0  0  0  0
    1.4611   -0.9017    0.1839 C   0  0  0  0  0  0  0  0  0  0  0  0
    2.2685   -1.0490    1.0984 O   0  0  0  0  0  0  0  0  0  0  0  0
    1.7851   -1.4101   -1.0623 N   0  0  0  0  0  0  0  0  0  0  0  0
    1.0276   -1.3998   -1.7370 H   0  0  0  0  0  0  0  0  0  0  0  0
    2.8753   -2.3524   -1.2652 C   0  0  0  0  0  0  0  0  0  0  0  0
    2.6989   -3.2675   -0.6907 H   0  0  0  0  0  0  0  0  0  0  0  0
    2.9521   -2.6146   -2.3244 H   0  0  0  0  0  0  0  0  0  0  0  0
    3.8270   -1.9129   -0.9493 H   0  0  0  0  0  0  0  0  0  0  0  0
  1  2  1  0  0  0  0
  2  3  1  0  0  0  0
  2  4  1  0  0  0  0
  2  5  1  0  0  0  0
  5  6  2  0  0  0  0
  5  7  1  0  0  0  0
  7  8  1  0  0  0  0
  7  9  1  0  0  0  0
  9 10  1  0  0  0  0
  9 11  1  0  0  0  0
  9 17  1  0  0  0  0
 11 12  1  0  0  0  0
 11 13  1  0  0  0  0
 11 14  1  0  0  0  0
 14 15  1  0  0  0  0
 14 16  2  0  0  0  0
 17 18  2  0  0  0  0
 17 19  1  0  0  0  0
 19 20  1  0  0  0  0
 19 21  1  0  0  0  0
 21 22  1  0  0  0  0
 21 23  1  0  0  0  0
 21 24  1  0  0  0  0
M  CHG  1  15  -1
M  END
$$$$

  -OEChem-01062216073D

 24 23  0     1  0  0  0  0  0999 V2000
   -3.0584   -3.1669    1.2705 H   0  0  0  0  0  0  0  0  0  0  0  0
   -2.9273   -2.1340    0.9366 C   0  0  0  0  0  0  0  0  0  0  0  0
   -3.2412   -1.4628    1.7406 H   0  0  0  0  0  0  0  0  0  0  0  0
   -3.5580   -1.9613    0.0613 H   0  0  0  0  0  0  0  0  0  0  0  0
   -1.4724   -1.8742    0.5886 C   0  0  0  0  0  0  0  0  0  0  0  0
   -0.6929   -2.8121    0.5726 O   0  0  0  0  0  0  0  0  0  0  0  0
   -1.1115   -0.6039    0.1893 N   0  0  0  0  0  0  0  0  0  0  0  0
   -1.8698    0.0747    0.2387 H   0  0  0  0  0  0  0  0  0  0  0  0
    0.2210    0.0192    0.2785 C   0  0  1  0  0  0  0  0  0  0  0  0
    0.3341    0.7082   -0.5642 H   0  0  0  0  0  0  0  0  0  0  0  0
    0.1927    0.8351    1.5893 C   0  0  0  0  0  0  0  0  0  0  0  0
   -0.0985    0.1931    2.4259 H   0  0  0  0  0  0  0  0  0  0  0  0
    1.1948    1.2194    1.7970 H   0  0  0  0  0  0  0  0  0  0  0  0
   -0.7458    2.0369    1.5019 C   0  0  0  0  0  0  0  0  0  0  0  0
   -0.9347    2.5710    0.3795 O   0  5  0  0  0  0  0  0  0  0  0  0
   -1.3715    2.3440    2.5437 O   0  0  0  0  0  0  0  0  0  0  0  0
    1.4520   -0.9240    0.1864 C   0  0  0  0  0  0  0  0  0  0  0  0
    2.1113   -1.2508    1.1704 O   0  0  0  0  0  0  0  0  0  0  0  0
    1.9841   -1.1848   -1.0653 N   0  0  0  0  0  0  0  0  0  0  0  0
    1.3801   -0.9777   -1.8533 H   0  0  0  0  0  0  0  0  0  0  0  0
    3.1319   -2.0551   -1.2736 C   0  0  0  0  0  0  0  0  0  0  0  0
    2.9146   -3.0657   -0.9128 H   0  0  0  0  0  0  0  0  0  0  0  0
    3.3732   -2.1095   -2.3391 H   0  0  0  0  0  0  0  0  0  0  0  0
    4.0072   -1.6689   -0.7415 H   0  0  0  0  0  0  0  0  0  0  0  0
  1  2  1  0  0  0  0
  2  3  1  0  0  0  0
  2  4  1  0  0  0  0
  2  5  1  0  0  0  0
  5  6  2  0  0  0  0
  5  7  1  0  0  0  0
  7  8  1  0  0  0  0
  7  9  1  0  0  0  0
  9 10  1  0  0  0  0
  9 11  1  0  0  0  0
  9 17  1  0  0  0  0
 11 12  1  0  0  0  0
 11 13  1  0  0  0  0
 11 14  1  0  0  0  0
 14 15  1  0  0  0  0
 14 16  2  0  0  0  0
 17 18  2  0  0  0  0
 17 19  1  0  0  0  0
 19 20  1  0  0  0  0
 19 21  1  0  0  0  0
 21 22  1  0  0  0  0
 21 23  1  0  0  0  0
 21 24  1  0  0  0  0
M  CHG  1  15  -1
M  END
$$$$

  -OEChem-01062216073D

 24 23  0     1  0  0  0  0  0999 V2000
   -3.0938   -3.1527    1.3041 H   0  0  0  0  0  0  0  0  0  0  0  0
   -2.9553   -2.1232    0.9620 C   0  0  0  0  0  0  0  0  0  0  0  0
   -3.2316   -1.4441    1.7728 H   0  0  0  0  0  0  0  0  0  0  0  0
   -3.6099   -1.9420    0.1062 H   0  0  0  0  0  0  0  0  0  0  0  0
   -1.5076   -1.8905    0.5679 C   0  0  0  0  0  0  0  0  0  0  0  0
   -0.7562   -2.8479    0.4936 O   0  0  0  0  0  0  0  0  0  0  0  0
   -1.1326   -0.6245    0.1687 N   0  0  0  0  0  0  0  0  0  0  0  0
   -1.8803    0.0636    0.2390 H   0  0  0  0  0  0  0  0  0  0  0  0
    0.2071   -0.0178    0.2608 C   0  0  1  0  0  0  0  0  0  0  0  0
    0.3203    0.6695   -0.5829 H   0  0  0  0  0  0  0  0  0  0  0  0
    0.1961    0.8009    1.5697 C   0  0  0  0  0  0  0  0  0  0  0  0
   -0.1037    0.1651    2.4082 H   0  0  0  0  0  0  0  0  0  0  0  0
    1.2055    1.1671    1.7738 H   0  0  0  0  0  0  0  0  0  0  0  0
   -0.7225    2.0181    1.4853 C   0  0  0  0  0  0  0  0  0  0  0  0
   -0.9063    2.5539    0.3630 O   0  5  0  0  0  0  0  0  0  0  0  0
   -1.3307    2.3440    2.5313 O   0  0  0  0  0  0  0  0  0  0  0  0
    1.4405   -0.9585    0.1747 C   0  0  0  0  0  0  0  0  0  0  0  0
    1.9573   -1.4587    1.1705 O   0  0  0  0  0  0  0  0  0  0  0  0
    2.1717   -0.9769   -1.0018 N   0  0  0  0  0  0  0  0  0  0  0  0
    1.7341   -0.5550   -1.8138 H   0  0  0  0  0  0  0  0  0  0  0  0
    3.3963   -1.7441   -1.1758 C   0  0  0  0  0  0  0  0  0  0  0  0
    3.2103   -2.8069   -0.9894 H   0  0  0  0  0  0  0  0  0  0  0  0
    3.7683   -1.6307   -2.1982 H   0  0  0  0  0  0  0  0  0  0  0  0
    4.1697   -1.3922   -0.4854 H   0  0  0  0  0  0  0  0  0  0  0  0
  1  2  1  0  0  0  0
  2  3  1  0  0  0  0
  2  4  1  0  0  0  0
  2  5  1  0  0  0  0
  5  6  2  0  0  0  0
  5  7  1  0  0  0  0
  7  8  1  0  0  0  0
  7  9  1  0  0  0  0
  9 10  1  0  0  0  0
  9 11  1  0  0  0  0
  9 17  1  0  0  0  0
 11 12  1  0  0  0  0
 11 13  1  0  0  0  0
 11 14  1  0  0  0  0
 14 15  1  0  0  0  0
 14 16  2  0  0  0  0
 17 18  2  0  0  0  0
 17 19  1  0  0  0  0
 19 20  1  0  0  0  0
 19 21  1  0  0  0  0
 21 22  1  0  0  0  0
 21 23  1  0  0  0  0
 21 24  1  0  0  0  0
M  CHG  1  15  -1
M  END
$$$$

  -OEChem-01062216073D

 24 23  0     1  0  0  0  0  0999 V2000
   -3.1241   -3.1311    1.3440 H   0  0  0  0  0  0  0  0  0  0  0  0
   -2.9746   -2.1024    1.0046 C   0  0  0  0  0  0  0  0  0  0  0  0
   -3.1843   -1.4247    1.8366 H   0  0  0  0  0  0  0  0  0  0  0  0
   -3.6707   -1.8922    0.1890 H   0  0  0  0  0  0  0  0  0  0  0  0
   -1.5452   -1.9076    0.5307 C   0  0  0  0  0  0  0  0  0  0  0  0
   -0.8398   -2.8887    0.3689 O   0  0  0  0  0  0  0  0  0  0  0  0
   -1.1544   -0.6474    0.1299 N   0  0  0  0  0  0  0  0  0  0  0  0
   -1.8883    0.0515    0.2289 H   0  0  0  0  0  0  0  0  0  0  0  0
    0.1941   -0.0599    0.2217 C   0  0  1  0  0  0  0  0  0  0  0  0
    0.3055    0.6262   -0.6232 H   0  0  0  0  0  0  0  0  0  0  0  0
    0.2034    0.7542    1.5330 C   0  0  0  0  0  0  0  0  0  0  0  0
   -0.1035    0.1197    2.3699 H   0  0  0  0  0  0  0  0  0  0  0  0
    1.2202    1.1012    1.7343 H   0  0  0  0  0  0  0  0  0  0  0  0
   -0.6942    1.9871    1.4614 C   0  0  0  0  0  0  0  0  0  0  0  0
   -0.8754    2.5315    0.3430 O   0  5  0  0  0  0  0  0  0  0  0  0
   -1.2848    2.3219    2.5147 O   0  0  0  0  0  0  0  0  0  0  0  0
    1.4311   -0.9963    0.1399 C   0  0  0  0  0  0  0  0  0  0  0  0
    1.8132   -1.6645    1.0965 O   0  0  0  0  0  0  0  0  0  0  0  0
    2.3393   -0.7920   -0.8868 N   0  0  0  0  0  0  0  0  0  0  0  0
    2.0685   -0.1413   -1.6167 H   0  0  0  0  0  0  0  0  0  0  0  0
    3.6357   -1.4493   -0.9658 C   0  0  0  0  0  0  0  0  0  0  0  0
    3.5156   -2.5369   -0.9291 H   0  0  0  0  0  0  0  0  0  0  0  0
    4.1322   -1.1885   -1.9049 H   0  0  0  0  0  0  0  0  0  0  0  0
    4.2754   -1.1347   -0.1349 H   0  0  0  0  0  0  0  0  0  0  0  0
  1  2  1  0  0  0  0
  2  3  1  0  0  0  0
  2  4  1  0  0  0  0
  2  5  1  0  0  0  0
  5  6  2  0  0  0  0
  5  7  1  0  0  0  0
  7  8  1  0  0  0  0
  7  9  1  0  0  0  0
  9 10  1  0  0  0  0
  9 11  1  0  0  0  0
  9 17  1  0  0  0  0
 11 12  1  0  0  0  0
 11 13  1  0  0  0  0
 11 14  1  0  0  0  0
 14 15  1  0  0  0  0
 14 16  2  0  0  0  0
 17 18  2  0  0  0  0
 17 19  1  0  0  0  0
 19 20  1  0  0  0  0
 19 21  1  0  0  0  0
 21 22  1  0  0  0  0
 21 23  1  0  0  0  0
 21 24  1  0  0  0  0
M  CHG  1  15  -1
M  END
$$$$

  -OEChem-01062216073D

 24 23  0     1  0  0  0  0  0999 V2000
   -3.1237   -3.1108    1.3945 H   0  0  0  0  0  0  0  0  0  0  0  0
   -2.9665   -2.0816    1.0605 C   0  0  0  0  0  0  0  0  0  0  0  0
   -3.0932   -1.4123    1.9157 H   0  0  0  0  0  0  0  0  0  0  0  0
   -3.7132   -1.8363    0.3017 H   0  0  0  0  0  0  0  0  0  0  0  0
   -1.5700   -1.9237    0.4862 C   0  0  0  0  0  0  0  0  0  0  0  0
   -0.9277   -2.9247    0.2188 O   0  0  0  0  0  0  0  0  0  0  0  0
   -1.1666   -0.6693    0.0808 N   0  0  0  0  0  0  0  0  0  0  0  0
   -1.8865    0.0382    0.2138 H   0  0  0  0  0  0  0  0  0  0  0  0
    0.1889   -0.0968    0.1721 C   0  0  1  0  0  0  0  0  0  0  0  0
    0.2996    0.5871   -0.6747 H   0  0  0  0  0  0  0  0  0  0  0  0
    0.2105    0.7132    1.4857 C   0  0  0  0  0  0  0  0  0  0  0  0
   -0.1017    0.0791    2.3210 H   0  0  0  0  0  0  0  0  0  0  0  0
    1.2315    1.0474    1.6866 H   0  0  0  0  0  0  0  0  0  0  0  0
   -0.6714    1.9572    1.4229 C   0  0  0  0  0  0  0  0  0  0  0  0
   -0.8487    2.5084    0.3077 O   0  5  0  0  0  0  0  0  0  0  0  0
   -1.2507    2.2970    2.4805 O   0  0  0  0  0  0  0  0  0  0  0  0
    1.4347   -1.0215    0.0986 C   0  0  0  0  0  0  0  0  0  0  0  0
    1.6971   -1.8477    0.9672 O   0  0  0  0  0  0  0  0  0  0  0  0
    2.4848   -0.6204   -0.7126 N   0  0  0  0  0  0  0  0  0  0  0  0
    2.3257    0.1973   -1.2925 H   0  0  0  0  0  0  0  0  0  0  0  0
    3.8185   -1.2030   -0.6643 C   0  0  0  0  0  0  0  0  0  0  0  0
    3.7680   -2.2876   -0.8057 H   0  0  0  0  0  0  0  0  0  0  0  0
    4.4411   -0.7809   -1.4585 H   0  0  0  0  0  0  0  0  0  0  0  0
    4.2927   -0.9919    0.2996 H   0  0  0  0  0  0  0  0  0  0  0  0
  1  2  1  0  0  0  0
  2  3  1  0  0  0  0
  2  4  1  0  0  0  0
  2  5  1  0  0  0  0
  5  6  2  0  0  0  0
  5  7  1  0  0  0  0
  7  8  1  0  0  0  0
  7  9  1  0  0  0  0
  9 10  1  0  0  0  0
  9 11  1  0  0  0  0
  9 17  1  0  0  0  0
 11 12  1  0  0  0  0
 11 13  1  0  0  0  0
 11 14  1  0  0  0  0
 14 15  1  0  0  0  0
 14 16  2  0  0  0  0
 17 18  2  0  0  0  0
 17 19  1  0  0  0  0
 19 20  1  0  0  0  0
 19 21  1  0  0  0  0
 21 22  1  0  0  0  0
 21 23  1  0  0  0  0
 21 24  1  0  0  0  0
M  CHG  1  15  -1
M  END
$$$$

  -OEChem-01062216073D

 24 23  0     1  0  0  0  0  0999 V2000
   -3.2448   -3.2744    1.0707 H   0  0  0  0  0  0  0  0  0  0  0  0
   -3.0275   -2.2843    0.6599 C   0  0  0  0  0  0  0  0  0  0  0  0
   -3.7083   -1.5576    1.1105 H   0  0  0  0  0  0  0  0  0  0  0  0
   -3.1927   -2.3086   -0.4199 H   0  0  0  0  0  0  0  0  0  0  0  0
   -1.5891   -1.8960    0.9558 C   0  0  0  0  0  0  0  0  0  0  0  0
   -0.9532   -2.5961    1.7229 O   0  0  0  0  0  0  0  0  0  0  0  0
   -1.1389   -0.6843    0.4702 N   0  0  0  0  0  0  0  0  0  0  0  0
   -1.8543   -0.1012    0.0454 H   0  0  0  0  0  0  0  0  0  0  0  0
    0.2190   -0.1093    0.4299 C   0  0  1  0  0  0  0  0  0  0  0  0
    0.2494    0.4789   -0.4920 H   0  0  0  0  0  0  0  0  0  0  0  0
    0.3340    0.8508    1.6311 C   0  0  0  0  0  0  0  0  0  0  0  0
    0.0612    0.3243    2.5507 H   0  0  0  0  0  0  0  0  0  0  0  0
    1.3670    1.1914    1.7345 H   0  0  0  0  0  0  0  0  0  0  0  0
   -0.5414    2.0932    1.4713 C   0  0  0  0  0  0  0  0  0  0  0  0
   -0.7847    2.5049    0.3071 O   0  5  0  0  0  0  0  0  0  0  0  0
   -0.9476    2.6492    2.5183 O   0  0  0  0  0  0  0  0  0  0  0  0
    1.5007   -0.9832    0.3112 C   0  0  0  0  0  0  0  0  0  0  0  0
    1.5675   -2.1920    0.4864 O   0  0  0  0  0  0  0  0  0  0  0  0
    2.5818   -0.4016   -0.3330 N   0  0  0  0  0  0  0  0  0  0  0  0
    2.5240    0.5992   -0.4988 H   0  0  0  0  0  0  0  0  0  0  0  0
    3.8269   -1.0959   -0.6302 C   0  0  0  0  0  0  0  0  0  0  0  0
    3.6454   -1.9322   -1.3131 H   0  0  0  0  0  0  0  0  0  0  0  0
    4.5346   -0.4099   -1.1045 H   0  0  0  0  0  0  0  0  0  0  0  0
    4.2798   -1.4800    0.2896 H   0  0  0  0  0  0  0  0  0  0  0  0
  1  2  1  0  0  0  0
  2  3  1  0  0  0  0
  2  4  1  0  0  0  0
  2  5  1  0  0  0  0
  5  6  2  0  0  0  0
  5  7  1  0  0  0  0
  7  8  1  0  0  0  0
  7  9  1  0  0  0  0
  9 10  1  0  0  0  0
  9 11  1  0  0  0  0
  9 17  1  0  0  0  0
 11 12  1  0  0  0  0
 11 13  1  0  0  0  0
 11 14  1  0  0  0  0
 14 15  1  0  0  0  0
 14 16  2  0  0  0  0
 17 18  2  0  0  0  0
 17 19  1  0  0  0  0
 19 20  1  0  0  0  0
 19 21  1  0  0  0  0
 21 22  1  0  0  0  0
 21 23  1  0  0  0  0
 21 24  1  0  0  0  0
M  CHG  1  15  -1
M  END
$$$$

  -OEChem-01062216073D

 24 23  0     1  0  0  0  0  0999 V2000
   -3.1213   -3.3317    1.0475 H   0  0  0  0  0  0  0  0  0  0  0  0
   -2.9473   -2.3429    0.6142 C   0  0  0  0  0  0  0  0  0  0  0  0
   -3.7003   -1.6502    0.9986 H   0  0  0  0  0  0  0  0  0  0  0  0
   -3.0460   -2.4130   -0.4717 H   0  0  0  0  0  0  0  0  0  0  0  0
   -1.5578   -1.8489    0.9770 C   0  0  0  0  0  0  0  0  0  0  0  0
   -0.9242   -2.4576    1.8240 O   0  0  0  0  0  0  0  0  0  0  0  0
   -1.1467   -0.6290    0.4783 N   0  0  0  0  0  0  0  0  0  0  0  0
   -1.8463   -0.1033   -0.0364 H   0  0  0  0  0  0  0  0  0  0  0  0
    0.2109   -0.0574    0.4553 C   0  0  1  0  0  0  0  0  0  0  0  0
    0.2752    0.5352   -0.4623 H   0  0  0  0  0  0  0  0  0  0  0  0
    0.3174    0.8941    1.6661 C   0  0  0  0  0  0  0  0  0  0  0  0
    0.0315    0.3609    2.5776 H   0  0  0  0  0  0  0  0  0  0  0  0
    1.3484    1.2328    1.7870 H   0  0  0  0  0  0  0  0  0  0  0  0
   -0.5528    2.1400    1.5088 C   0  0  0  0  0  0  0  0  0  0  0  0
   -0.7856    2.5634    0.3467 O   0  5  0  0  0  0  0  0  0  0  0  0
   -0.9472    2.6990    2.5590 O   0  0  0  0  0  0  0  0  0  0  0  0
    1.4560   -0.9831    0.3574 C   0  0  0  0  0  0  0  0  0  0  0  0
    1.3958   -2.1857    0.1245 O   0  0  0  0  0  0  0  0  0  0  0  0
    2.6557   -0.3722    0.0272 N   0  0  0  0  0  0  0  0  0  0  0  0
    2.6840    0.6403    0.1087 H   0  0  0  0  0  0  0  0  0  0  0  0
    3.8718   -1.0877   -0.3321 C   0  0  0  0  0  0  0  0  0  0  0  0
    3.7251   -1.6502   -1.2596 H   0  0  0  0  0  0  0  0  0  0  0  0
    4.6921   -0.3797   -0.4828 H   0  0  0  0  0  0  0  0  0  0  0  0
    4.1562   -1.7827    0.4645 H   0  0  0  0  0  0  0  0  0  0  0  0
  1  2  1  0  0  0  0
  2  3  1  0  0  0  0
  2  4  1  0  0  0  0
  2  5  1  0  0  0  0
  5  6  2  0  0  0  0
  5  7  1  0  0  0  0
  7  8  1  0  0  0  0
  7  9  1  0  0  0  0
  9 10  1  0  0  0  0
  9 11  1  0  0  0  0
  9 17  1  0  0  0  0
 11 12  1  0  0  0  0
 11 13  1  0  0  0  0
 11 14  1  0  0  0  0
 14 15  1  0  0  0  0
 14 16  2  0  0  0  0
 17 18  2  0  0  0  0
 17 19  1  0  0  0  0
 19 20  1  0  0  0  0
 19 21  1  0  0  0  0
 21 22  1  0  0  0  0
 21 23  1  0  0  0  0
 21 24  1  0  0  0  0
M  CHG  1  15  -1
M  END
$$$$

  -OEChem-01062216073D

 24 23  0     1  0  0  0  0  0999 V2000
   -3.0216   -3.3357    1.1418 H   0  0  0  0  0  0  0  0  0  0  0  0
   -2.9050   -2.3324    0.7226 C   0  0  0  0  0  0  0  0  0  0  0  0
   -3.5570   -1.6444    1.2666 H   0  0  0  0  0  0  0  0  0  0  0  0
   -3.2026   -2.3531   -0.3285 H   0  0  0  0  0  0  0  0  0  0  0  0
   -1.4611   -1.8780    0.8426 C   0  0  0  0  0  0  0  0  0  0  0  0
   -0.6699   -2.5839    1.4494 O   0  0  0  0  0  0  0  0  0  0  0  0
   -1.1219   -0.6280    0.3633 N   0  0  0  0  0  0  0  0  0  0  0  0
   -1.8887   -0.0305    0.0711 H   0  0  0  0  0  0  0  0  0  0  0  0
    0.2153   -0.0150    0.3661 C   0  0  1  0  0  0  0  0  0  0  0  0
    0.2027    0.7942   -0.3703 H   0  0  0  0  0  0  0  0  0  0  0  0
    0.4413    0.5972    1.7676 C   0  0  0  0  0  0  0  0  0  0  0  0
    0.2653   -0.1598    2.5374 H   0  0  0  0  0  0  0  0  0  0  0  0
    1.4729    0.9393    1.8674 H   0  0  0  0  0  0  0  0  0  0  0  0
   -0.4567    1.8064    2.0242 C   0  0  0  0  0  0  0  0  0  0  0  0
   -0.8184    2.5039    1.0416 O   0  5  0  0  0  0  0  0  0  0  0  0
   -0.7523    2.0549    3.2167 O   0  0  0  0  0  0  0  0  0  0  0  0
    1.4018   -0.9063   -0.0934 C   0  0  0  0  0  0  0  0  0  0  0  0
    1.2383   -1.9003   -0.7967 O   0  0  0  0  0  0  0  0  0  0  0  0
    2.6724   -0.3536   -0.0954 N   0  0  0  0  0  0  0  0  0  0  0  0
    2.7891    0.5105    0.4256 H   0  0  0  0  0  0  0  0  0  0  0  0
    3.8438   -0.9985   -0.6706 C   0  0  0  0  0  0  0  0  0  0  0  0
    3.7172   -1.1301   -1.7500 H   0  0  0  0  0  0  0  0  0  0  0  0
    4.7322   -0.3838   -0.4989 H   0  0  0  0  0  0  0  0  0  0  0  0
    4.0056   -1.9781   -0.2094 H   0  0  0  0  0  0  0  0  0  0  0  0
  1  2  1  0  0  0  0
  2  3  1  0  0  0  0
  2  4  1  0  0  0  0
  2  5  1  0  0  0  0
  5  6  2  0  0  0  0
  5  7  1  0  0  0  0
  7  8  1  0  0  0  0
  7  9  1  0  0  0  0
  9 10  1  0  0  0  0
  9 11  1  0  0  0  0
  9 17  1  0  0  0  0
 11 12  1  0  0  0  0
 11 13  1  0  0  0  0
 11 14  1  0  0  0  0
 14 15  1  0  0  0  0
 14 16  2  0  0  0  0
 17 18  2  0  0  0  0
 17 19  1  0  0  0  0
 19 20  1  0  0  0  0
 19 21  1  0  0  0  0
 21 22  1  0  0  0  0
 21 23  1  0  0  0  0
 21 24  1  0  0  0  0
M  CHG  1  15  -1
M  END
$$$$

  -OEChem-01062216073D

 24 23  0     1  0  0  0  0  0999 V2000
   -2.9732   -3.3378    1.1373 H   0  0  0  0  0  0  0  0  0  0  0  0
   -2.8749   -2.3295    0.7258 C   0  0  0  0  0  0  0  0  0  0  0  0
   -3.5157   -1.6521    1.2957 H   0  0  0  0  0  0  0  0  0  0  0  0
   -3.2023   -2.3403   -0.3164 H   0  0  0  0  0  0  0  0  0  0  0  0
   -1.4312   -1.8663    0.8092 C   0  0  0  0  0  0  0  0  0  0  0  0
   -0.6107   -2.5830    1.3632 O   0  0  0  0  0  0  0  0  0  0  0  0
   -1.1156   -0.6051    0.3438 N   0  0  0  0  0  0  0  0  0  0  0  0
   -1.8943   -0.0070    0.0855 H   0  0  0  0  0  0  0  0  0  0  0  0
    0.2122    0.0272    0.3578 C   0  0  1  0  0  0  0  0  0  0  0  0
    0.2020    0.8482   -0.3659 H   0  0  0  0  0  0  0  0  0  0  0  0
    0.4197    0.6180    1.7727 C   0  0  0  0  0  0  0  0  0  0  0  0
    0.2562   -0.1556    2.5286 H   0  0  0  0  0  0  0  0  0  0  0  0
    1.4413    0.9840    1.8842 H   0  0  0  0  0  0  0  0  0  0  0  0
   -0.5006    1.8065    2.0454 C   0  0  0  0  0  0  0  0  0  0  0  0
   -0.8706    2.5170    1.0758 O   0  5  0  0  0  0  0  0  0  0  0  0
   -0.8093    2.0223    3.2411 O   0  0  0  0  0  0  0  0  0  0  0  0
    1.3885   -0.8721   -0.1139 C   0  0  0  0  0  0  0  0  0  0  0  0
    1.2272   -1.7190   -0.9900 O   0  0  0  0  0  0  0  0  0  0  0  0
    2.6926   -0.4904    0.1557 N   0  0  0  0  0  0  0  0  0  0  0  0
    2.8126    0.2260    0.8651 H   0  0  0  0  0  0  0  0  0  0  0  0
    3.8644   -1.1934   -0.3453 C   0  0  0  0  0  0  0  0  0  0  0  0
    3.8863   -1.1698   -1.4396 H   0  0  0  0  0  0  0  0  0  0  0  0
    4.7753   -0.7170    0.0287 H   0  0  0  0  0  0  0  0  0  0  0  0
    3.8556   -2.2363   -0.0123 H   0  0  0  0  0  0  0  0  0  0  0  0
  1  2  1  0  0  0  0
  2  3  1  0  0  0  0
  2  4  1  0  0  0  0
  2  5  1  0  0  0  0
  5  6  2  0  0  0  0
  5  7  1  0  0  0  0
  7  8  1  0  0  0  0
  7  9  1  0  0  0  0
  9 10  1  0  0  0  0
  9 11  1  0  0  0  0
  9 17  1  0  0  0  0
 11 12  1  0  0  0  0
 11 13  1  0  0  0  0
 11 14  1  0  0  0  0
 14 15  1  0  0  0  0
 14 16  2  0  0  0  0
 17 18  2  0  0  0  0
 17 19  1  0  0  0  0
 19 20  1  0  0  0  0
 19 21  1  0  0  0  0
 21 22  1  0  0  0  0
 21 23  1  0  0  0  0
 21 24  1  0  0  0  0
M  CHG  1  15  -1
M  END
$$$$

  -OEChem-01062216073D

 24 23  0     1  0  0  0  0  0999 V2000
   -2.9189   -3.3456    1.1256 H   0  0  0  0  0  0  0  0  0  0  0  0
   -2.8396   -2.3327    0.7217 C   0  0  0  0  0  0  0  0  0  0  0  0
   -3.4743   -1.6669    1.3121 H   0  0  0  0  0  0  0  0  0  0  0  0
   -3.1894   -2.3374   -0.3134 H   0  0  0  0  0  0  0  0  0  0  0  0
   -1.3995   -1.8558    0.7780 C   0  0  0  0  0  0  0  0  0  0  0  0
   -0.5545   -2.5791    1.2850 O   0  0  0  0  0  0  0  0  0  0  0  0
   -1.1067   -0.5840    0.3275 N   0  0  0  0  0  0  0  0  0  0  0  0
   -1.8974    0.0129    0.1037 H   0  0  0  0  0  0  0  0  0  0  0  0
    0.2104    0.0692    0.3527 C   0  0  1  0  0  0  0  0  0  0  0  0
    0.1951    0.8996   -0.3601 H   0  0  0  0  0  0  0  0  0  0  0  0
    0.4069    0.6436    1.7759 C   0  0  0  0  0  0  0  0  0  0  0  0
    0.2593   -0.1424    2.5223 H   0  0  0  0  0  0  0  0  0  0  0  0
    1.4206    1.0315    1.8885 H   0  0  0  0  0  0  0  0  0  0  0  0
   -0.5331    1.8126    2.0639 C   0  0  0  0  0  0  0  0  0  0  0  0
   -0.9154    2.5315    1.1058 O   0  5  0  0  0  0  0  0  0  0  0  0
   -0.8545    1.9971    3.2616 O   0  0  0  0  0  0  0  0  0  0  0  0
    1.3835   -0.8283   -0.1305 C   0  0  0  0  0  0  0  0  0  0  0  0
    1.2614   -1.5181   -1.1408 O   0  0  0  0  0  0  0  0  0  0  0  0
    2.6612   -0.6545    0.3751 N   0  0  0  0  0  0  0  0  0  0  0  0
    2.7250   -0.1259    1.2397 H   0  0  0  0  0  0  0  0  0  0  0  0
    3.8060   -1.4463   -0.0491 C   0  0  0  0  0  0  0  0  0  0  0  0
    3.9891   -1.3123   -1.1200 H   0  0  0  0  0  0  0  0  0  0  0  0
    4.7011   -1.1324    0.4958 H   0  0  0  0  0  0  0  0  0  0  0  0
    3.6305   -2.5080    0.1511 H   0  0  0  0  0  0  0  0  0  0  0  0
  1  2  1  0  0  0  0
  2  3  1  0  0  0  0
  2  4  1  0  0  0  0
  2  5  1  0  0  0  0
  5  6  2  0  0  0  0
  5  7  1  0  0  0  0
  7  8  1  0  0  0  0
  7  9  1  0  0  0  0
  9 10  1  0  0  0  0
  9 11  1  0  0  0  0
  9 17  1  0  0  0  0
 11 12  1  0  0  0  0
 11 13  1  0  0  0  0
 11 14  1  0  0  0  0
 14 15  1  0  0  0  0
 14 16  2  0  0  0  0
 17 18  2  0  0  0  0
 17 19  1  0  0  0  0
 19 20  1  0  0  0  0
 19 21  1  0  0  0  0
 21 22  1  0  0  0  0
 21 23  1  0  0  0  0
 21 24  1  0  0  0  0
M  CHG  1  15  -1
M  END
$$$$

  -OEChem-01062216073D

 24 23  0     1  0  0  0  0  0999 V2000
   -2.8958   -3.3333    1.1382 H   0  0  0  0  0  0  0  0  0  0  0  0
   -2.8221   -2.3223    0.7283 C   0  0  0  0  0  0  0  0  0  0  0  0
   -3.4396   -1.6516    1.3311 H   0  0  0  0  0  0  0  0  0  0  0  0
   -3.1973   -2.3294   -0.2978 H   0  0  0  0  0  0  0  0  0  0  0  0
   -1.3790   -1.8509    0.7482 C   0  0  0  0  0  0  0  0  0  0  0  0
   -0.5196   -2.5865    1.2113 O   0  0  0  0  0  0  0  0  0  0  0  0
   -1.0953   -0.5746    0.3058 N   0  0  0  0  0  0  0  0  0  0  0  0
   -1.8924    0.0271    0.1186 H   0  0  0  0  0  0  0  0  0  0  0  0
    0.2145    0.0914    0.3439 C   0  0  1  0  0  0  0  0  0  0  0  0
    0.1992    0.9272   -0.3628 H   0  0  0  0  0  0  0  0  0  0  0  0
    0.3981    0.6528    1.7734 C   0  0  0  0  0  0  0  0  0  0  0  0
    0.2580   -0.1418    2.5121 H   0  0  0  0  0  0  0  0  0  0  0  0
    1.4086    1.0504    1.8882 H   0  0  0  0  0  0  0  0  0  0  0  0
   -0.5554    1.8083    2.0700 C   0  0  0  0  0  0  0  0  0  0  0  0
   -0.9421    2.5342    1.1193 O   0  5  0  0  0  0  0  0  0  0  0  0
   -0.8955    1.9649    3.2665 O   0  0  0  0  0  0  0  0  0  0  0  0
    1.3925   -0.8006   -0.1352 C   0  0  0  0  0  0  0  0  0  0  0  0
    1.3510   -1.3299   -1.2438 O   0  0  0  0  0  0  0  0  0  0  0  0
    2.5836   -0.8534    0.5694 N   0  0  0  0  0  0  0  0  0  0  0  0
    2.5389   -0.5044    1.5222 H   0  0  0  0  0  0  0  0  0  0  0  0
    3.6925   -1.7173    0.1941 C   0  0  0  0  0  0  0  0  0  0  0  0
    4.0541   -1.4643   -0.8076 H   0  0  0  0  0  0  0  0  0  0  0  0
    4.5191   -1.5943    0.9003 H   0  0  0  0  0  0  0  0  0  0  0  0
    3.3785   -2.7661    0.2038 H   0  0  0  0  0  0  0  0  0  0  0  0
  1  2  1  0  0  0  0
  2  3  1  0  0  0  0
  2  4  1  0  0  0  0
  2  5  1  0  0  0  0
  5  6  2  0  0  0  0
  5  7  1  0  0  0  0
  7  8  1  0  0  0  0
  7  9  1  0  0  0  0
  9 10  1  0  0  0  0
  9 11  1  0  0  0  0
  9 17  1  0  0  0  0
 11 12  1  0  0  0  0
 11 13  1  0  0  0  0
 11 14  1  0  0  0  0
 14 15  1  0  0  0  0
 14 16  2  0  0  0  0
 17 18  2  0  0  0  0
 17 19  1  0  0  0  0
 19 20  1  0  0  0  0
 19 21  1  0  0  0  0
 21 22  1  0  0  0  0
 21 23  1  0  0  0  0
 21 24  1  0  0  0  0
M  CHG  1  15  -1
M  END
$$$$

  -OEChem-01062216073D

 24 23  0     1  0  0  0  0  0999 V2000
   -2.8778   -3.3332    1.1263 H   0  0  0  0  0  0  0  0  0  0  0  0
   -2.8098   -2.3180    0.7258 C   0  0  0  0  0  0  0  0  0  0  0  0
   -3.4220   -1.6543    1.3417 H   0  0  0  0  0  0  0  0  0  0  0  0
   -3.1965   -2.3154   -0.2963 H   0  0  0  0  0  0  0  0  0  0  0  0
   -1.3672   -1.8446    0.7351 C   0  0  0  0  0  0  0  0  0  0  0  0
   -0.5016   -2.5846    1.1794 O   0  0  0  0  0  0  0  0  0  0  0  0
   -1.0860   -0.5675    0.2935 N   0  0  0  0  0  0  0  0  0  0  0  0
   -1.8854    0.0359    0.1209 H   0  0  0  0  0  0  0  0  0  0  0  0
    0.2202    0.1055    0.3409 C   0  0  1  0  0  0  0  0  0  0  0  0
    0.2056    0.9441   -0.3628 H   0  0  0  0  0  0  0  0  0  0  0  0
    0.3974    0.6604    1.7730 C   0  0  0  0  0  0  0  0  0  0  0  0
    0.2571   -0.1376    2.5078 H   0  0  0  0  0  0  0  0  0  0  0  0
    1.4089    1.0569    1.8888 H   0  0  0  0  0  0  0  0  0  0  0  0
   -0.5619    1.8098    2.0737 C   0  0  0  0  0  0  0  0  0  0  0  0
   -0.9505    2.5397    1.1270 O   0  5  0  0  0  0  0  0  0  0  0  0
   -0.9158    1.9484    3.2684 O   0  0  0  0  0  0  0  0  0  0  0  0
    1.4032   -0.7829   -0.1280 C   0  0  0  0  0  0  0  0  0  0  0  0
    1.4703   -1.1442   -1.3007 O   0  0  0  0  0  0  0  0  0  0  0  0
    2.4586   -1.0767    0.7185 N   0  0  0  0  0  0  0  0  0  0  0  0
    2.2714   -0.9103    1.7034 H   0  0  0  0  0  0  0  0  0  0  0  0
    3.5212   -2.0044    0.3630 C   0  0  0  0  0  0  0  0  0  0  0  0
    4.0410   -1.6660   -0.5390 H   0  0  0  0  0  0  0  0  0  0  0  0
    4.2499   -2.0683    1.1764 H   0  0  0  0  0  0  0  0  0  0  0  0
    3.1100   -3.0029    0.1825 H   0  0  0  0  0  0  0  0  0  0  0  0
  1  2  1  0  0  0  0
  2  3  1  0  0  0  0
  2  4  1  0  0  0  0
  2  5  1  0  0  0  0
  5  6  2  0  0  0  0
  5  7  1  0  0  0  0
  7  8  1  0  0  0  0
  7  9  1  0  0  0  0
  9 10  1  0  0  0  0
  9 11  1  0  0  0  0
  9 17  1  0  0  0  0
 11 12  1  0  0  0  0
 11 13  1  0  0  0  0
 11 14  1  0  0  0  0
 14 15  1  0  0  0  0
 14 16  2  0  0  0  0
 17 18  2  0  0  0  0
 17 19  1  0  0  0  0
 19 20  1  0  0  0  0
 19 21  1  0  0  0  0
 21 22  1  0  0  0  0
 21 23  1  0  0  0  0
 21 24  1  0  0  0  0
M  CHG  1  15  -1
M  END
$$$$

  -OEChem-01062216073D

 24 23  0     1  0  0  0  0  0999 V2000
   -2.8968   -3.3120    1.1383 H   0  0  0  0  0  0  0  0  0  0  0  0
   -2.8198   -2.2985    0.7352 C   0  0  0  0  0  0  0  0  0  0  0  0
   -3.4177   -1.6262    1.3560 H   0  0  0  0  0  0  0  0  0  0  0  0
   -3.2160   -2.2926   -0.2832 H   0  0  0  0  0  0  0  0  0  0  0  0
   -1.3714   -1.8428    0.7297 C   0  0  0  0  0  0  0  0  0  0  0  0
   -0.5102   -2.5941    1.1630 O   0  0  0  0  0  0  0  0  0  0  0  0
   -1.0799   -0.5701    0.2823 N   0  0  0  0  0  0  0  0  0  0  0  0
   -1.8768    0.0402    0.1200 H   0  0  0  0  0  0  0  0  0  0  0  0
    0.2269    0.1019    0.3350 C   0  0  1  0  0  0  0  0  0  0  0  0
    0.2159    0.9413   -0.3681 H   0  0  0  0  0  0  0  0  0  0  0  0
    0.3969    0.6521    1.7687 C   0  0  0  0  0  0  0  0  0  0  0  0
    0.2505   -0.1466    2.5014 H   0  0  0  0  0  0  0  0  0  0  0  0
    1.4112    1.0408    1.8888 H   0  0  0  0  0  0  0  0  0  0  0  0
   -0.5633    1.8008    2.0686 C   0  0  0  0  0  0  0  0  0  0  0  0
   -0.9474    2.5342    1.1226 O   0  5  0  0  0  0  0  0  0  0  0  0
   -0.9362    1.9247    3.2593 O   0  0  0  0  0  0  0  0  0  0  0  0
    1.4187   -0.7826   -0.1157 C   0  0  0  0  0  0  0  0  0  0  0  0
    1.6307   -0.9617   -1.3126 O   0  0  0  0  0  0  0  0  0  0  0  0
    2.2995   -1.3165    0.8087 N   0  0  0  0  0  0  0  0  0  0  0  0
    1.9367   -1.3396    1.7584 H   0  0  0  0  0  0  0  0  0  0  0  0
    3.3309   -2.2761    0.4474 C   0  0  0  0  0  0  0  0  0  0  0  0
    4.0098   -1.8484   -0.2973 H   0  0  0  0  0  0  0  0  0  0  0  0
    3.9157   -2.5464    1.3314 H   0  0  0  0  0  0  0  0  0  0  0  0
    2.8788   -3.1843    0.0362 H   0  0  0  0  0  0  0  0  0  0  0  0
  1  2  1  0  0  0  0
  2  3  1  0  0  0  0
  2  4  1  0  0  0  0
  2  5  1  0  0  0  0
  5  6  2  0  0  0  0
  5  7  1  0  0  0  0
  7  8  1  0  0  0  0
  7  9  1  0  0  0  0
  9 10  1  0  0  0  0
  9 11  1  0  0  0  0
  9 17  1  0  0  0  0
 11 12  1  0  0  0  0
 11 13  1  0  0  0  0
 11 14  1  0  0  0  0
 14 15  1  0  0  0  0
 14 16  2  0  0  0  0
 17 18  2  0  0  0  0
 17 19  1  0  0  0  0
 19 20  1  0  0  0  0
 19 21  1  0  0  0  0
 21 22  1  0  0  0  0
 21 23  1  0  0  0  0
 21 24  1  0  0  0  0
M  CHG  1  15  -1
M  END
$$$$

  -OEChem-01062216073D

 24 23  0     1  0  0  0  0  0999 V2000
   -2.9651   -3.2754    1.1566 H   0  0  0  0  0  0  0  0  0  0  0  0
   -2.8637   -2.2673    0.7454 C   0  0  0  0  0  0  0  0  0  0  0  0
   -3.4503   -1.5768    1.3571 H   0  0  0  0  0  0  0  0  0  0  0  0
   -3.2544   -2.2612   -0.2750 H   0  0  0  0  0  0  0  0  0  0  0  0
   -1.4061   -1.8431    0.7441 C   0  0  0  0  0  0  0  0  0  0  0  0
   -0.5648   -2.6086    1.1914 O   0  0  0  0  0  0  0  0  0  0  0  0
   -1.0855   -0.5814    0.2856 N   0  0  0  0  0  0  0  0  0  0  0  0
   -1.8719    0.0419    0.1199 H   0  0  0  0  0  0  0  0  0  0  0  0
    0.2288    0.0784    0.3350 C   0  0  1  0  0  0  0  0  0  0  0  0
    0.2234    0.9143   -0.3727 H   0  0  0  0  0  0  0  0  0  0  0  0
    0.3975    0.6334    1.7658 C   0  0  0  0  0  0  0  0  0  0  0  0
    0.2409   -0.1597    2.5023 H   0  0  0  0  0  0  0  0  0  0  0  0
    1.4164    1.0095    1.8874 H   0  0  0  0  0  0  0  0  0  0  0  0
   -0.5544    1.7919    2.0562 C   0  0  0  0  0  0  0  0  0  0  0  0
   -0.9283    2.5239    1.1051 O   0  5  0  0  0  0  0  0  0  0  0  0
   -0.9423    1.9174    3.2420 O   0  0  0  0  0  0  0  0  0  0  0  0
    1.4279   -0.8062   -0.0956 C   0  0  0  0  0  0  0  0  0  0  0  0
    1.8142   -0.7882   -1.2616 O   0  0  0  0  0  0  0  0  0  0  0  0
    2.1171   -1.5732    0.8264 N   0  0  0  0  0  0  0  0  0  0  0  0
    1.5605   -1.7956    1.6509 H   0  0  0  0  0  0  0  0  0  0  0  0
    3.1543   -2.5168    0.4391 C   0  0  0  0  0  0  0  0  0  0  0  0
    3.9581   -2.0046   -0.0995 H   0  0  0  0  0  0  0  0  0  0  0  0
    3.5823   -2.9873    1.3291 H   0  0  0  0  0  0  0  0  0  0  0  0
    2.7380   -3.2988   -0.2040 H   0  0  0  0  0  0  0  0  0  0  0  0
  1  2  1  0  0  0  0
  2  3  1  0  0  0  0
  2  4  1  0  0  0  0
  2  5  1  0  0  0  0
  5  6  2  0  0  0  0
  5  7  1  0  0  0  0
  7  8  1  0  0  0  0
  7  9  1  0  0  0  0
  9 10  1  0  0  0  0
  9 11  1  0  0  0  0
  9 17  1  0  0  0  0
 11 12  1  0  0  0  0
 11 13  1  0  0  0  0
 11 14  1  0  0  0  0
 14 15  1  0  0  0  0
 14 16  2  0  0  0  0
 17 18  2  0  0  0  0
 17 19  1  0  0  0  0
 19 20  1  0  0  0  0
 19 21  1  0  0  0  0
 21 22  1  0  0  0  0
 21 23  1  0  0  0  0
 21 24  1  0  0  0  0
M  CHG  1  15  -1
M  END
$$$$

  -OEChem-01062216073D

 24 23  0     1  0  0  0  0  0999 V2000
   -3.0869   -3.2111    1.1883 H   0  0  0  0  0  0  0  0  0  0  0  0
   -2.9441   -2.2122    0.7669 C   0  0  0  0  0  0  0  0  0  0  0  0
   -3.4961   -1.4916    1.3762 H   0  0  0  0  0  0  0  0  0  0  0  0
   -3.3418   -2.1980   -0.2508 H   0  0  0  0  0  0  0  0  0  0  0  0
   -1.4692   -1.8519    0.7526 C   0  0  0  0  0  0  0  0  0  0  0  0
   -0.6615   -2.6559    1.1930 O   0  0  0  0  0  0  0  0  0  0  0  0
   -1.1026   -0.6056    0.2863 N   0  0  0  0  0  0  0  0  0  0  0  0
   -1.8740    0.0387    0.1280 H   0  0  0  0  0  0  0  0  0  0  0  0
    0.2226    0.0387    0.3264 C   0  0  1  0  0  0  0  0  0  0  0  0
    0.2177    0.8723   -0.3842 H   0  0  0  0  0  0  0  0  0  0  0  0
    0.3948    0.5945    1.7553 C   0  0  0  0  0  0  0  0  0  0  0  0
    0.2320   -0.1959    2.4935 H   0  0  0  0  0  0  0  0  0  0  0  0
    1.4174    0.9608    1.8765 H   0  0  0  0  0  0  0  0  0  0  0  0
   -0.5462    1.7635    2.0405 C   0  0  0  0  0  0  0  0  0  0  0  0
   -0.9107    2.4964    1.0865 O   0  5  0  0  0  0  0  0  0  0  0  0
   -0.9449    1.8895    3.2227 O   0  0  0  0  0  0  0  0  0  0  0  0
    1.4389   -0.8330   -0.0854 C   0  0  0  0  0  0  0  0  0  0  0  0
    1.9975   -0.6324   -1.1607 O   0  0  0  0  0  0  0  0  0  0  0  0
    1.9474   -1.8070    0.7534 N   0  0  0  0  0  0  0  0  0  0  0  0
    1.2610   -2.1423    1.4331 H   0  0  0  0  0  0  0  0  0  0  0  0
    3.0021   -2.7236    0.3496 C   0  0  0  0  0  0  0  0  0  0  0  0
    3.8988   -2.1703    0.0530 H   0  0  0  0  0  0  0  0  0  0  0  0
    3.2640   -3.3812    1.1835 H   0  0  0  0  0  0  0  0  0  0  0  0
    2.6705   -3.3406   -0.4915 H   0  0  0  0  0  0  0  0  0  0  0  0
  1  2  1  0  0  0  0
  2  3  1  0  0  0  0
  2  4  1  0  0  0  0
  2  5  1  0  0  0  0
  5  6  2  0  0  0  0
  5  7  1  0  0  0  0
  7  8  1  0  0  0  0
  7  9  1  0  0  0  0
  9 10  1  0  0  0  0
  9 11  1  0  0  0  0
  9 17  1  0  0  0  0
 11 12  1  0  0  0  0
 11 13  1  0  0  0  0
 11 14  1  0  0  0  0
 14 15  1  0  0  0  0
 14 16  2  0  0  0  0
 17 18  2  0  0  0  0
 17 19  1  0  0  0  0
 19 20  1  0  0  0  0
 19 21  1  0  0  0  0
 21 22  1  0  0  0  0
 21 23  1  0  0  0  0
 21 24  1  0  0  0  0
M  CHG  1  15  -1
M  END
$$$$

  -OEChem-01062216073D

 24 23  0     1  0  0  0  0  0999 V2000
   -3.2238   -3.1393    1.2111 H   0  0  0  0  0  0  0  0  0  0  0  0
   -3.0355   -2.1480    0.7895 C   0  0  0  0  0  0  0  0  0  0  0  0
   -3.5484   -1.4023    1.4027 H   0  0  0  0  0  0  0  0  0  0  0  0
   -3.4388   -2.1137   -0.2255 H   0  0  0  0  0  0  0  0  0  0  0  0
   -1.5452   -1.8584    0.7662 C   0  0  0  0  0  0  0  0  0  0  0  0
   -0.7781   -2.7050    1.1971 O   0  0  0  0  0  0  0  0  0  0  0  0
   -1.1293   -0.6308    0.2908 N   0  0  0  0  0  0  0  0  0  0  0  0
   -1.8839    0.0345    0.1362 H   0  0  0  0  0  0  0  0  0  0  0  0
    0.2078   -0.0043    0.3148 C   0  0  1  0  0  0  0  0  0  0  0  0
    0.2005    0.8257   -0.4001 H   0  0  0  0  0  0  0  0  0  0  0  0
    0.3881    0.5541    1.7409 C   0  0  0  0  0  0  0  0  0  0  0  0
    0.2191   -0.2334    2.4811 H   0  0  0  0  0  0  0  0  0  0  0  0
    1.4147    0.9101    1.8599 H   0  0  0  0  0  0  0  0  0  0  0  0
   -0.5391    1.7351    2.0237 C   0  0  0  0  0  0  0  0  0  0  0  0
   -0.8967    2.4693    1.0679 O   0  5  0  0  0  0  0  0  0  0  0  0
   -0.9396    1.8656    3.2047 O   0  0  0  0  0  0  0  0  0  0  0  0
    1.4415   -0.8611   -0.0829 C   0  0  0  0  0  0  0  0  0  0  0  0
    2.1437   -0.5091   -1.0269 O   0  0  0  0  0  0  0  0  0  0  0  0
    1.7990   -2.0094    0.5965 N   0  0  0  0  0  0  0  0  0  0  0  0
    1.0572   -2.3915    1.1894 H   0  0  0  0  0  0  0  0  0  0  0  0
    2.8685   -2.8979    0.1702 C   0  0  0  0  0  0  0  0  0  0  0  0
    3.8177   -2.3554    0.1126 H   0  0  0  0  0  0  0  0  0  0  0  0
    2.9824   -3.7153    0.8882 H   0  0  0  0  0  0  0  0  0  0  0  0
    2.6420   -3.3244   -0.8120 H   0  0  0  0  0  0  0  0  0  0  0  0
  1  2  1  0  0  0  0
  2  3  1  0  0  0  0
  2  4  1  0  0  0  0
  2  5  1  0  0  0  0
  5  6  2  0  0  0  0
  5  7  1  0  0  0  0
  7  8  1  0  0  0  0
  7  9  1  0  0  0  0
  9 10  1  0  0  0  0
  9 11  1  0  0  0  0
  9 17  1  0  0  0  0
 11 12  1  0  0  0  0
 11 13  1  0  0  0  0
 11 14  1  0  0  0  0
 14 15  1  0  0  0  0
 14 16  2  0  0  0  0
 17 18  2  0  0  0  0
 17 19  1  0  0  0  0
 19 20  1  0  0  0  0
 19 21  1  0  0  0  0
 21 22  1  0  0  0  0
 21 23  1  0  0  0  0
 21 24  1  0  0  0  0
M  CHG  1  15  -1
M  END
$$$$

  -OEChem-01062216073D

 24 23  0     1  0  0  0  0  0999 V2000
   -3.3385   -3.0710    1.2470 H   0  0  0  0  0  0  0  0  0  0  0  0
   -3.1178   -2.0844    0.8301 C   0  0  0  0  0  0  0  0  0  0  0  0
   -3.5871   -1.3241    1.4603 H   0  0  0  0  0  0  0  0  0  0  0  0
   -3.5396   -2.0242   -0.1761 H   0  0  0  0  0  0  0  0  0  0  0  0
   -1.6176   -1.8556    0.7789 C   0  0  0  0  0  0  0  0  0  0  0  0
   -0.8819   -2.7377    1.1911 O   0  0  0  0  0  0  0  0  0  0  0  0
   -1.1651   -0.6433    0.2967 N   0  0  0  0  0  0  0  0  0  0  0  0
   -1.9039    0.0438    0.1602 H   0  0  0  0  0  0  0  0  0  0  0  0
    0.1852   -0.0409    0.2961 C   0  0  1  0  0  0  0  0  0  0  0  0
    0.1752    0.7880   -0.4201 H   0  0  0  0  0  0  0  0  0  0  0  0
    0.3851    0.5155    1.7200 C   0  0  0  0  0  0  0  0  0  0  0  0
    0.2122   -0.2691    2.4624 H   0  0  0  0  0  0  0  0  0  0  0  0
    1.4176    0.8572    1.8301 H   0  0  0  0  0  0  0  0  0  0  0  0
   -0.5222    1.7110    2.0081 C   0  0  0  0  0  0  0  0  0  0  0  0
   -0.8760    2.4495    1.0540 O   0  5  0  0  0  0  0  0  0  0  0  0
   -0.9200    1.8429    3.1900 O   0  0  0  0  0  0  0  0  0  0  0  0
    1.4210   -0.8935   -0.1110 C   0  0  0  0  0  0  0  0  0  0  0  0
    2.2473   -0.4176   -0.8845 O   0  0  0  0  0  0  0  0  0  0  0  0
    1.6462   -2.1780    0.3416 N   0  0  0  0  0  0  0  0  0  0  0  0
    0.8863   -2.5919    0.8873 H   0  0  0  0  0  0  0  0  0  0  0  0
    2.7523   -3.0211   -0.0827 C   0  0  0  0  0  0  0  0  0  0  0  0
    3.7091   -2.5363    0.1357 H   0  0  0  0  0  0  0  0  0  0  0  0
    2.7193   -3.9754    0.4511 H   0  0  0  0  0  0  0  0  0  0  0  0
    2.6903   -3.2202   -1.1571 H   0  0  0  0  0  0  0  0  0  0  0  0
  1  2  1  0  0  0  0
  2  3  1  0  0  0  0
  2  4  1  0  0  0  0
  2  5  1  0  0  0  0
  5  6  2  0  0  0  0
  5  7  1  0  0  0  0
  7  8  1  0  0  0  0
  7  9  1  0  0  0  0
  9 10  1  0  0  0  0
  9 11  1  0  0  0  0
  9 17  1  0  0  0  0
 11 12  1  0  0  0  0
 11 13  1  0  0  0  0
 11 14  1  0  0  0  0
 14 15  1  0  0  0  0
 14 16  2  0  0  0  0
 17 18  2  0  0  0  0
 17 19  1  0  0  0  0
 19 20  1  0  0  0  0
 19 21  1  0  0  0  0
 21 22  1  0  0  0  0
 21 23  1  0  0  0  0
 21 24  1  0  0  0  0
M  CHG  1  15  -1
M  END
$$$$

  -OEChem-01062216073D

 24 23  0     1  0  0  0  0  0999 V2000
   -3.4033   -3.0346    1.2672 H   0  0  0  0  0  0  0  0  0  0  0  0
   -3.1710   -2.0462    0.8609 C   0  0  0  0  0  0  0  0  0  0  0  0
   -3.6076   -1.2863    1.5147 H   0  0  0  0  0  0  0  0  0  0  0  0
   -3.6159   -1.9596   -0.1333 H   0  0  0  0  0  0  0  0  0  0  0  0
   -1.6677   -1.8498    0.7762 C   0  0  0  0  0  0  0  0  0  0  0  0
   -0.9418   -2.7538    1.1574 O   0  0  0  0  0  0  0  0  0  0  0  0
   -1.2019   -0.6399    0.3009 N   0  0  0  0  0  0  0  0  0  0  0  0
   -1.9305    0.0639    0.1964 H   0  0  0  0  0  0  0  0  0  0  0  0
    0.1587   -0.0601    0.2753 C   0  0  1  0  0  0  0  0  0  0  0  0
    0.1432    0.7739   -0.4343 H   0  0  0  0  0  0  0  0  0  0  0  0
    0.3899    0.4840    1.6995 C   0  0  0  0  0  0  0  0  0  0  0  0
    0.2164   -0.3028    2.4394 H   0  0  0  0  0  0  0  0  0  0  0  0
    1.4288    0.8101    1.7961 H   0  0  0  0  0  0  0  0  0  0  0  0
   -0.4952    1.6915    2.0081 C   0  0  0  0  0  0  0  0  0  0  0  0
   -0.8529    2.4411    1.0639 O   0  5  0  0  0  0  0  0  0  0  0  0
   -0.8781    1.8188    3.1955 O   0  0  0  0  0  0  0  0  0  0  0  0
    1.3822   -0.9131   -0.1717 C   0  0  0  0  0  0  0  0  0  0  0  0
    2.3209   -0.3553   -0.7328 O   0  0  0  0  0  0  0  0  0  0  0  0
    1.4799   -2.2800   -0.0045 N   0  0  0  0  0  0  0  0  0  0  0  0
    0.7169   -2.7199    0.5147 H   0  0  0  0  0  0  0  0  0  0  0  0
    2.6398   -3.0773   -0.3701 C   0  0  0  0  0  0  0  0  0  0  0  0
    3.5230   -2.7441    0.1842 H   0  0  0  0  0  0  0  0  0  0  0  0
    2.4581   -4.1298   -0.1341 H   0  0  0  0  0  0  0  0  0  0  0  0
    2.8397   -2.9924   -1.4429 H   0  0  0  0  0  0  0  0  0  0  0  0
  1  2  1  0  0  0  0
  2  3  1  0  0  0  0
  2  4  1  0  0  0  0
  2  5  1  0  0  0  0
  5  6  2  0  0  0  0
  5  7  1  0  0  0  0
  7  8  1  0  0  0  0
  7  9  1  0  0  0  0
  9 10  1  0  0  0  0
  9 11  1  0  0  0  0
  9 17  1  0  0  0  0
 11 12  1  0  0  0  0
 11 13  1  0  0  0  0
 11 14  1  0  0  0  0
 14 15  1  0  0  0  0
 14 16  2  0  0  0  0
 17 18  2  0  0  0  0
 17 19  1  0  0  0  0
 19 20  1  0  0  0  0
 19 21  1  0  0  0  0
 21 22  1  0  0  0  0
 21 23  1  0  0  0  0
 21 24  1  0  0  0  0
M  CHG  1  15  -1
M  END
$$$$

  -OEChem-01062216073D

 24 23  0     1  0  0  0  0  0999 V2000
   -3.3854   -3.0293    1.3157 H   0  0  0  0  0  0  0  0  0  0  0  0
   -3.1669   -2.0357    0.9146 C   0  0  0  0  0  0  0  0  0  0  0  0
   -3.5698   -1.2844    1.5994 H   0  0  0  0  0  0  0  0  0  0  0  0
   -3.6553   -1.9313   -0.0573 H   0  0  0  0  0  0  0  0  0  0  0  0
   -1.6681   -1.8441    0.7659 C   0  0  0  0  0  0  0  0  0  0  0  0
   -0.9292   -2.7601    1.0897 O   0  0  0  0  0  0  0  0  0  0  0  0
   -1.2158   -0.6278    0.2941 N   0  0  0  0  0  0  0  0  0  0  0  0
   -1.9441    0.0815    0.2343 H   0  0  0  0  0  0  0  0  0  0  0  0
    0.1461   -0.0515    0.2489 C   0  0  1  0  0  0  0  0  0  0  0  0
    0.1217    0.7905   -0.4506 H   0  0  0  0  0  0  0  0  0  0  0  0
    0.3956    0.4734    1.6782 C   0  0  0  0  0  0  0  0  0  0  0  0
    0.2312   -0.3232    2.4096 H   0  0  0  0  0  0  0  0  0  0  0  0
    1.4354    0.7985    1.7685 H   0  0  0  0  0  0  0  0  0  0  0  0
   -0.4852    1.6773    2.0121 C   0  0  0  0  0  0  0  0  0  0  0  0
   -0.8534    2.4388    1.0814 O   0  5  0  0  0  0  0  0  0  0  0  0
   -0.8653    1.7822    3.2026 O   0  0  0  0  0  0  0  0  0  0  0  0
    1.3591   -0.9018   -0.2323 C   0  0  0  0  0  0  0  0  0  0  0  0
    2.3848   -0.3268   -0.5856 O   0  0  0  0  0  0  0  0  0  0  0  0
    1.3398   -2.2772   -0.3584 N   0  0  0  0  0  0  0  0  0  0  0  0
    0.5539   -2.7382    0.1044 H   0  0  0  0  0  0  0  0  0  0  0  0
    2.5060   -3.0770   -0.7010 C   0  0  0  0  0  0  0  0  0  0  0  0
    3.2878   -2.9555    0.0554 H   0  0  0  0  0  0  0  0  0  0  0  0
    2.2311   -4.1346   -0.7512 H   0  0  0  0  0  0  0  0  0  0  0  0
    2.9041   -2.7776   -1.6757 H   0  0  0  0  0  0  0  0  0  0  0  0
  1  2  1  0  0  0  0
  2  3  1  0  0  0  0
  2  4  1  0  0  0  0
  2  5  1  0  0  0  0
  5  6  2  0  0  0  0
  5  7  1  0  0  0  0
  7  8  1  0  0  0  0
  7  9  1  0  0  0  0
  9 10  1  0  0  0  0
  9 11  1  0  0  0  0
  9 17  1  0  0  0  0
 11 12  1  0  0  0  0
 11 13  1  0  0  0  0
 11 14  1  0  0  0  0
 14 15  1  0  0  0  0
 14 16  2  0  0  0  0
 17 18  2  0  0  0  0
 17 19  1  0  0  0  0
 19 20  1  0  0  0  0
 19 21  1  0  0  0  0
 21 22  1  0  0  0  0
 21 23  1  0  0  0  0
 21 24  1  0  0  0  0
M  CHG  1  15  -1
M  END
$$$$

  -OEChem-01062216073D

 24 23  0     1  0  0  0  0  0999 V2000
   -3.3190   -3.0447    1.3409 H   0  0  0  0  0  0  0  0  0  0  0  0
   -3.1236   -2.0434    0.9472 C   0  0  0  0  0  0  0  0  0  0  0  0
   -3.4950   -1.3058    1.6639 H   0  0  0  0  0  0  0  0  0  0  0  0
   -3.6590   -1.9240    0.0023 H   0  0  0  0  0  0  0  0  0  0  0  0
   -1.6345   -1.8429    0.7297 C   0  0  0  0  0  0  0  0  0  0  0  0
   -0.8782   -2.7725    0.9610 O   0  0  0  0  0  0  0  0  0  0  0  0
   -1.2036   -0.6131    0.2739 N   0  0  0  0  0  0  0  0  0  0  0  0
   -1.9340    0.0973    0.2669 H   0  0  0  0  0  0  0  0  0  0  0  0
    0.1556   -0.0306    0.2445 C   0  0  1  0  0  0  0  0  0  0  0  0
    0.1366    0.8185   -0.4464 H   0  0  0  0  0  0  0  0  0  0  0  0
    0.3851    0.4798    1.6837 C   0  0  0  0  0  0  0  0  0  0  0  0
    0.2171   -0.3257    2.4043 H   0  0  0  0  0  0  0  0  0  0  0  0
    1.4209    0.8114    1.7925 H   0  0  0  0  0  0  0  0  0  0  0  0
   -0.5078    1.6745    2.0185 C   0  0  0  0  0  0  0  0  0  0  0  0
   -0.8683    2.4429    1.0904 O   0  5  0  0  0  0  0  0  0  0  0  0
   -0.9167    1.7559    3.2013 O   0  0  0  0  0  0  0  0  0  0  0  0
    1.3656   -0.8803   -0.2454 C   0  0  0  0  0  0  0  0  0  0  0  0
    2.4615   -0.3440   -0.3850 O   0  0  0  0  0  0  0  0  0  0  0  0
    1.2486   -2.1907   -0.6695 N   0  0  0  0  0  0  0  0  0  0  0  0
    0.4210   -2.6673   -0.3061 H   0  0  0  0  0  0  0  0  0  0  0  0
    2.3882   -3.0097   -1.0546 C   0  0  0  0  0  0  0  0  0  0  0  0
    3.0820   -3.1183   -0.2150 H   0  0  0  0  0  0  0  0  0  0  0  0
    2.0477   -4.0045   -1.3563 H   0  0  0  0  0  0  0  0  0  0  0  0
    2.9191   -2.5573   -1.8983 H   0  0  0  0  0  0  0  0  0  0  0  0
  1  2  1  0  0  0  0
  2  3  1  0  0  0  0
  2  4  1  0  0  0  0
  2  5  1  0  0  0  0
  5  6  2  0  0  0  0
  5  7  1  0  0  0  0
  7  8  1  0  0  0  0
  7  9  1  0  0  0  0
  9 10  1  0  0  0  0
  9 11  1  0  0  0  0
  9 17  1  0  0  0  0
 11 12  1  0  0  0  0
 11 13  1  0  0  0  0
 11 14  1  0  0  0  0
 14 15  1  0  0  0  0
 14 16  2  0  0  0  0
 17 18  2  0  0  0  0
 17 19  1  0  0  0  0
 19 20  1  0  0  0  0
 19 21  1  0  0  0  0
 21 22  1  0  0  0  0
 21 23  1  0  0  0  0
 21 24  1  0  0  0  0
M  CHG  1  15  -1
M  END
$$$$

  -OEChem-01062216073D

 24 23  0     1  0  0  0  0  0999 V2000
   -3.2192   -3.0735    1.3569 H   0  0  0  0  0  0  0  0  0  0  0  0
   -3.0545   -2.0592    0.9829 C   0  0  0  0  0  0  0  0  0  0  0  0
   -3.3816   -1.3473    1.7459 H   0  0  0  0  0  0  0  0  0  0  0  0
   -3.6520   -1.9133    0.0798 H   0  0  0  0  0  0  0  0  0  0  0  0
   -1.5837   -1.8425    0.6745 C   0  0  0  0  0  0  0  0  0  0  0  0
   -0.8130   -2.7825    0.7832 O   0  0  0  0  0  0  0  0  0  0  0  0
   -1.1818   -0.5968    0.2373 N   0  0  0  0  0  0  0  0  0  0  0  0
   -1.9150    0.1090    0.2919 H   0  0  0  0  0  0  0  0  0  0  0  0
    0.1727   -0.0041    0.2395 C   0  0  1  0  0  0  0  0  0  0  0  0
    0.1664    0.8527   -0.4419 H   0  0  0  0  0  0  0  0  0  0  0  0
    0.3691    0.4894    1.6907 C   0  0  0  0  0  0  0  0  0  0  0  0
    0.1947   -0.3272    2.3973 H   0  0  0  0  0  0  0  0  0  0  0  0
    1.3984    0.8303    1.8267 H   0  0  0  0  0  0  0  0  0  0  0  0
   -0.5408    1.6718    2.0214 C   0  0  0  0  0  0  0  0  0  0  0  0
   -0.8881    2.4482    1.0952 O   0  5  0  0  0  0  0  0  0  0  0  0
   -0.9872    1.7258    3.1920 O   0  0  0  0  0  0  0  0  0  0  0  0
    1.3791   -0.8602   -0.2467 C   0  0  0  0  0  0  0  0  0  0  0  0
    2.5221   -0.4181   -0.1665 O   0  0  0  0  0  0  0  0  0  0  0  0
    1.1995   -2.0328   -0.9575 N   0  0  0  0  0  0  0  0  0  0  0  0
    0.3233   -2.5025   -0.7230 H   0  0  0  0  0  0  0  0  0  0  0  0
    2.3113   -2.8698   -1.3841 C   0  0  0  0  0  0  0  0  0  0  0  0
    2.8774   -3.2235   -0.5165 H   0  0  0  0  0  0  0  0  0  0  0  0
    1.9362   -3.7380   -1.9336 H   0  0  0  0  0  0  0  0  0  0  0  0
    2.9830   -2.3100   -2.0426 H   0  0  0  0  0  0  0  0  0  0  0  0
  1  2  1  0  0  0  0
  2  3  1  0  0  0  0
  2  4  1  0  0  0  0
  2  5  1  0  0  0  0
  5  6  2  0  0  0  0
  5  7  1  0  0  0  0
  7  8  1  0  0  0  0
  7  9  1  0  0  0  0
  9 10  1  0  0  0  0
  9 11  1  0  0  0  0
  9 17  1  0  0  0  0
 11 12  1  0  0  0  0
 11 13  1  0  0  0  0
 11 14  1  0  0  0  0
 14 15  1  0  0  0  0
 14 16  2  0  0  0  0
 17 18  2  0  0  0  0
 17 19  1  0  0  0  0
 19 20  1  0  0  0  0
 19 21  1  0  0  0  0
 21 22  1  0  0  0  0
 21 23  1  0  0  0  0
 21 24  1  0  0  0  0
M  CHG  1  15  -1
M  END
$$$$

  -OEChem-01062216073D

 24 23  0     1  0  0  0  0  0999 V2000
   -3.1020   -3.1160    1.3465 H   0  0  0  0  0  0  0  0  0  0  0  0
   -2.9701   -2.0880    0.9976 C   0  0  0  0  0  0  0  0  0  0  0  0
   -3.2638   -1.4051    1.7997 H   0  0  0  0  0  0  0  0  0  0  0  0
   -3.6166   -1.9212    0.1327 H   0  0  0  0  0  0  0  0  0  0  0  0
   -1.5208   -1.8419    0.6195 C   0  0  0  0  0  0  0  0  0  0  0  0
   -0.7378   -2.7777    0.6244 O   0  0  0  0  0  0  0  0  0  0  0  0
   -1.1518   -0.5796    0.2030 N   0  0  0  0  0  0  0  0  0  0  0  0
   -1.8914    0.1144    0.3073 H   0  0  0  0  0  0  0  0  0  0  0  0
    0.1954    0.0249    0.2452 C   0  0  1  0  0  0  0  0  0  0  0  0
    0.2052    0.8880   -0.4278 H   0  0  0  0  0  0  0  0  0  0  0  0
    0.3557    0.5060    1.7054 C   0  0  0  0  0  0  0  0  0  0  0  0
    0.1753   -0.3186    2.4011 H   0  0  0  0  0  0  0  0  0  0  0  0
    1.3778    0.8573    1.8664 H   0  0  0  0  0  0  0  0  0  0  0  0
   -0.5722    1.6770    2.0251 C   0  0  0  0  0  0  0  0  0  0  0  0
   -0.9044    2.4576    1.0971 O   0  5  0  0  0  0  0  0  0  0  0  0
   -1.0572    1.7088    3.1810 O   0  0  0  0  0  0  0  0  0  0  0  0
    1.3933   -0.8448   -0.2341 C   0  0  0  0  0  0  0  0  0  0  0  0
    2.5489   -0.5594    0.0690 O   0  0  0  0  0  0  0  0  0  0  0  0
    1.2012   -1.8119   -1.2047 N   0  0  0  0  0  0  0  0  0  0  0  0
    0.2680   -2.2189   -1.1612 H   0  0  0  0  0  0  0  0  0  0  0  0
    2.2791   -2.6747   -1.6653 C   0  0  0  0  0  0  0  0  0  0  0  0
    2.6841   -3.2575   -0.8317 H   0  0  0  0  0  0  0  0  0  0  0  0
    1.9046   -3.3666   -2.4251 H   0  0  0  0  0  0  0  0  0  0  0  0
    3.0848   -2.0803   -2.1079 H   0  0  0  0  0  0  0  0  0  0  0  0
  1  2  1  0  0  0  0
  2  3  1  0  0  0  0
  2  4  1  0  0  0  0
  2  5  1  0  0  0  0
  5  6  2  0  0  0  0
  5  7  1  0  0  0  0
  7  8  1  0  0  0  0
  7  9  1  0  0  0  0
  9 10  1  0  0  0  0
  9 11  1  0  0  0  0
  9 17  1  0  0  0  0
 11 12  1  0  0  0  0
 11 13  1  0  0  0  0
 11 14  1  0  0  0  0
 14 15  1  0  0  0  0
 14 16  2  0  0  0  0
 17 18  2  0  0  0  0
 17 19  1  0  0  0  0
 19 20  1  0  0  0  0
 19 21  1  0  0  0  0
 21 22  1  0  0  0  0
 21 23  1  0  0  0  0
 21 24  1  0  0  0  0
M  CHG  1  15  -1
M  END
$$$$

  -OEChem-01062216073D

 24 23  0     1  0  0  0  0  0999 V2000
   -3.0039   -3.1727    1.3055 H   0  0  0  0  0  0  0  0  0  0  0  0
   -2.8962   -2.1321    0.9874 C   0  0  0  0  0  0  0  0  0  0  0  0
   -3.1875   -1.4805    1.8157 H   0  0  0  0  0  0  0  0  0  0  0  0
   -3.5604   -1.9499    0.1394 H   0  0  0  0  0  0  0  0  0  0  0  0
   -1.4581   -1.8481    0.5929 C   0  0  0  0  0  0  0  0  0  0  0  0
   -0.6543   -2.7654    0.5716 O   0  0  0  0  0  0  0  0  0  0  0  0
   -1.1223   -0.5723    0.1887 N   0  0  0  0  0  0  0  0  0  0  0  0
   -1.8739    0.1048    0.3140 H   0  0  0  0  0  0  0  0  0  0  0  0
    0.2143    0.0494    0.2577 C   0  0  1  0  0  0  0  0  0  0  0  0
    0.2296    0.9145   -0.4126 H   0  0  0  0  0  0  0  0  0  0  0  0
    0.3513    0.5320    1.7195 C   0  0  0  0  0  0  0  0  0  0  0  0
    0.1725   -0.2947    2.4130 H   0  0  0  0  0  0  0  0  0  0  0  0
    1.3675    0.8955    1.8912 H   0  0  0  0  0  0  0  0  0  0  0  0
   -0.5940    1.6922    2.0267 C   0  0  0  0  0  0  0  0  0  0  0  0
   -0.9223    2.4676    1.0927 O   0  5  0  0  0  0  0  0  0  0  0  0
   -1.0928    1.7225    3.1766 O   0  0  0  0  0  0  0  0  0  0  0  0
    1.4053   -0.8279   -0.2194 C   0  0  0  0  0  0  0  0  0  0  0  0
    2.5225   -0.7495    0.2856 O   0  0  0  0  0  0  0  0  0  0  0  0
    1.2700   -1.5458   -1.3948 N   0  0  0  0  0  0  0  0  0  0  0  0
    0.3054   -1.7758   -1.6145 H   0  0  0  0  0  0  0  0  0  0  0  0
    2.3050   -2.4475   -1.8779 C   0  0  0  0  0  0  0  0  0  0  0  0
    2.4930   -3.2388   -1.1450 H   0  0  0  0  0  0  0  0  0  0  0  0
    1.9898   -2.9101   -2.8176 H   0  0  0  0  0  0  0  0  0  0  0  0
    3.2369   -1.9021   -2.0588 H   0  0  0  0  0  0  0  0  0  0  0  0
  1  2  1  0  0  0  0
  2  3  1  0  0  0  0
  2  4  1  0  0  0  0
  2  5  1  0  0  0  0
  5  6  2  0  0  0  0
  5  7  1  0  0  0  0
  7  8  1  0  0  0  0
  7  9  1  0  0  0  0
  9 10  1  0  0  0  0
  9 11  1  0  0  0  0
  9 17  1  0  0  0  0
 11 12  1  0  0  0  0
 11 13  1  0  0  0  0
 11 14  1  0  0  0  0
 14 15  1  0  0  0  0
 14 16  2  0  0  0  0
 17 18  2  0  0  0  0
 17 19  1  0  0  0  0
 19 20  1  0  0  0  0
 19 21  1  0  0  0  0
 21 22  1  0  0  0  0
 21 23  1  0  0  0  0
 21 24  1  0  0  0  0
M  CHG  1  15  -1
M  END
$$$$

  -OEChem-01062216073D

 24 23  0     1  0  0  0  0  0999 V2000
   -2.9630   -3.2005    1.2975 H   0  0  0  0  0  0  0  0  0  0  0  0
   -2.8664   -2.1592    0.9780 C   0  0  0  0  0  0  0  0  0  0  0  0
   -3.1683   -1.5096    1.8042 H   0  0  0  0  0  0  0  0  0  0  0  0
   -3.5299   -1.9861    0.1274 H   0  0  0  0  0  0  0  0  0  0  0  0
   -1.4303   -1.8595    0.5878 C   0  0  0  0  0  0  0  0  0  0  0  0
   -0.6186   -2.7697    0.5630 O   0  0  0  0  0  0  0  0  0  0  0  0
   -1.1084   -0.5787    0.1874 N   0  0  0  0  0  0  0  0  0  0  0  0
   -1.8664    0.0902    0.3161 H   0  0  0  0  0  0  0  0  0  0  0  0
    0.2222    0.0505    0.2712 C   0  0  1  0  0  0  0  0  0  0  0  0
    0.2418    0.9137   -0.4013 H   0  0  0  0  0  0  0  0  0  0  0  0
    0.3493    0.5445    1.7298 C   0  0  0  0  0  0  0  0  0  0  0  0
    0.1676   -0.2777    2.4281 H   0  0  0  0  0  0  0  0  0  0  0  0
    1.3645    0.9101    1.9033 H   0  0  0  0  0  0  0  0  0  0  0  0
   -0.6017    1.7039    2.0221 C   0  0  0  0  0  0  0  0  0  0  0  0
   -0.9258    2.4696    1.0784 O   0  5  0  0  0  0  0  0  0  0  0  0
   -1.1032    1.7485    3.1702 O   0  0  0  0  0  0  0  0  0  0  0  0
    1.4101   -0.8322   -0.1992 C   0  0  0  0  0  0  0  0  0  0  0  0
    2.4416   -0.9650    0.4545 O   0  0  0  0  0  0  0  0  0  0  0  0
    1.4019   -1.2867   -1.5066 N   0  0  0  0  0  0  0  0  0  0  0  0
    0.4846   -1.3031   -1.9399 H   0  0  0  0  0  0  0  0  0  0  0  0
    2.4277   -2.1744   -2.0335 C   0  0  0  0  0  0  0  0  0  0  0  0
    2.4506   -3.1097   -1.4649 H   0  0  0  0  0  0  0  0  0  0  0  0
    2.2188   -2.4083   -3.0814 H   0  0  0  0  0  0  0  0  0  0  0  0
    3.4126   -1.6999   -1.9764 H   0  0  0  0  0  0  0  0  0  0  0  0
  1  2  1  0  0  0  0
  2  3  1  0  0  0  0
  2  4  1  0  0  0  0
  2  5  1  0  0  0  0
  5  6  2  0  0  0  0
  5  7  1  0  0  0  0
  7  8  1  0  0  0  0
  7  9  1  0  0  0  0
  9 10  1  0  0  0  0
  9 11  1  0  0  0  0
  9 17  1  0  0  0  0
 11 12  1  0  0  0  0
 11 13  1  0  0  0  0
 11 14  1  0  0  0  0
 14 15  1  0  0  0  0
 14 16  2  0  0  0  0
 17 18  2  0  0  0  0
 17 19  1  0  0  0  0
 19 20  1  0  0  0  0
 19 21  1  0  0  0  0
 21 22  1  0  0  0  0
 21 23  1  0  0  0  0
 21 24  1  0  0  0  0
M  CHG  1  15  -1
M  END
$$$$

  -OEChem-01062216073D

 24 23  0     1  0  0  0  0  0999 V2000
   -2.9739   -3.1946    1.3368 H   0  0  0  0  0  0  0  0  0  0  0  0
   -2.8760   -2.1584    1.0015 C   0  0  0  0  0  0  0  0  0  0  0  0
   -3.1618   -1.4955    1.8228 H   0  0  0  0  0  0  0  0  0  0  0  0
   -3.5506   -1.9933    0.1581 H   0  0  0  0  0  0  0  0  0  0  0  0
   -1.4437   -1.8729    0.5868 C   0  0  0  0  0  0  0  0  0  0  0  0
   -0.6437   -2.7922    0.5429 O   0  0  0  0  0  0  0  0  0  0  0  0
   -1.1171   -0.5950    0.1820 N   0  0  0  0  0  0  0  0  0  0  0  0
   -1.8713    0.0765    0.3175 H   0  0  0  0  0  0  0  0  0  0  0  0
    0.2153    0.0276    0.2676 C   0  0  1  0  0  0  0  0  0  0  0  0
    0.2388    0.8887   -0.4072 H   0  0  0  0  0  0  0  0  0  0  0  0
    0.3429    0.5322    1.7222 C   0  0  0  0  0  0  0  0  0  0  0  0
    0.1541   -0.2836    2.4261 H   0  0  0  0  0  0  0  0  0  0  0  0
    1.3614    0.8899    1.8930 H   0  0  0  0  0  0  0  0  0  0  0  0
   -0.6008    1.7000    2.0055 C   0  0  0  0  0  0  0  0  0  0  0  0
   -0.9182    2.4607    1.0553 O   0  5  0  0  0  0  0  0  0  0  0  0
   -1.0988    1.7613    3.1542 O   0  0  0  0  0  0  0  0  0  0  0  0
    1.4049   -0.8577   -0.1936 C   0  0  0  0  0  0  0  0  0  0  0  0
    2.3230   -1.1845    0.5541 O   0  0  0  0  0  0  0  0  0  0  0  0
    1.5763   -1.0547   -1.5535 N   0  0  0  0  0  0  0  0  0  0  0  0
    0.7628   -0.8637   -2.1284 H   0  0  0  0  0  0  0  0  0  0  0  0
    2.6506   -1.8642   -2.1094 C   0  0  0  0  0  0  0  0  0  0  0  0
    2.5743   -2.8962   -1.7520 H   0  0  0  0  0  0  0  0  0  0  0  0
    2.5908   -1.8679   -3.2017 H   0  0  0  0  0  0  0  0  0  0  0  0
    3.6256   -1.4595   -1.8197 H   0  0  0  0  0  0  0  0  0  0  0  0
  1  2  1  0  0  0  0
  2  3  1  0  0  0  0
  2  4  1  0  0  0  0
  2  5  1  0  0  0  0
  5  6  2  0  0  0  0
  5  7  1  0  0  0  0
  7  8  1  0  0  0  0
  7  9  1  0  0  0  0
  9 10  1  0  0  0  0
  9 11  1  0  0  0  0
  9 17  1  0  0  0  0
 11 12  1  0  0  0  0
 11 13  1  0  0  0  0
 11 14  1  0  0  0  0
 14 15  1  0  0  0  0
 14 16  2  0  0  0  0
 17 18  2  0  0  0  0
 17 19  1  0  0  0  0
 19 20  1  0  0  0  0
 19 21  1  0  0  0  0
 21 22  1  0  0  0  0
 21 23  1  0  0  0  0
 21 24  1  0  0  0  0
M  CHG  1  15  -1
M  END
$$$$

  -OEChem-01062216073D

 24 23  0     1  0  0  0  0  0999 V2000
   -3.0070   -3.1858    1.3646 H   0  0  0  0  0  0  0  0  0  0  0  0
   -2.8978   -2.1500    1.0315 C   0  0  0  0  0  0  0  0  0  0  0  0
   -3.1493   -1.4858    1.8631 H   0  0  0  0  0  0  0  0  0  0  0  0
   -3.5905   -1.9672    0.2067 H   0  0  0  0  0  0  0  0  0  0  0  0
   -1.4716   -1.8900    0.5806 C   0  0  0  0  0  0  0  0  0  0  0  0
   -0.6939   -2.8256    0.5036 O   0  0  0  0  0  0  0  0  0  0  0  0
   -1.1343   -0.6168    0.1707 N   0  0  0  0  0  0  0  0  0  0  0  0
   -1.8813    0.0607    0.3143 H   0  0  0  0  0  0  0  0  0  0  0  0
    0.2026   -0.0039    0.2516 C   0  0  1  0  0  0  0  0  0  0  0  0
    0.2239    0.8556   -0.4253 H   0  0  0  0  0  0  0  0  0  0  0  0
    0.3410    0.5086    1.7019 C   0  0  0  0  0  0  0  0  0  0  0  0
    0.1455   -0.3008    2.4111 H   0  0  0  0  0  0  0  0  0  0  0  0
    1.3647    0.8547    1.8657 H   0  0  0  0  0  0  0  0  0  0  0  0
   -0.5907    1.6866    1.9827 C   0  0  0  0  0  0  0  0  0  0  0  0
   -0.9051    2.4440    1.0287 O   0  5  0  0  0  0  0  0  0  0  0  0
   -1.0783    1.7640    3.1348 O   0  0  0  0  0  0  0  0  0  0  0  0
    1.3976   -0.8855   -0.2035 C   0  0  0  0  0  0  0  0  0  0  0  0
    2.1858   -1.3991    0.5858 O   0  0  0  0  0  0  0  0  0  0  0  0
    1.7698   -0.8351   -1.5368 N   0  0  0  0  0  0  0  0  0  0  0  0
    1.0956   -0.4279   -2.1759 H   0  0  0  0  0  0  0  0  0  0  0  0
    2.9144   -1.5524   -2.0794 C   0  0  0  0  0  0  0  0  0  0  0  0
    2.8008   -2.6293   -1.9194 H   0  0  0  0  0  0  0  0  0  0  0  0
    2.9980   -1.3670   -3.1542 H   0  0  0  0  0  0  0  0  0  0  0  0
    3.8393   -1.2180   -1.5986 H   0  0  0  0  0  0  0  0  0  0  0  0
  1  2  1  0  0  0  0
  2  3  1  0  0  0  0
  2  4  1  0  0  0  0
  2  5  1  0  0  0  0
  5  6  2  0  0  0  0
  5  7  1  0  0  0  0
  7  8  1  0  0  0  0
  7  9  1  0  0  0  0
  9 10  1  0  0  0  0
  9 11  1  0  0  0  0
  9 17  1  0  0  0  0
 11 12  1  0  0  0  0
 11 13  1  0  0  0  0
 11 14  1  0  0  0  0
 14 15  1  0  0  0  0
 14 16  2  0  0  0  0
 17 18  2  0  0  0  0
 17 19  1  0  0  0  0
 19 20  1  0  0  0  0
 19 21  1  0  0  0  0
 21 22  1  0  0  0  0
 21 23  1  0  0  0  0
 21 24  1  0  0  0  0
M  CHG  1  15  -1
M  END
$$$$

  -OEChem-01062216073D

 24 23  0     1  0  0  0  0  0999 V2000
   -3.0452   -3.1675    1.4074 H   0  0  0  0  0  0  0  0  0  0  0  0
   -2.9251   -2.1349    1.0683 C   0  0  0  0  0  0  0  0  0  0  0  0
   -3.1310   -1.4645    1.9072 H   0  0  0  0  0  0  0  0  0  0  0  0
   -3.6435   -1.9380    0.2691 H   0  0  0  0  0  0  0  0  0  0  0  0
   -1.5106   -1.9076    0.5656 C   0  0  0  0  0  0  0  0  0  0  0  0
   -0.7677   -2.8651    0.4394 O   0  0  0  0  0  0  0  0  0  0  0  0
   -1.1583   -0.6406    0.1495 N   0  0  0  0  0  0  0  0  0  0  0  0
   -1.8932    0.0462    0.3092 H   0  0  0  0  0  0  0  0  0  0  0  0
    0.1852   -0.0409    0.2186 C   0  0  1  0  0  0  0  0  0  0  0  0
    0.1992    0.8178   -0.4591 H   0  0  0  0  0  0  0  0  0  0  0  0
    0.3447    0.4734    1.6660 C   0  0  0  0  0  0  0  0  0  0  0  0
    0.1479   -0.3327    2.3791 H   0  0  0  0  0  0  0  0  0  0  0  0
    1.3744    0.8067    1.8181 H   0  0  0  0  0  0  0  0  0  0  0  0
   -0.5698    1.6623    1.9561 C   0  0  0  0  0  0  0  0  0  0  0  0
   -0.8855    2.4214    1.0040 O   0  5  0  0  0  0  0  0  0  0  0  0
   -1.0389    1.7512    3.1148 O   0  0  0  0  0  0  0  0  0  0  0  0
    1.3862   -0.9160   -0.2351 C   0  0  0  0  0  0  0  0  0  0  0  0
    2.0405   -1.6017    0.5452 O   0  0  0  0  0  0  0  0  0  0  0  0
    1.9618   -0.6440   -1.4662 N   0  0  0  0  0  0  0  0  0  0  0  0
    1.4543   -0.0159   -2.0800 H   0  0  0  0  0  0  0  0  0  0  0  0
    3.1940   -1.2586   -1.9390 C   0  0  0  0  0  0  0  0  0  0  0  0
    3.1011   -2.3495   -1.9407 H   0  0  0  0  0  0  0  0  0  0  0  0
    3.4110   -0.9280   -2.9588 H   0  0  0  0  0  0  0  0  0  0  0  0
    4.0337   -0.9746   -1.2965 H   0  0  0  0  0  0  0  0  0  0  0  0
  1  2  1  0  0  0  0
  2  3  1  0  0  0  0
  2  4  1  0  0  0  0
  2  5  1  0  0  0  0
  5  6  2  0  0  0  0
  5  7  1  0  0  0  0
  7  8  1  0  0  0  0
  7  9  1  0  0  0  0
  9 10  1  0  0  0  0
  9 11  1  0  0  0  0
  9 17  1  0  0  0  0
 11 12  1  0  0  0  0
 11 13  1  0  0  0  0
 11 14  1  0  0  0  0
 14 15  1  0  0  0  0
 14 16  2  0  0  0  0
 17 18  2  0  0  0  0
 17 19  1  0  0  0  0
 19 20  1  0  0  0  0
 19 21  1  0  0  0  0
 21 22  1  0  0  0  0
 21 23  1  0  0  0  0
 21 24  1  0  0  0  0
M  CHG  1  15  -1
M  END
$$$$

  -OEChem-01062216073D

 24 23  0     1  0  0  0  0  0999 V2000
   -3.0813   -3.1286    1.4969 H   0  0  0  0  0  0  0  0  0  0  0  0
   -2.9625   -2.1247    1.0803 C   0  0  0  0  0  0  0  0  0  0  0  0
   -3.1764   -1.3935    1.8646 H   0  0  0  0  0  0  0  0  0  0  0  0
   -3.6756   -1.9919    0.2635 H   0  0  0  0  0  0  0  0  0  0  0  0
   -1.5458   -1.9320    0.5695 C   0  0  0  0  0  0  0  0  0  0  0  0
   -0.8331   -2.9105    0.4383 O   0  0  0  0  0  0  0  0  0  0  0  0
   -1.1720   -0.6737    0.1452 N   0  0  0  0  0  0  0  0  0  0  0  0
   -1.8981    0.0233    0.2991 H   0  0  0  0  0  0  0  0  0  0  0  0
    0.1775   -0.0833    0.1888 C   0  0  1  0  0  0  0  0  0  0  0  0
    0.1724    0.7698   -0.4959 H   0  0  0  0  0  0  0  0  0  0  0  0
    0.3678    0.4400    1.6282 C   0  0  0  0  0  0  0  0  0  0  0  0
    0.1762   -0.3601    2.3494 H   0  0  0  0  0  0  0  0  0  0  0  0
    1.4030    0.7650    1.7596 H   0  0  0  0  0  0  0  0  0  0  0  0
   -0.5302    1.6388    1.9281 C   0  0  0  0  0  0  0  0  0  0  0  0
   -0.8568    2.3942    0.9768 O   0  5  0  0  0  0  0  0  0  0  0  0
   -0.9657    1.7481    3.0979 O   0  0  0  0  0  0  0  0  0  0  0  0
    1.3902   -0.9394   -0.2713 C   0  0  0  0  0  0  0  0  0  0  0  0
    1.9185   -1.7897    0.4376 O   0  0  0  0  0  0  0  0  0  0  0  0
    2.1422   -0.4688   -1.3368 N   0  0  0  0  0  0  0  0  0  0  0  0
    1.7887    0.3520   -1.8172 H   0  0  0  0  0  0  0  0  0  0  0  0
    3.4428   -1.0040   -1.7146 C   0  0  0  0  0  0  0  0  0  0  0  0
    3.3750   -2.0813   -1.8981 H   0  0  0  0  0  0  0  0  0  0  0  0
    3.7957   -0.5202   -2.6299 H   0  0  0  0  0  0  0  0  0  0  0  0
    4.1754   -0.8244   -0.9212 H   0  0  0  0  0  0  0  0  0  0  0  0
  1  2  1  0  0  0  0
  2  3  1  0  0  0  0
  2  4  1  0  0  0  0
  2  5  1  0  0  0  0
  5  6  2  0  0  0  0
  5  7  1  0  0  0  0
  7  8  1  0  0  0  0
  7  9  1  0  0  0  0
  9 10  1  0  0  0  0
  9 11  1  0  0  0  0
  9 17  1  0  0  0  0
 11 12  1  0  0  0  0
 11 13  1  0  0  0  0
 11 14  1  0  0  0  0
 14 15  1  0  0  0  0
 14 16  2  0  0  0  0
 17 18  2  0  0  0  0
 17 19  1  0  0  0  0
 19 20  1  0  0  0  0
 19 21  1  0  0  0  0
 21 22  1  0  0  0  0
 21 23  1  0  0  0  0
 21 24  1  0  0  0  0
M  CHG  1  15  -1
M  END
$$$$

  -OEChem-01062216073D

 24 23  0     1  0  0  0  0  0999 V2000
   -3.2232   -3.1434    1.4027 H   0  0  0  0  0  0  0  0  0  0  0  0
   -3.0416   -2.1460    0.9923 C   0  0  0  0  0  0  0  0  0  0  0  0
   -3.3556   -1.4020    1.7292 H   0  0  0  0  0  0  0  0  0  0  0  0
   -3.6359   -2.0229    0.0840 H   0  0  0  0  0  0  0  0  0  0  0  0
   -1.5671   -1.9668    0.6754 C   0  0  0  0  0  0  0  0  0  0  0  0
   -0.8358   -2.9322    0.7836 O   0  0  0  0  0  0  0  0  0  0  0  0
   -1.1573   -0.7261    0.2293 N   0  0  0  0  0  0  0  0  0  0  0  0
   -1.8926   -0.0245    0.2780 H   0  0  0  0  0  0  0  0  0  0  0  0
    0.1928   -0.1315    0.2116 C   0  0  1  0  0  0  0  0  0  0  0  0
    0.1410    0.6986   -0.4986 H   0  0  0  0  0  0  0  0  0  0  0  0
    0.4349    0.4397    1.6237 C   0  0  0  0  0  0  0  0  0  0  0  0
    0.2661   -0.3372    2.3753 H   0  0  0  0  0  0  0  0  0  0  0  0
    1.4742    0.7665    1.7106 H   0  0  0  0  0  0  0  0  0  0  0  0
   -0.4523    1.6489    1.9162 C   0  0  0  0  0  0  0  0  0  0  0  0
   -0.8132    2.3712    0.9511 O   0  5  0  0  0  0  0  0  0  0  0  0
   -0.8135    1.8231    3.1031 O   0  0  0  0  0  0  0  0  0  0  0  0
    1.4275   -0.9439   -0.2708 C   0  0  0  0  0  0  0  0  0  0  0  0
    1.8243   -1.9854    0.2352 O   0  0  0  0  0  0  0  0  0  0  0  0
    2.3051   -0.3027   -1.1319 N   0  0  0  0  0  0  0  0  0  0  0  0
    2.0657    0.6484   -1.3942 H   0  0  0  0  0  0  0  0  0  0  0  0
    3.6244   -0.8152   -1.4758 C   0  0  0  0  0  0  0  0  0  0  0  0
    3.5433   -1.8117   -1.9222 H   0  0  0  0  0  0  0  0  0  0  0  0
    4.1078   -0.1516   -2.1987 H   0  0  0  0  0  0  0  0  0  0  0  0
    4.2556   -0.8763   -0.5834 H   0  0  0  0  0  0  0  0  0  0  0  0
  1  2  1  0  0  0  0
  2  3  1  0  0  0  0
  2  4  1  0  0  0  0
  2  5  1  0  0  0  0
  5  6  2  0  0  0  0
  5  7  1  0  0  0  0
  7  8  1  0  0  0  0
  7  9  1  0  0  0  0
  9 10  1  0  0  0  0
  9 11  1  0  0  0  0
  9 17  1  0  0  0  0
 11 12  1  0  0  0  0
 11 13  1  0  0  0  0
 11 14  1  0  0  0  0
 14 15  1  0  0  0  0
 14 16  2  0  0  0  0
 17 18  2  0  0  0  0
 17 19  1  0  0  0  0
 19 20  1  0  0  0  0
 19 21  1  0  0  0  0
 21 22  1  0  0  0  0
 21 23  1  0  0  0  0
 21 24  1  0  0  0  0
M  CHG  1  15  -1
M  END
$$$$

  -OEChem-01062216073D

 24 23  0     1  0  0  0  0  0999 V2000
   -3.1056   -3.3372    1.1284 H   0  0  0  0  0  0  0  0  0  0  0  0
   -2.9503   -2.3383    0.7114 C   0  0  0  0  0  0  0  0  0  0  0  0
   -3.6109   -1.6348    1.2244 H   0  0  0  0  0  0  0  0  0  0  0  0
   -3.2028   -2.3574   -0.3515 H   0  0  0  0  0  0  0  0  0  0  0  0
   -1.5037   -1.9128    0.8914 C   0  0  0  0  0  0  0  0  0  0  0  0
   -0.7696   -2.6170    1.5644 O   0  0  0  0  0  0  0  0  0  0  0  0
   -1.1267   -0.6749    0.4084 N   0  0  0  0  0  0  0  0  0  0  0  0
   -1.8821   -0.0746    0.0933 H   0  0  0  0  0  0  0  0  0  0  0  0
    0.2178   -0.0755    0.3824 C   0  0  1  0  0  0  0  0  0  0  0  0
    0.1675    0.7149   -0.3723 H   0  0  0  0  0  0  0  0  0  0  0  0
    0.4822    0.5809    1.7522 C   0  0  0  0  0  0  0  0  0  0  0  0
    0.3104   -0.1465    2.5511 H   0  0  0  0  0  0  0  0  0  0  0  0
    1.5247    0.9021    1.8107 H   0  0  0  0  0  0  0  0  0  0  0  0
   -0.3908    1.8138    1.9851 C   0  0  0  0  0  0  0  0  0  0  0  0
   -0.7607    2.4805    0.9832 O   0  5  0  0  0  0  0  0  0  0  0  0
   -0.6557    2.1152    3.1725 O   0  0  0  0  0  0  0  0  0  0  0  0
    1.4363   -0.9188   -0.0854 C   0  0  0  0  0  0  0  0  0  0  0  0
    1.4125   -2.1266   -0.2905 O   0  0  0  0  0  0  0  0  0  0  0  0
    2.4746   -0.2226   -0.6842 N   0  0  0  0  0  0  0  0  0  0  0  0
    2.4720    0.7859   -0.5607 H   0  0  0  0  0  0  0  0  0  0  0  0
    3.6200   -0.8527   -1.3254 C   0  0  0  0  0  0  0  0  0  0  0  0
    3.2962   -1.4639   -2.1738 H   0  0  0  0  0  0  0  0  0  0  0  0
    4.3102   -0.0881   -1.6940 H   0  0  0  0  0  0  0  0  0  0  0  0
    4.1546   -1.4889   -0.6126 H   0  0  0  0  0  0  0  0  0  0  0  0
  1  2  1  0  0  0  0
  2  3  1  0  0  0  0
  2  4  1  0  0  0  0
  2  5  1  0  0  0  0
  5  6  2  0  0  0  0
  5  7  1  0  0  0  0
  7  8  1  0  0  0  0
  7  9  1  0  0  0  0
  9 10  1  0  0  0  0
  9 11  1  0  0  0  0
  9 17  1  0  0  0  0
 11 12  1  0  0  0  0
 11 13  1  0  0  0  0
 11 14  1  0  0  0  0
 14 15  1  0  0  0  0
 14 16  2  0  0  0  0
 17 18  2  0  0  0  0
 17 19  1  0  0  0  0
 19 20  1  0  0  0  0
 19 21  1  0  0  0  0
 21 22  1  0  0  0  0
 21 23  1  0  0  0  0
 21 24  1  0  0  0  0
M  CHG  1  15  -1
M  END
$$$$

  -OEChem-01062216073D

 24 23  0     1  0  0  0  0  0999 V2000
   -3.0609   -3.3427    1.1332 H   0  0  0  0  0  0  0  0  0  0  0  0
   -2.9270   -2.3430    0.7108 C   0  0  0  0  0  0  0  0  0  0  0  0
   -3.5947   -1.6491    1.2275 H   0  0  0  0  0  0  0  0  0  0  0  0
   -3.1896   -2.3712   -0.3493 H   0  0  0  0  0  0  0  0  0  0  0  0
   -1.4859   -1.8926    0.8750 C   0  0  0  0  0  0  0  0  0  0  0  0
   -0.7260   -2.5862    1.5326 O   0  0  0  0  0  0  0  0  0  0  0  0
   -1.1274   -0.6504    0.3891 N   0  0  0  0  0  0  0  0  0  0  0  0
   -1.8846   -0.0582    0.0634 H   0  0  0  0  0  0  0  0  0  0  0  0
    0.2160   -0.0495    0.3786 C   0  0  1  0  0  0  0  0  0  0  0  0
    0.1895    0.7479   -0.3702 H   0  0  0  0  0  0  0  0  0  0  0  0
    0.4667    0.5886    1.7619 C   0  0  0  0  0  0  0  0  0  0  0  0
    0.2901   -0.1498    2.5494 H   0  0  0  0  0  0  0  0  0  0  0  0
    1.5065    0.9138    1.8383 H   0  0  0  0  0  0  0  0  0  0  0  0
   -0.4112    1.8154    2.0048 C   0  0  0  0  0  0  0  0  0  0  0  0
   -0.7748    2.4964    1.0108 O   0  5  0  0  0  0  0  0  0  0  0  0
   -0.6833    2.0987    3.1951 O   0  0  0  0  0  0  0  0  0  0  0  0
    1.4165   -0.9220   -0.0789 C   0  0  0  0  0  0  0  0  0  0  0  0
    1.2910   -2.0417   -0.5656 O   0  0  0  0  0  0  0  0  0  0  0  0
    2.5959   -0.2585   -0.3776 N   0  0  0  0  0  0  0  0  0  0  0  0
    2.6689    0.7009   -0.0512 H   0  0  0  0  0  0  0  0  0  0  0  0
    3.7518   -0.8833   -1.0041 C   0  0  0  0  0  0  0  0  0  0  0  0
    3.5019   -1.2258   -2.0133 H   0  0  0  0  0  0  0  0  0  0  0  0
    4.5730   -0.1643   -1.0763 H   0  0  0  0  0  0  0  0  0  0  0  0
    4.0914   -1.7391   -0.4118 H   0  0  0  0  0  0  0  0  0  0  0  0
  1  2  1  0  0  0  0
  2  3  1  0  0  0  0
  2  4  1  0  0  0  0
  2  5  1  0  0  0  0
  5  6  2  0  0  0  0
  5  7  1  0  0  0  0
  7  8  1  0  0  0  0
  7  9  1  0  0  0  0
  9 10  1  0  0  0  0
  9 11  1  0  0  0  0
  9 17  1  0  0  0  0
 11 12  1  0  0  0  0
 11 13  1  0  0  0  0
 11 14  1  0  0  0  0
 14 15  1  0  0  0  0
 14 16  2  0  0  0  0
 17 18  2  0  0  0  0
 17 19  1  0  0  0  0
 19 20  1  0  0  0  0
 19 21  1  0  0  0  0
 21 22  1  0  0  0  0
 21 23  1  0  0  0  0
 21 24  1  0  0  0  0
M  CHG  1  15  -1
M  END
$$$$

  -OEChem-01062216073D

 24 23  0     1  0  0  0  0  0999 V2000
   -2.9482   -3.3538    1.1931 H   0  0  0  0  0  0  0  0  0  0  0  0
   -2.8701   -2.3346    0.8047 C   0  0  0  0  0  0  0  0  0  0  0  0
   -3.4123   -1.6607    1.4728 H   0  0  0  0  0  0  0  0  0  0  0  0
   -3.3258   -2.2995   -0.1876 H   0  0  0  0  0  0  0  0  0  0  0  0
   -1.4133   -1.9150    0.7194 C   0  0  0  0  0  0  0  0  0  0  0  0
   -0.5503   -2.6986    1.0861 O   0  0  0  0  0  0  0  0  0  0  0  0
   -1.1196   -0.6397    0.2775 N   0  0  0  0  0  0  0  0  0  0  0  0
   -1.9088   -0.0054    0.2071 H   0  0  0  0  0  0  0  0  0  0  0  0
    0.2079   -0.0079    0.3118 C   0  0  1  0  0  0  0  0  0  0  0  0
    0.1167    0.9533   -0.2029 H   0  0  0  0  0  0  0  0  0  0  0  0
    0.5984    0.2722    1.7831 C   0  0  0  0  0  0  0  0  0  0  0  0
    0.5218   -0.6416    2.3782 H   0  0  0  0  0  0  0  0  0  0  0  0
    1.6337    0.6136    1.8355 H   0  0  0  0  0  0  0  0  0  0  0  0
   -0.2628    1.3668    2.4116 C   0  0  0  0  0  0  0  0  0  0  0  0
   -0.7366    2.2610    1.6642 O   0  5  0  0  0  0  0  0  0  0  0  0
   -0.4224    1.3243    3.6541 O   0  0  0  0  0  0  0  0  0  0  0  0
    1.3180   -0.7359   -0.4924 C   0  0  0  0  0  0  0  0  0  0  0  0
    1.0606   -1.5638   -1.3629 O   0  0  0  0  0  0  0  0  0  0  0  0
    2.5931   -0.1947   -0.4985 N   0  0  0  0  0  0  0  0  0  0  0  0
    2.7838    0.5160    0.2015 H   0  0  0  0  0  0  0  0  0  0  0  0
    3.6917   -0.7101   -1.3022 C   0  0  0  0  0  0  0  0  0  0  0  0
    3.4556   -0.6338   -2.3684 H   0  0  0  0  0  0  0  0  0  0  0  0
    4.6008   -0.1337   -1.1074 H   0  0  0  0  0  0  0  0  0  0  0  0
    3.8857   -1.7589   -1.0556 H   0  0  0  0  0  0  0  0  0  0  0  0
  1  2  1  0  0  0  0
  2  3  1  0  0  0  0
  2  4  1  0  0  0  0
  2  5  1  0  0  0  0
  5  6  2  0  0  0  0
  5  7  1  0  0  0  0
  7  8  1  0  0  0  0
  7  9  1  0  0  0  0
  9 10  1  0  0  0  0
  9 11  1  0  0  0  0
  9 17  1  0  0  0  0
 11 12  1  0  0  0  0
 11 13  1  0  0  0  0
 11 14  1  0  0  0  0
 14 15  1  0  0  0  0
 14 16  2  0  0  0  0
 17 18  2  0  0  0  0
 17 19  1  0  0  0  0
 19 20  1  0  0  0  0
 19 21  1  0  0  0  0
 21 22  1  0  0  0  0
 21 23  1  0  0  0  0
 21 24  1  0  0  0  0
M  CHG  1  15  -1
M  END
$$$$

  -OEChem-01062216073D

 24 23  0     1  0  0  0  0  0999 V2000
   -2.9007   -3.3528    1.1825 H   0  0  0  0  0  0  0  0  0  0  0  0
   -2.8385   -2.3299    0.8012 C   0  0  0  0  0  0  0  0  0  0  0  0
   -3.3720   -1.6658    1.4862 H   0  0  0  0  0  0  0  0  0  0  0  0
   -3.3144   -2.2893   -0.1814 H   0  0  0  0  0  0  0  0  0  0  0  0
   -1.3873   -1.8983    0.6900 C   0  0  0  0  0  0  0  0  0  0  0  0
   -0.5074   -2.6842    1.0102 O   0  0  0  0  0  0  0  0  0  0  0  0
   -1.1110   -0.6145    0.2636 N   0  0  0  0  0  0  0  0  0  0  0  0
   -1.9065    0.0144    0.2165 H   0  0  0  0  0  0  0  0  0  0  0  0
    0.2086    0.0313    0.3168 C   0  0  1  0  0  0  0  0  0  0  0  0
    0.1215    1.0002   -0.1847 H   0  0  0  0  0  0  0  0  0  0  0  0
    0.5794    0.2888    1.7985 C   0  0  0  0  0  0  0  0  0  0  0  0
    0.5110   -0.6364    2.3769 H   0  0  0  0  0  0  0  0  0  0  0  0
    1.6066    0.6495    1.8700 H   0  0  0  0  0  0  0  0  0  0  0  0
   -0.3029    1.3609    2.4358 C   0  0  0  0  0  0  0  0  0  0  0  0
   -0.7805    2.2633    1.7015 O   0  5  0  0  0  0  0  0  0  0  0  0
   -0.4798    1.2878    3.6745 O   0  0  0  0  0  0  0  0  0  0  0  0
    1.3119   -0.6999   -0.4952 C   0  0  0  0  0  0  0  0  0  0  0  0
    1.0402   -1.3432   -1.5066 O   0  0  0  0  0  0  0  0  0  0  0  0
    2.6441   -0.3872   -0.2806 N   0  0  0  0  0  0  0  0  0  0  0  0
    2.8504    0.1313    0.5677 H   0  0  0  0  0  0  0  0  0  0  0  0
    3.7427   -0.9682   -1.0380 C   0  0  0  0  0  0  0  0  0  0  0  0
    3.6509   -0.7172   -2.0995 H   0  0  0  0  0  0  0  0  0  0  0  0
    4.6975   -0.5788   -0.6726 H   0  0  0  0  0  0  0  0  0  0  0  0
    3.7466   -2.0576   -0.9294 H   0  0  0  0  0  0  0  0  0  0  0  0
  1  2  1  0  0  0  0
  2  3  1  0  0  0  0
  2  4  1  0  0  0  0
  2  5  1  0  0  0  0
  5  6  2  0  0  0  0
  5  7  1  0  0  0  0
  7  8  1  0  0  0  0
  7  9  1  0  0  0  0
  9 10  1  0  0  0  0
  9 11  1  0  0  0  0
  9 17  1  0  0  0  0
 11 12  1  0  0  0  0
 11 13  1  0  0  0  0
 11 14  1  0  0  0  0
 14 15  1  0  0  0  0
 14 16  2  0  0  0  0
 17 18  2  0  0  0  0
 17 19  1  0  0  0  0
 19 20  1  0  0  0  0
 19 21  1  0  0  0  0
 21 22  1  0  0  0  0
 21 23  1  0  0  0  0
 21 24  1  0  0  0  0
M  CHG  1  15  -1
M  END
$$$$

  -OEChem-01062216073D

 24 23  0     1  0  0  0  0  0999 V2000
   -2.8583   -3.3597    1.1583 H   0  0  0  0  0  0  0  0  0  0  0  0
   -2.8090   -2.3306    0.7919 C   0  0  0  0  0  0  0  0  0  0  0  0
   -3.3380   -1.6813    1.4943 H   0  0  0  0  0  0  0  0  0  0  0  0
   -3.2990   -2.2782   -0.1832 H   0  0  0  0  0  0  0  0  0  0  0  0
   -1.3628   -1.8851    0.6678 C   0  0  0  0  0  0  0  0  0  0  0  0
   -0.4701   -2.6698    0.9546 O   0  0  0  0  0  0  0  0  0  0  0  0
   -1.1005   -0.5945    0.2543 N   0  0  0  0  0  0  0  0  0  0  0  0
   -1.9019    0.0284    0.2212 H   0  0  0  0  0  0  0  0  0  0  0  0
    0.2116    0.0644    0.3255 C   0  0  1  0  0  0  0  0  0  0  0  0
    0.1249    1.0374   -0.1683 H   0  0  0  0  0  0  0  0  0  0  0  0
    0.5672    0.3106    1.8131 C   0  0  0  0  0  0  0  0  0  0  0  0
    0.5077   -0.6208    2.3827 H   0  0  0  0  0  0  0  0  0  0  0  0
    1.5881    0.6880    1.8938 H   0  0  0  0  0  0  0  0  0  0  0  0
   -0.3324    1.3663    2.4536 C   0  0  0  0  0  0  0  0  0  0  0  0
   -0.8148    2.2715    1.7262 O   0  5  0  0  0  0  0  0  0  0  0  0
   -0.5255    1.2707    3.6885 O   0  0  0  0  0  0  0  0  0  0  0  0
    1.3131   -0.6660   -0.4895 C   0  0  0  0  0  0  0  0  0  0  0  0
    1.0701   -1.1144   -1.6079 O   0  0  0  0  0  0  0  0  0  0  0  0
    2.6384   -0.6127   -0.0911 N   0  0  0  0  0  0  0  0  0  0  0  0
    2.7987   -0.3109    0.8651 H   0  0  0  0  0  0  0  0  0  0  0  0
    3.7187   -1.2724   -0.8088 C   0  0  0  0  0  0  0  0  0  0  0  0
    3.7959   -0.8820   -1.8286 H   0  0  0  0  0  0  0  0  0  0  0  0
    4.6701   -1.0950   -0.2990 H   0  0  0  0  0  0  0  0  0  0  0  0
    3.5435   -2.3521   -0.8540 H   0  0  0  0  0  0  0  0  0  0  0  0
  1  2  1  0  0  0  0
  2  3  1  0  0  0  0
  2  4  1  0  0  0  0
  2  5  1  0  0  0  0
  5  6  2  0  0  0  0
  5  7  1  0  0  0  0
  7  8  1  0  0  0  0
  7  9  1  0  0  0  0
  9 10  1  0  0  0  0
  9 11  1  0  0  0  0
  9 17  1  0  0  0  0
 11 12  1  0  0  0  0
 11 13  1  0  0  0  0
 11 14  1  0  0  0  0
 14 15  1  0  0  0  0
 14 16  2  0  0  0  0
 17 18  2  0  0  0  0
 17 19  1  0  0  0  0
 19 20  1  0  0  0  0
 19 21  1  0  0  0  0
 21 22  1  0  0  0  0
 21 23  1  0  0  0  0
 21 24  1  0  0  0  0
M  CHG  1  15  -1
M  END
$$$$

  -OEChem-01062216073D

 24 23  0     1  0  0  0  0  0999 V2000
   -2.8271   -3.3522    1.1596 H   0  0  0  0  0  0  0  0  0  0  0  0
   -2.7870   -2.3237    0.7903 C   0  0  0  0  0  0  0  0  0  0  0  0
   -3.3085   -1.6749    1.4989 H   0  0  0  0  0  0  0  0  0  0  0  0
   -3.2911   -2.2751   -0.1778 H   0  0  0  0  0  0  0  0  0  0  0  0
   -1.3445   -1.8734    0.6450 C   0  0  0  0  0  0  0  0  0  0  0  0
   -0.4438   -2.6594    0.9021 O   0  0  0  0  0  0  0  0  0  0  0  0
   -1.0900   -0.5793    0.2382 N   0  0  0  0  0  0  0  0  0  0  0  0
   -1.8941    0.0412    0.2241 H   0  0  0  0  0  0  0  0  0  0  0  0
    0.2163    0.0882    0.3254 C   0  0  1  0  0  0  0  0  0  0  0  0
    0.1311    1.0652   -0.1609 H   0  0  0  0  0  0  0  0  0  0  0  0
    0.5608    0.3207    1.8171 C   0  0  0  0  0  0  0  0  0  0  0  0
    0.5056   -0.6170    2.3766 H   0  0  0  0  0  0  0  0  0  0  0  0
    1.5793    0.7055    1.9030 H   0  0  0  0  0  0  0  0  0  0  0  0
   -0.3502    1.3621    2.4643 C   0  0  0  0  0  0  0  0  0  0  0  0
   -0.8362    2.2723    1.7461 O   0  5  0  0  0  0  0  0  0  0  0  0
   -0.5596    1.2413    3.6945 O   0  0  0  0  0  0  0  0  0  0  0  0
    1.3223   -0.6396   -0.4835 C   0  0  0  0  0  0  0  0  0  0  0  0
    1.1520   -0.8982   -1.6729 O   0  0  0  0  0  0  0  0  0  0  0  0
    2.5766   -0.8554    0.0615 N   0  0  0  0  0  0  0  0  0  0  0  0
    2.6315   -0.7543    1.0708 H   0  0  0  0  0  0  0  0  0  0  0  0
    3.6264   -1.5937   -0.6235 C   0  0  0  0  0  0  0  0  0  0  0  0
    3.8863   -1.1043   -1.5675 H   0  0  0  0  0  0  0  0  0  0  0  0
    4.5234   -1.6353    0.0011 H   0  0  0  0  0  0  0  0  0  0  0  0
    3.2985   -2.6171   -0.8319 H   0  0  0  0  0  0  0  0  0  0  0  0
  1  2  1  0  0  0  0
  2  3  1  0  0  0  0
  2  4  1  0  0  0  0
  2  5  1  0  0  0  0
  5  6  2  0  0  0  0
  5  7  1  0  0  0  0
  7  8  1  0  0  0  0
  7  9  1  0  0  0  0
  9 10  1  0  0  0  0
  9 11  1  0  0  0  0
  9 17  1  0  0  0  0
 11 12  1  0  0  0  0
 11 13  1  0  0  0  0
 11 14  1  0  0  0  0
 14 15  1  0  0  0  0
 14 16  2  0  0  0  0
 17 18  2  0  0  0  0
 17 19  1  0  0  0  0
 19 20  1  0  0  0  0
 19 21  1  0  0  0  0
 21 22  1  0  0  0  0
 21 23  1  0  0  0  0
 21 24  1  0  0  0  0
M  CHG  1  15  -1
M  END
$$$$

  -OEChem-01062216073D

 24 23  0     1  0  0  0  0  0999 V2000
   -2.8088   -3.3434    1.1601 H   0  0  0  0  0  0  0  0  0  0  0  0
   -2.7713   -2.3154    0.7892 C   0  0  0  0  0  0  0  0  0  0  0  0
   -3.2870   -1.6655    1.5011 H   0  0  0  0  0  0  0  0  0  0  0  0
   -3.2835   -2.2676   -0.1747 H   0  0  0  0  0  0  0  0  0  0  0  0
   -1.3301   -1.8654    0.6322 C   0  0  0  0  0  0  0  0  0  0  0  0
   -0.4268   -2.6530    0.8755 O   0  0  0  0  0  0  0  0  0  0  0  0
   -1.0779   -0.5707    0.2261 N   0  0  0  0  0  0  0  0  0  0  0  0
   -1.8828    0.0494    0.2251 H   0  0  0  0  0  0  0  0  0  0  0  0
    0.2246    0.1023    0.3266 C   0  0  1  0  0  0  0  0  0  0  0  0
    0.1414    1.0811   -0.1565 H   0  0  0  0  0  0  0  0  0  0  0  0
    0.5573    0.3270    1.8212 C   0  0  0  0  0  0  0  0  0  0  0  0
    0.5015   -0.6136    2.3760 H   0  0  0  0  0  0  0  0  0  0  0  0
    1.5759    0.7118    1.9108 H   0  0  0  0  0  0  0  0  0  0  0  0
   -0.3632    1.3600    2.4681 C   0  0  0  0  0  0  0  0  0  0  0  0
   -0.8489    2.2727    1.7530 O   0  5  0  0  0  0  0  0  0  0  0  0
   -0.5929    1.2201    3.6926 O   0  0  0  0  0  0  0  0  0  0  0  0
    1.3388   -0.6242   -0.4696 C   0  0  0  0  0  0  0  0  0  0  0  0
    1.2769   -0.6940   -1.6948 O   0  0  0  0  0  0  0  0  0  0  0  0
    2.4670   -1.1098    0.1681 N   0  0  0  0  0  0  0  0  0  0  0  0
    2.3762   -1.1978    1.1766 H   0  0  0  0  0  0  0  0  0  0  0  0
    3.4721   -1.9149   -0.5083 C   0  0  0  0  0  0  0  0  0  0  0  0
    3.9110   -1.3596   -1.3435 H   0  0  0  0  0  0  0  0  0  0  0  0
    4.2731   -2.1771    0.1890 H   0  0  0  0  0  0  0  0  0  0  0  0
    3.0260   -2.8387   -0.8908 H   0  0  0  0  0  0  0  0  0  0  0  0
  1  2  1  0  0  0  0
  2  3  1  0  0  0  0
  2  4  1  0  0  0  0
  2  5  1  0  0  0  0
  5  6  2  0  0  0  0
  5  7  1  0  0  0  0
  7  8  1  0  0  0  0
  7  9  1  0  0  0  0
  9 10  1  0  0  0  0
  9 11  1  0  0  0  0
  9 17  1  0  0  0  0
 11 12  1  0  0  0  0
 11 13  1  0  0  0  0
 11 14  1  0  0  0  0
 14 15  1  0  0  0  0
 14 16  2  0  0  0  0
 17 18  2  0  0  0  0
 17 19  1  0  0  0  0
 19 20  1  0  0  0  0
 19 21  1  0  0  0  0
 21 22  1  0  0  0  0
 21 23  1  0  0  0  0
 21 24  1  0  0  0  0
M  CHG  1  15  -1
M  END
$$$$

  -OEChem-01062216073D

 24 23  0     1  0  0  0  0  0999 V2000
   -2.8211   -3.3274    1.1713 H   0  0  0  0  0  0  0  0  0  0  0  0
   -2.7762   -2.3032    0.7908 C   0  0  0  0  0  0  0  0  0  0  0  0
   -3.2931   -1.6442    1.4934 H   0  0  0  0  0  0  0  0  0  0  0  0
   -3.2827   -2.2627   -0.1766 H   0  0  0  0  0  0  0  0  0  0  0  0
   -1.3318   -1.8615    0.6381 C   0  0  0  0  0  0  0  0  0  0  0  0
   -0.4336   -2.6535    0.8875 O   0  0  0  0  0  0  0  0  0  0  0  0
   -1.0707   -0.5710    0.2235 N   0  0  0  0  0  0  0  0  0  0  0  0
   -1.8733    0.0528    0.2198 H   0  0  0  0  0  0  0  0  0  0  0  0
    0.2322    0.1012    0.3282 C   0  0  1  0  0  0  0  0  0  0  0  0
    0.1524    1.0795   -0.1571 H   0  0  0  0  0  0  0  0  0  0  0  0
    0.5596    0.3253    1.8229 C   0  0  0  0  0  0  0  0  0  0  0  0
    0.4988   -0.6138    2.3789 H   0  0  0  0  0  0  0  0  0  0  0  0
    1.5812    0.7029    1.9127 H   0  0  0  0  0  0  0  0  0  0  0  0
   -0.3625    1.3590    2.4665 C   0  0  0  0  0  0  0  0  0  0  0  0
   -0.8450    2.2722    1.7500 O   0  5  0  0  0  0  0  0  0  0  0  0
   -0.6085    1.2106    3.6870 O   0  0  0  0  0  0  0  0  0  0  0  0
    1.3539   -0.6300   -0.4511 C   0  0  0  0  0  0  0  0  0  0  0  0
    1.4363   -0.5113   -1.6712 O   0  0  0  0  0  0  0  0  0  0  0  0
    2.3114   -1.3714    0.2179 N   0  0  0  0  0  0  0  0  0  0  0  0
    2.0359   -1.6392    1.1604 H   0  0  0  0  0  0  0  0  0  0  0  0
    3.2833   -2.2049   -0.4722 C   0  0  0  0  0  0  0  0  0  0  0  0
    3.8876   -1.6032   -1.1586 H   0  0  0  0  0  0  0  0  0  0  0  0
    3.9532   -2.6761    0.2529 H   0  0  0  0  0  0  0  0  0  0  0  0
    2.7757   -2.9902   -1.0412 H   0  0  0  0  0  0  0  0  0  0  0  0
  1  2  1  0  0  0  0
  2  3  1  0  0  0  0
  2  4  1  0  0  0  0
  2  5  1  0  0  0  0
  5  6  2  0  0  0  0
  5  7  1  0  0  0  0
  7  8  1  0  0  0  0
  7  9  1  0  0  0  0
  9 10  1  0  0  0  0
  9 11  1  0  0  0  0
  9 17  1  0  0  0  0
 11 12  1  0  0  0  0
 11 13  1  0  0  0  0
 11 14  1  0  0  0  0
 14 15  1  0  0  0  0
 14 16  2  0  0  0  0
 17 18  2  0  0  0  0
 17 19  1  0  0  0  0
 19 20  1  0  0  0  0
 19 21  1  0  0  0  0
 21 22  1  0  0  0  0
 21 23  1  0  0  0  0
 21 24  1  0  0  0  0
M  CHG  1  15  -1
M  END
$$$$

  -OEChem-01062216073D

 24 23  0     1  0  0  0  0  0999 V2000
   -2.8797   -3.2916    1.2095 H   0  0  0  0  0  0  0  0  0  0  0  0
   -2.8140   -2.2737    0.8153 C   0  0  0  0  0  0  0  0  0  0  0  0
   -3.3123   -1.5947    1.5123 H   0  0  0  0  0  0  0  0  0  0  0  0
   -3.3245   -2.2340   -0.1499 H   0  0  0  0  0  0  0  0  0  0  0  0
   -1.3611   -1.8661    0.6503 C   0  0  0  0  0  0  0  0  0  0  0  0
   -0.4804   -2.6752    0.9082 O   0  0  0  0  0  0  0  0  0  0  0  0
   -1.0758   -0.5847    0.2226 N   0  0  0  0  0  0  0  0  0  0  0  0
   -1.8693    0.0512    0.2191 H   0  0  0  0  0  0  0  0  0  0  0  0
    0.2336    0.0785    0.3220 C   0  0  1  0  0  0  0  0  0  0  0  0
    0.1582    1.0550   -0.1682 H   0  0  0  0  0  0  0  0  0  0  0  0
    0.5599    0.3062    1.8154 C   0  0  0  0  0  0  0  0  0  0  0  0
    0.4927   -0.6300    2.3756 H   0  0  0  0  0  0  0  0  0  0  0  0
    1.5851    0.6746    1.9034 H   0  0  0  0  0  0  0  0  0  0  0  0
   -0.3557    1.3496    2.4530 C   0  0  0  0  0  0  0  0  0  0  0  0
   -0.8303    2.2635    1.7318 O   0  5  0  0  0  0  0  0  0  0  0  0
   -0.6152    1.2015    3.6708 O   0  0  0  0  0  0  0  0  0  0  0  0
    1.3646   -0.6580   -0.4386 C   0  0  0  0  0  0  0  0  0  0  0  0
    1.6280   -0.3557   -1.5997 O   0  0  0  0  0  0  0  0  0  0  0  0
    2.1232   -1.6262    0.1928 N   0  0  0  0  0  0  0  0  0  0  0  0
    1.6459   -2.0423    0.9936 H   0  0  0  0  0  0  0  0  0  0  0  0
    3.0988   -2.4422   -0.5127 C   0  0  0  0  0  0  0  0  0  0  0  0
    3.8606   -1.8110   -0.9813 H   0  0  0  0  0  0  0  0  0  0  0  0
    3.5965   -3.1187    0.1883 H   0  0  0  0  0  0  0  0  0  0  0  0
    2.6073   -3.0403   -1.2866 H   0  0  0  0  0  0  0  0  0  0  0  0
  1  2  1  0  0  0  0
  2  3  1  0  0  0  0
  2  4  1  0  0  0  0
  2  5  1  0  0  0  0
  5  6  2  0  0  0  0
  5  7  1  0  0  0  0
  7  8  1  0  0  0  0
  7  9  1  0  0  0  0
  9 10  1  0  0  0  0
  9 11  1  0  0  0  0
  9 17  1  0  0  0  0
 11 12  1  0  0  0  0
 11 13  1  0  0  0  0
 11 14  1  0  0  0  0
 14 15  1  0  0  0  0
 14 16  2  0  0  0  0
 17 18  2  0  0  0  0
 17 19  1  0  0  0  0
 19 20  1  0  0  0  0
 19 21  1  0  0  0  0
 21 22  1  0  0  0  0
 21 23  1  0  0  0  0
 21 24  1  0  0  0  0
M  CHG  1  15  -1
M  END
$$$$

  -OEChem-01062216073D

 24 23  0     1  0  0  0  0  0999 V2000
   -2.9819   -3.2381    1.2551 H   0  0  0  0  0  0  0  0  0  0  0  0
   -2.8808   -2.2301    0.8435 C   0  0  0  0  0  0  0  0  0  0  0  0
   -3.3543   -1.5223    1.5292 H   0  0  0  0  0  0  0  0  0  0  0  0
   -3.3912   -2.1888   -0.1216 H   0  0  0  0  0  0  0  0  0  0  0  0
   -1.4148   -1.8757    0.6711 C   0  0  0  0  0  0  0  0  0  0  0  0
   -0.5665   -2.7162    0.9334 O   0  0  0  0  0  0  0  0  0  0  0  0
   -1.0902   -0.6081    0.2297 N   0  0  0  0  0  0  0  0  0  0  0  0
   -1.8714    0.0435    0.2197 H   0  0  0  0  0  0  0  0  0  0  0  0
    0.2276    0.0462    0.3121 C   0  0  1  0  0  0  0  0  0  0  0  0
    0.1508    1.0205   -0.1827 H   0  0  0  0  0  0  0  0  0  0  0  0
    0.5575    0.2757    1.8030 C   0  0  0  0  0  0  0  0  0  0  0  0
    0.4851   -0.6594    2.3648 H   0  0  0  0  0  0  0  0  0  0  0  0
    1.5859    0.6357    1.8884 H   0  0  0  0  0  0  0  0  0  0  0  0
   -0.3498    1.3281    2.4385 C   0  0  0  0  0  0  0  0  0  0  0  0
   -0.8185    2.2430    1.7146 O   0  5  0  0  0  0  0  0  0  0  0  0
   -0.6177    1.1805    3.6546 O   0  0  0  0  0  0  0  0  0  0  0  0
    1.3759   -0.6843   -0.4300 C   0  0  0  0  0  0  0  0  0  0  0  0
    1.8094   -0.2364   -1.4882 O   0  0  0  0  0  0  0  0  0  0  0  0
    1.9442   -1.8327    0.0873 N   0  0  0  0  0  0  0  0  0  0  0  0
    1.3493   -2.3028    0.7748 H   0  0  0  0  0  0  0  0  0  0  0  0
    2.9165   -2.6350   -0.6379 C   0  0  0  0  0  0  0  0  0  0  0  0
    3.7885   -2.0306   -0.9073 H   0  0  0  0  0  0  0  0  0  0  0  0
    3.2546   -3.4664   -0.0125 H   0  0  0  0  0  0  0  0  0  0  0  0
    2.4707   -3.0422   -1.5508 H   0  0  0  0  0  0  0  0  0  0  0  0
  1  2  1  0  0  0  0
  2  3  1  0  0  0  0
  2  4  1  0  0  0  0
  2  5  1  0  0  0  0
  5  6  2  0  0  0  0
  5  7  1  0  0  0  0
  7  8  1  0  0  0  0
  7  9  1  0  0  0  0
  9 10  1  0  0  0  0
  9 11  1  0  0  0  0
  9 17  1  0  0  0  0
 11 12  1  0  0  0  0
 11 13  1  0  0  0  0
 11 14  1  0  0  0  0
 14 15  1  0  0  0  0
 14 16  2  0  0  0  0
 17 18  2  0  0  0  0
 17 19  1  0  0  0  0
 19 20  1  0  0  0  0
 19 21  1  0  0  0  0
 21 22  1  0  0  0  0
 21 23  1  0  0  0  0
 21 24  1  0  0  0  0
M  CHG  1  15  -1
M  END
$$$$

  -OEChem-01062216073D

 24 23  0     1  0  0  0  0  0999 V2000
   -3.0999   -3.1957    1.2670 H   0  0  0  0  0  0  0  0  0  0  0  0
   -2.9618   -2.1831    0.8777 C   0  0  0  0  0  0  0  0  0  0  0  0
   -3.4020   -1.4732    1.5832 H   0  0  0  0  0  0  0  0  0  0  0  0
   -3.4773   -2.0999   -0.0821 H   0  0  0  0  0  0  0  0  0  0  0  0
   -1.4840   -1.8825    0.7017 C   0  0  0  0  0  0  0  0  0  0  0  0
   -0.6705   -2.7547    0.9673 O   0  0  0  0  0  0  0  0  0  0  0  0
   -1.1197   -0.6313    0.2434 N   0  0  0  0  0  0  0  0  0  0  0  0
   -1.8866    0.0369    0.2266 H   0  0  0  0  0  0  0  0  0  0  0  0
    0.2090    0.0098    0.2974 C   0  0  1  0  0  0  0  0  0  0  0  0
    0.1292    0.9806   -0.2039 H   0  0  0  0  0  0  0  0  0  0  0  0
    0.5554    0.2462    1.7822 C   0  0  0  0  0  0  0  0  0  0  0  0
    0.4801   -0.6854    2.3494 H   0  0  0  0  0  0  0  0  0  0  0  0
    1.5881    0.5963    1.8553 H   0  0  0  0  0  0  0  0  0  0  0  0
   -0.3338    1.3126    2.4200 C   0  0  0  0  0  0  0  0  0  0  0  0
   -0.8002    2.2281    1.6951 O   0  5  0  0  0  0  0  0  0  0  0  0
   -0.5919    1.1746    3.6394 O   0  0  0  0  0  0  0  0  0  0  0  0
    1.3672   -0.7177   -0.4359 C   0  0  0  0  0  0  0  0  0  0  0  0
    1.9567   -0.1566   -1.3553 O   0  0  0  0  0  0  0  0  0  0  0  0
    1.7588   -1.9983   -0.0981 N   0  0  0  0  0  0  0  0  0  0  0  0
    1.1135   -2.4911    0.5261 H   0  0  0  0  0  0  0  0  0  0  0  0
    2.7466   -2.7687   -0.8362 C   0  0  0  0  0  0  0  0  0  0  0  0
    3.7019   -2.2351   -0.8692 H   0  0  0  0  0  0  0  0  0  0  0  0
    2.9081   -3.7340   -0.3474 H   0  0  0  0  0  0  0  0  0  0  0  0
    2.4039   -2.9487   -1.8600 H   0  0  0  0  0  0  0  0  0  0  0  0
  1  2  1  0  0  0  0
  2  3  1  0  0  0  0
  2  4  1  0  0  0  0
  2  5  1  0  0  0  0
  5  6  2  0  0  0  0
  5  7  1  0  0  0  0
  7  8  1  0  0  0  0
  7  9  1  0  0  0  0
  9 10  1  0  0  0  0
  9 11  1  0  0  0  0
  9 17  1  0  0  0  0
 11 12  1  0  0  0  0
 11 13  1  0  0  0  0
 11 14  1  0  0  0  0
 14 15  1  0  0  0  0
 14 16  2  0  0  0  0
 17 18  2  0  0  0  0
 17 19  1  0  0  0  0
 19 20  1  0  0  0  0
 19 21  1  0  0  0  0
 21 22  1  0  0  0  0
 21 23  1  0  0  0  0
 21 24  1  0  0  0  0
M  CHG  1  15  -1
M  END
$$$$

  -OEChem-01062216073D

 24 23  0     1  0  0  0  0  0999 V2000
   -3.1911   -3.1523    1.3091 H   0  0  0  0  0  0  0  0  0  0  0  0
   -3.0302   -2.1371    0.9358 C   0  0  0  0  0  0  0  0  0  0  0  0
   -3.4243   -1.4275    1.6683 H   0  0  0  0  0  0  0  0  0  0  0  0
   -3.5716   -2.0167   -0.0056 H   0  0  0  0  0  0  0  0  0  0  0  0
   -1.5490   -1.8825    0.7197 C   0  0  0  0  0  0  0  0  0  0  0  0
   -0.7578   -2.7812    0.9616 O   0  0  0  0  0  0  0  0  0  0  0  0
   -1.1624   -0.6408    0.2533 N   0  0  0  0  0  0  0  0  0  0  0  0
   -1.9151    0.0437    0.2584 H   0  0  0  0  0  0  0  0  0  0  0  0
    0.1785   -0.0203    0.2727 C   0  0  1  0  0  0  0  0  0  0  0  0
    0.0965    0.9506   -0.2279 H   0  0  0  0  0  0  0  0  0  0  0  0
    0.5534    0.2128    1.7508 C   0  0  0  0  0  0  0  0  0  0  0  0
    0.4732   -0.7172    2.3202 H   0  0  0  0  0  0  0  0  0  0  0  0
    1.5921    0.5475    1.8068 H   0  0  0  0  0  0  0  0  0  0  0  0
   -0.3095    1.2943    2.4003 C   0  0  0  0  0  0  0  0  0  0  0  0
   -0.7739    2.2154    1.6811 O   0  5  0  0  0  0  0  0  0  0  0  0
   -0.5540    1.1604    3.6230 O   0  0  0  0  0  0  0  0  0  0  0  0
    1.3271   -0.7464   -0.4802 C   0  0  0  0  0  0  0  0  0  0  0  0
    2.0720   -0.1041   -1.2149 O   0  0  0  0  0  0  0  0  0  0  0  0
    1.5441   -2.1063   -0.3838 N   0  0  0  0  0  0  0  0  0  0  0  0
    0.8849   -2.6201    0.2070 H   0  0  0  0  0  0  0  0  0  0  0  0
    2.5929   -2.8311   -1.0828 C   0  0  0  0  0  0  0  0  0  0  0  0
    3.5773   -2.4405   -0.8057 H   0  0  0  0  0  0  0  0  0  0  0  0
    2.5540   -3.8916   -0.8174 H   0  0  0  0  0  0  0  0  0  0  0  0
    2.4653   -2.7390   -2.1661 H   0  0  0  0  0  0  0  0  0  0  0  0
  1  2  1  0  0  0  0
  2  3  1  0  0  0  0
  2  4  1  0  0  0  0
  2  5  1  0  0  0  0
  5  6  2  0  0  0  0
  5  7  1  0  0  0  0
  7  8  1  0  0  0  0
  7  9  1  0  0  0  0
  9 10  1  0  0  0  0
  9 11  1  0  0  0  0
  9 17  1  0  0  0  0
 11 12  1  0  0  0  0
 11 13  1  0  0  0  0
 11 14  1  0  0  0  0
 14 15  1  0  0  0  0
 14 16  2  0  0  0  0
 17 18  2  0  0  0  0
 17 19  1  0  0  0  0
 19 20  1  0  0  0  0
 19 21  1  0  0  0  0
 21 22  1  0  0  0  0
 21 23  1  0  0  0  0
 21 24  1  0  0  0  0
M  CHG  1  15  -1
M  END
$$$$

  -OEChem-01062216073D

 24 23  0     1  0  0  0  0  0999 V2000
   -3.2176   -3.1272    1.3675 H   0  0  0  0  0  0  0  0  0  0  0  0
   -3.0592   -2.1114    0.9947 C   0  0  0  0  0  0  0  0  0  0  0  0
   -3.4105   -1.4025    1.7494 H   0  0  0  0  0  0  0  0  0  0  0  0
   -3.6405   -1.9762    0.0794 H   0  0  0  0  0  0  0  0  0  0  0  0
   -1.5857   -1.8751    0.7152 C   0  0  0  0  0  0  0  0  0  0  0  0
   -0.7985   -2.7908    0.8999 O   0  0  0  0  0  0  0  0  0  0  0  0
   -1.2006   -0.6322    0.2510 N   0  0  0  0  0  0  0  0  0  0  0  0
   -1.9424    0.0624    0.3060 H   0  0  0  0  0  0  0  0  0  0  0  0
    0.1475   -0.0258    0.2400 C   0  0  1  0  0  0  0  0  0  0  0  0
    0.0619    0.9507   -0.2486 H   0  0  0  0  0  0  0  0  0  0  0  0
    0.5553    0.1853    1.7127 C   0  0  0  0  0  0  0  0  0  0  0  0
    0.4787   -0.7508    2.2726 H   0  0  0  0  0  0  0  0  0  0  0  0
    1.5982    0.5103    1.7515 H   0  0  0  0  0  0  0  0  0  0  0  0
   -0.2838    1.2677    2.3913 C   0  0  0  0  0  0  0  0  0  0  0  0
   -0.7534    2.2017    1.6919 O   0  5  0  0  0  0  0  0  0  0  0  0
   -0.5154    1.1155    3.6144 O   0  0  0  0  0  0  0  0  0  0  0  0
    1.2770   -0.7457   -0.5489 C   0  0  0  0  0  0  0  0  0  0  0  0
    2.1643   -0.0797   -1.0745 O   0  0  0  0  0  0  0  0  0  0  0  0
    1.3213   -2.1147   -0.7250 N   0  0  0  0  0  0  0  0  0  0  0  0
    0.6488   -2.6447   -0.1652 H   0  0  0  0  0  0  0  0  0  0  0  0
    2.4286   -2.8232   -1.3474 C   0  0  0  0  0  0  0  0  0  0  0  0
    3.3508   -2.6629   -0.7800 H   0  0  0  0  0  0  0  0  0  0  0  0
    2.2176   -3.8964   -1.3732 H   0  0  0  0  0  0  0  0  0  0  0  0
    2.5779   -2.4758   -2.3747 H   0  0  0  0  0  0  0  0  0  0  0  0
  1  2  1  0  0  0  0
  2  3  1  0  0  0  0
  2  4  1  0  0  0  0
  2  5  1  0  0  0  0
  5  6  2  0  0  0  0
  5  7  1  0  0  0  0
  7  8  1  0  0  0  0
  7  9  1  0  0  0  0
  9 10  1  0  0  0  0
  9 11  1  0  0  0  0
  9 17  1  0  0  0  0
 11 12  1  0  0  0  0
 11 13  1  0  0  0  0
 11 14  1  0  0  0  0
 14 15  1  0  0  0  0
 14 16  2  0  0  0  0
 17 18  2  0  0  0  0
 17 19  1  0  0  0  0
 19 20  1  0  0  0  0
 19 21  1  0  0  0  0
 21 22  1  0  0  0  0
 21 23  1  0  0  0  0
 21 24  1  0  0  0  0
M  CHG  1  15  -1
M  END
$$$$

  -OEChem-01062216073D

 24 23  0     1  0  0  0  0  0999 V2000
   -3.1764   -3.1240    1.4095 H   0  0  0  0  0  0  0  0  0  0  0  0
   -3.0347   -2.1026    1.0457 C   0  0  0  0  0  0  0  0  0  0  0  0
   -3.3363   -1.4053    1.8323 H   0  0  0  0  0  0  0  0  0  0  0  0
   -3.6679   -1.9479    0.1688 H   0  0  0  0  0  0  0  0  0  0  0  0
   -1.5791   -1.8688    0.6848 C   0  0  0  0  0  0  0  0  0  0  0  0
   -0.7910   -2.7972    0.7796 O   0  0  0  0  0  0  0  0  0  0  0  0
   -1.2079   -0.6183    0.2309 N   0  0  0  0  0  0  0  0  0  0  0  0
   -1.9439    0.0772    0.3369 H   0  0  0  0  0  0  0  0  0  0  0  0
    0.1414   -0.0145    0.2257 C   0  0  1  0  0  0  0  0  0  0  0  0
    0.0602    0.9668   -0.2534 H   0  0  0  0  0  0  0  0  0  0  0  0
    0.5403    0.1778    1.7042 C   0  0  0  0  0  0  0  0  0  0  0  0
    0.4601   -0.7649    2.2524 H   0  0  0  0  0  0  0  0  0  0  0  0
    1.5831    0.5014    1.7551 H   0  0  0  0  0  0  0  0  0  0  0  0
   -0.3035    1.2540    2.3874 C   0  0  0  0  0  0  0  0  0  0  0  0
   -0.7664    2.1957    1.6940 O   0  5  0  0  0  0  0  0  0  0  0  0
   -0.5604    1.0794    3.6024 O   0  0  0  0  0  0  0  0  0  0  0  0
    1.2691   -0.7276   -0.5724 C   0  0  0  0  0  0  0  0  0  0  0  0
    2.2738   -0.0986   -0.8919 O   0  0  0  0  0  0  0  0  0  0  0  0
    1.1624   -2.0305   -1.0200 N   0  0  0  0  0  0  0  0  0  0  0  0
    0.4342   -2.5733   -0.5502 H   0  0  0  0  0  0  0  0  0  0  0  0
    2.2542   -2.7523   -1.6550 C   0  0  0  0  0  0  0  0  0  0  0  0
    3.0997   -2.8476   -0.9663 H   0  0  0  0  0  0  0  0  0  0  0  0
    1.9225   -3.7546   -1.9412 H   0  0  0  0  0  0  0  0  0  0  0  0
    2.5876   -2.2294   -2.5572 H   0  0  0  0  0  0  0  0  0  0  0  0
  1  2  1  0  0  0  0
  2  3  1  0  0  0  0
  2  4  1  0  0  0  0
  2  5  1  0  0  0  0
  5  6  2  0  0  0  0
  5  7  1  0  0  0  0
  7  8  1  0  0  0  0
  7  9  1  0  0  0  0
  9 10  1  0  0  0  0
  9 11  1  0  0  0  0
  9 17  1  0  0  0  0
 11 12  1  0  0  0  0
 11 13  1  0  0  0  0
 11 14  1  0  0  0  0
 14 15  1  0  0  0  0
 14 16  2  0  0  0  0
 17 18  2  0  0  0  0
 17 19  1  0  0  0  0
 19 20  1  0  0  0  0
 19 21  1  0  0  0  0
 21 22  1  0  0  0  0
 21 23  1  0  0  0  0
 21 24  1  0  0  0  0
M  CHG  1  15  -1
M  END
$$$$

  -OEChem-01062216073D

 24 23  0     1  0  0  0  0  0999 V2000
   -3.0994   -3.1351    1.4327 H   0  0  0  0  0  0  0  0  0  0  0  0
   -2.9815   -2.1075    1.0777 C   0  0  0  0  0  0  0  0  0  0  0  0
   -3.2416   -1.4243    1.8909 H   0  0  0  0  0  0  0  0  0  0  0  0
   -3.6627   -1.9410    0.2397 H   0  0  0  0  0  0  0  0  0  0  0  0
   -1.5488   -1.8617    0.6407 C   0  0  0  0  0  0  0  0  0  0  0  0
   -0.7611   -2.7951    0.6287 O   0  0  0  0  0  0  0  0  0  0  0  0
   -1.1972   -0.6006    0.2026 N   0  0  0  0  0  0  0  0  0  0  0  0
   -1.9298    0.0894    0.3593 H   0  0  0  0  0  0  0  0  0  0  0  0
    0.1510    0.0047    0.2242 C   0  0  1  0  0  0  0  0  0  0  0  0
    0.0811    0.9904   -0.2469 H   0  0  0  0  0  0  0  0  0  0  0  0
    0.5217    0.1790    1.7130 C   0  0  0  0  0  0  0  0  0  0  0  0
    0.4336   -0.7705    2.2481 H   0  0  0  0  0  0  0  0  0  0  0  0
    1.5621    0.5052    1.7899 H   0  0  0  0  0  0  0  0  0  0  0  0
   -0.3377    1.2455    2.3912 C   0  0  0  0  0  0  0  0  0  0  0  0
   -0.7882    2.1939    1.6989 O   0  5  0  0  0  0  0  0  0  0  0  0
   -0.6324    1.0478    3.5939 O   0  0  0  0  0  0  0  0  0  0  0  0
    1.2784   -0.7100   -0.5723 C   0  0  0  0  0  0  0  0  0  0  0  0
    2.3764   -0.1746   -0.6960 O   0  0  0  0  0  0  0  0  0  0  0  0
    1.0460   -1.8741   -1.2810 N   0  0  0  0  0  0  0  0  0  0  0  0
    0.2552   -2.4104   -0.9182 H   0  0  0  0  0  0  0  0  0  0  0  0
    2.1000   -2.6054   -1.9674 C   0  0  0  0  0  0  0  0  0  0  0  0
    2.8606   -2.9388   -1.2541 H   0  0  0  0  0  0  0  0  0  0  0  0
    1.6807   -3.4835   -2.4669 H   0  0  0  0  0  0  0  0  0  0  0  0
    2.5753   -1.9735   -2.7243 H   0  0  0  0  0  0  0  0  0  0  0  0
  1  2  1  0  0  0  0
  2  3  1  0  0  0  0
  2  4  1  0  0  0  0
  2  5  1  0  0  0  0
  5  6  2  0  0  0  0
  5  7  1  0  0  0  0
  7  8  1  0  0  0  0
  7  9  1  0  0  0  0
  9 10  1  0  0  0  0
  9 11  1  0  0  0  0
  9 17  1  0  0  0  0
 11 12  1  0  0  0  0
 11 13  1  0  0  0  0
 11 14  1  0  0  0  0
 14 15  1  0  0  0  0
 14 16  2  0  0  0  0
 17 18  2  0  0  0  0
 17 19  1  0  0  0  0
 19 20  1  0  0  0  0
 19 21  1  0  0  0  0
 21 22  1  0  0  0  0
 21 23  1  0  0  0  0
 21 24  1  0  0  0  0
M  CHG  1  15  -1
M  END
$$$$

  -OEChem-01062216073D

 24 23  0     1  0  0  0  0  0999 V2000
   -3.0070   -3.1598    1.4250 H   0  0  0  0  0  0  0  0  0  0  0  0
   -2.9096   -2.1171    1.1104 C   0  0  0  0  0  0  0  0  0  0  0  0
   -3.1098   -1.4717    1.9703 H   0  0  0  0  0  0  0  0  0  0  0  0
   -3.6462   -1.9115    0.3302 H   0  0  0  0  0  0  0  0  0  0  0  0
   -1.5090   -1.8537    0.5877 C   0  0  0  0  0  0  0  0  0  0  0  0
   -0.7294   -2.7848    0.4593 O   0  0  0  0  0  0  0  0  0  0  0  0
   -1.1809   -0.5817    0.1660 N   0  0  0  0  0  0  0  0  0  0  0  0
   -1.9112    0.0986    0.3713 H   0  0  0  0  0  0  0  0  0  0  0  0
    0.1649    0.0249    0.2230 C   0  0  1  0  0  0  0  0  0  0  0  0
    0.1095    1.0152   -0.2401 H   0  0  0  0  0  0  0  0  0  0  0  0
    0.5019    0.1822    1.7229 C   0  0  0  0  0  0  0  0  0  0  0  0
    0.4049   -0.7737    2.2452 H   0  0  0  0  0  0  0  0  0  0  0  0
    1.5387    0.5108    1.8292 H   0  0  0  0  0  0  0  0  0  0  0  0
   -0.3759    1.2393    2.3913 C   0  0  0  0  0  0  0  0  0  0  0  0
   -0.8112    2.1937    1.6977 O   0  5  0  0  0  0  0  0  0  0  0  0
   -0.7138    1.0183    3.5784 O   0  0  0  0  0  0  0  0  0  0  0  0
    1.2897   -0.6987   -0.5677 C   0  0  0  0  0  0  0  0  0  0  0  0
    2.4525   -0.3092   -0.5020 O   0  0  0  0  0  0  0  0  0  0  0  0
    0.9775   -1.6560   -1.5157 N   0  0  0  0  0  0  0  0  0  0  0  0
    0.1108   -2.1478   -1.2957 H   0  0  0  0  0  0  0  0  0  0  0  0
    1.9979   -2.3928   -2.2459 C   0  0  0  0  0  0  0  0  0  0  0  0
    2.6195   -2.9710   -1.5548 H   0  0  0  0  0  0  0  0  0  0  0  0
    1.5270   -3.0822   -2.9525 H   0  0  0  0  0  0  0  0  0  0  0  0
    2.6378   -1.7067   -2.8099 H   0  0  0  0  0  0  0  0  0  0  0  0
  1  2  1  0  0  0  0
  2  3  1  0  0  0  0
  2  4  1  0  0  0  0
  2  5  1  0  0  0  0
  5  6  2  0  0  0  0
  5  7  1  0  0  0  0
  7  8  1  0  0  0  0
  7  9  1  0  0  0  0
  9 10  1  0  0  0  0
  9 11  1  0  0  0  0
  9 17  1  0  0  0  0
 11 12  1  0  0  0  0
 11 13  1  0  0  0  0
 11 14  1  0  0  0  0
 14 15  1  0  0  0  0
 14 16  2  0  0  0  0
 17 18  2  0  0  0  0
 17 19  1  0  0  0  0
 19 20  1  0  0  0  0
 19 21  1  0  0  0  0
 21 22  1  0  0  0  0
 21 23  1  0  0  0  0
 21 24  1  0  0  0  0
M  CHG  1  15  -1
M  END
$$$$

  -OEChem-01062216073D

 24 23  0     1  0  0  0  0  0999 V2000
   -2.9182   -3.2039    1.3818 H   0  0  0  0  0  0  0  0  0  0  0  0
   -2.8406   -2.1506    1.0987 C   0  0  0  0  0  0  0  0  0  0  0  0
   -3.0280   -1.5350    1.9831 H   0  0  0  0  0  0  0  0  0  0  0  0
   -3.5978   -1.9294    0.3428 H   0  0  0  0  0  0  0  0  0  0  0  0
   -1.4559   -1.8531    0.5531 C   0  0  0  0  0  0  0  0  0  0  0  0
   -0.6638   -2.7663    0.3845 O   0  0  0  0  0  0  0  0  0  0  0  0
   -1.1547   -0.5685    0.1508 N   0  0  0  0  0  0  0  0  0  0  0  0
   -1.8907    0.0967    0.3840 H   0  0  0  0  0  0  0  0  0  0  0  0
    0.1848    0.0455    0.2368 C   0  0  1  0  0  0  0  0  0  0  0  0
    0.1363    1.0387   -0.2203 H   0  0  0  0  0  0  0  0  0  0  0  0
    0.4986    0.1974    1.7430 C   0  0  0  0  0  0  0  0  0  0  0  0
    0.4012   -0.7613    2.2599 H   0  0  0  0  0  0  0  0  0  0  0  0
    1.5307    0.5346    1.8669 H   0  0  0  0  0  0  0  0  0  0  0  0
   -0.3974    1.2463    2.4003 C   0  0  0  0  0  0  0  0  0  0  0  0
   -0.8268    2.1996    1.7012 O   0  5  0  0  0  0  0  0  0  0  0  0
   -0.7586    1.0176    3.5790 O   0  0  0  0  0  0  0  0  0  0  0  0
    1.3000   -0.6836   -0.5611 C   0  0  0  0  0  0  0  0  0  0  0  0
    2.4903   -0.5037   -0.3179 O   0  0  0  0  0  0  0  0  0  0  0  0
    0.9650   -1.3767   -1.7109 N   0  0  0  0  0  0  0  0  0  0  0  0
    0.0067   -1.7165   -1.6995 H   0  0  0  0  0  0  0  0  0  0  0  0
    1.9415   -2.1421   -2.4714 C   0  0  0  0  0  0  0  0  0  0  0  0
    2.3755   -2.9313   -1.8489 H   0  0  0  0  0  0  0  0  0  0  0  0
    1.4609   -2.6056   -3.3378 H   0  0  0  0  0  0  0  0  0  0  0  0
    2.7452   -1.4914   -2.8311 H   0  0  0  0  0  0  0  0  0  0  0  0
  1  2  1  0  0  0  0
  2  3  1  0  0  0  0
  2  4  1  0  0  0  0
  2  5  1  0  0  0  0
  5  6  2  0  0  0  0
  5  7  1  0  0  0  0
  7  8  1  0  0  0  0
  7  9  1  0  0  0  0
  9 10  1  0  0  0  0
  9 11  1  0  0  0  0
  9 17  1  0  0  0  0
 11 12  1  0  0  0  0
 11 13  1  0  0  0  0
 11 14  1  0  0  0  0
 14 15  1  0  0  0  0
 14 16  2  0  0  0  0
 17 18  2  0  0  0  0
 17 19  1  0  0  0  0
 19 20  1  0  0  0  0
 19 21  1  0  0  0  0
 21 22  1  0  0  0  0
 21 23  1  0  0  0  0
 21 24  1  0  0  0  0
M  CHG  1  15  -1
M  END
$$$$

  -OEChem-01062216073D

 24 23  0     1  0  0  0  0  0999 V2000
   -2.8668   -3.2395    1.3544 H   0  0  0  0  0  0  0  0  0  0  0  0
   -2.8054   -2.1869    1.0644 C   0  0  0  0  0  0  0  0  0  0  0  0
   -3.0278   -1.5689    1.9389 H   0  0  0  0  0  0  0  0  0  0  0  0
   -3.5483   -1.9882    0.2885 H   0  0  0  0  0  0  0  0  0  0  0  0
   -1.4149   -1.8635    0.5489 C   0  0  0  0  0  0  0  0  0  0  0  0
   -0.6024   -2.7623    0.4043 O   0  0  0  0  0  0  0  0  0  0  0  0
   -1.1304   -0.5721    0.1548 N   0  0  0  0  0  0  0  0  0  0  0  0
   -1.8754    0.0822    0.3896 H   0  0  0  0  0  0  0  0  0  0  0  0
    0.2026    0.0501    0.2557 C   0  0  1  0  0  0  0  0  0  0  0  0
    0.1547    1.0420   -0.2046 H   0  0  0  0  0  0  0  0  0  0  0  0
    0.5044    0.2143    1.7630 C   0  0  0  0  0  0  0  0  0  0  0  0
    0.4079   -0.7416    2.2851 H   0  0  0  0  0  0  0  0  0  0  0  0
    1.5338    0.5578    1.8918 H   0  0  0  0  0  0  0  0  0  0  0  0
   -0.4031    1.2626    2.4055 C   0  0  0  0  0  0  0  0  0  0  0  0
   -0.8318    2.2076    1.6942 O   0  5  0  0  0  0  0  0  0  0  0  0
   -0.7686    1.0465    3.5851 O   0  0  0  0  0  0  0  0  0  0  0  0
    1.3109   -0.6827   -0.5456 C   0  0  0  0  0  0  0  0  0  0  0  0
    2.4769   -0.7361   -0.1639 O   0  0  0  0  0  0  0  0  0  0  0  0
    1.0248   -1.0901   -1.8369 N   0  0  0  0  0  0  0  0  0  0  0  0
    0.0334   -1.1967   -2.0262 H   0  0  0  0  0  0  0  0  0  0  0  0
    1.9645   -1.8531   -2.6447 C   0  0  0  0  0  0  0  0  0  0  0  0
    2.2029   -2.8033   -2.1564 H   0  0  0  0  0  0  0  0  0  0  0  0
    1.5291   -2.0646   -3.6256 H   0  0  0  0  0  0  0  0  0  0  0  0
    2.8905   -1.2883   -2.7936 H   0  0  0  0  0  0  0  0  0  0  0  0
  1  2  1  0  0  0  0
  2  3  1  0  0  0  0
  2  4  1  0  0  0  0
  2  5  1  0  0  0  0
  5  6  2  0  0  0  0
  5  7  1  0  0  0  0
  7  8  1  0  0  0  0
  7  9  1  0  0  0  0
  9 10  1  0  0  0  0
  9 11  1  0  0  0  0
  9 17  1  0  0  0  0
 11 12  1  0  0  0  0
 11 13  1  0  0  0  0
 11 14  1  0  0  0  0
 14 15  1  0  0  0  0
 14 16  2  0  0  0  0
 17 18  2  0  0  0  0
 17 19  1  0  0  0  0
 19 20  1  0  0  0  0
 19 21  1  0  0  0  0
 21 22  1  0  0  0  0
 21 23  1  0  0  0  0
 21 24  1  0  0  0  0
M  CHG  1  15  -1
M  END
$$$$

  -OEChem-01062216073D

 24 23  0     1  0  0  0  0  0999 V2000
   -2.8688   -3.2511    1.3500 H   0  0  0  0  0  0  0  0  0  0  0  0
   -2.8009   -2.1966    1.0687 C   0  0  0  0  0  0  0  0  0  0  0  0
   -3.0161   -1.5848    1.9493 H   0  0  0  0  0  0  0  0  0  0  0  0
   -3.5450   -1.9867    0.2968 H   0  0  0  0  0  0  0  0  0  0  0  0
   -1.4097   -1.8783    0.5514 C   0  0  0  0  0  0  0  0  0  0  0  0
   -0.5979   -2.7789    0.4161 O   0  0  0  0  0  0  0  0  0  0  0  0
   -1.1250   -0.5880    0.1540 N   0  0  0  0  0  0  0  0  0  0  0  0
   -1.8718    0.0653    0.3847 H   0  0  0  0  0  0  0  0  0  0  0  0
    0.2060    0.0348    0.2582 C   0  0  1  0  0  0  0  0  0  0  0  0
    0.1610    1.0240   -0.2076 H   0  0  0  0  0  0  0  0  0  0  0  0
    0.5010    0.2134    1.7650 C   0  0  0  0  0  0  0  0  0  0  0  0
    0.4014   -0.7374    2.2958 H   0  0  0  0  0  0  0  0  0  0  0  0
    1.5305    0.5568    1.8933 H   0  0  0  0  0  0  0  0  0  0  0  0
   -0.4097    1.2681    2.3928 C   0  0  0  0  0  0  0  0  0  0  0  0
   -0.8342    2.2056    1.6688 O   0  5  0  0  0  0  0  0  0  0  0  0
   -0.7793    1.0673    3.5738 O   0  0  0  0  0  0  0  0  0  0  0  0
    1.3140   -0.7038   -0.5371 C   0  0  0  0  0  0  0  0  0  0  0  0
    2.4119   -0.9751   -0.0585 O   0  0  0  0  0  0  0  0  0  0  0  0
    1.1497   -0.8312   -1.9057 N   0  0  0  0  0  0  0  0  0  0  0  0
    0.1971   -0.7179   -2.2355 H   0  0  0  0  0  0  0  0  0  0  0  0
    2.1037   -1.5270   -2.7564 C   0  0  0  0  0  0  0  0  0  0  0  0
    2.1908   -2.5751   -2.4522 H   0  0  0  0  0  0  0  0  0  0  0  0
    1.7722   -1.4922   -3.7983 H   0  0  0  0  0  0  0  0  0  0  0  0
    3.0899   -1.0560   -2.6930 H   0  0  0  0  0  0  0  0  0  0  0  0
  1  2  1  0  0  0  0
  2  3  1  0  0  0  0
  2  4  1  0  0  0  0
  2  5  1  0  0  0  0
  5  6  2  0  0  0  0
  5  7  1  0  0  0  0
  7  8  1  0  0  0  0
  7  9  1  0  0  0  0
  9 10  1  0  0  0  0
  9 11  1  0  0  0  0
  9 17  1  0  0  0  0
 11 12  1  0  0  0  0
 11 13  1  0  0  0  0
 11 14  1  0  0  0  0
 14 15  1  0  0  0  0
 14 16  2  0  0  0  0
 17 18  2  0  0  0  0
 17 19  1  0  0  0  0
 19 20  1  0  0  0  0
 19 21  1  0  0  0  0
 21 22  1  0  0  0  0
 21 23  1  0  0  0  0
 21 24  1  0  0  0  0
M  CHG  1  15  -1
M  END
$$$$

  -OEChem-01062216073D

 24 23  0     1  0  0  0  0  0999 V2000
   -2.8991   -3.2585    1.3523 H   0  0  0  0  0  0  0  0  0  0  0  0
   -2.8203   -2.2036    1.0753 C   0  0  0  0  0  0  0  0  0  0  0  0
   -3.0321   -1.5926    1.9571 H   0  0  0  0  0  0  0  0  0  0  0  0
   -3.5599   -1.9838    0.3019 H   0  0  0  0  0  0  0  0  0  0  0  0
   -1.4244   -1.8970    0.5636 C   0  0  0  0  0  0  0  0  0  0  0  0
   -0.6195   -2.8046    0.4392 O   0  0  0  0  0  0  0  0  0  0  0  0
   -1.1337   -0.6105    0.1588 N   0  0  0  0  0  0  0  0  0  0  0  0
   -1.8798    0.0457    0.3819 H   0  0  0  0  0  0  0  0  0  0  0  0
    0.1980    0.0107    0.2516 C   0  0  1  0  0  0  0  0  0  0  0  0
    0.1467    0.9973   -0.2189 H   0  0  0  0  0  0  0  0  0  0  0  0
    0.5045    0.2063    1.7537 C   0  0  0  0  0  0  0  0  0  0  0  0
    0.4050   -0.7385    2.2954 H   0  0  0  0  0  0  0  0  0  0  0  0
    1.5366    0.5465    1.8691 H   0  0  0  0  0  0  0  0  0  0  0  0
   -0.3985    1.2703    2.3771 C   0  0  0  0  0  0  0  0  0  0  0  0
   -0.8259    2.2003    1.6448 O   0  5  0  0  0  0  0  0  0  0  0  0
   -0.7506    1.0922    3.5668 O   0  0  0  0  0  0  0  0  0  0  0  0
    1.3080   -0.7268   -0.5424 C   0  0  0  0  0  0  0  0  0  0  0  0
    2.3065   -1.2051   -0.0118 O   0  0  0  0  0  0  0  0  0  0  0  0
    1.3134   -0.5918   -1.9206 N   0  0  0  0  0  0  0  0  0  0  0  0
    0.4556   -0.2450   -2.3358 H   0  0  0  0  0  0  0  0  0  0  0  0
    2.3162   -1.2023   -2.7809 C   0  0  0  0  0  0  0  0  0  0  0  0
    2.3070   -2.2908   -2.6644 H   0  0  0  0  0  0  0  0  0  0  0  0
    2.1090   -0.9622   -3.8278 H   0  0  0  0  0  0  0  0  0  0  0  0
    3.3142   -0.8272   -2.5321 H   0  0  0  0  0  0  0  0  0  0  0  0
  1  2  1  0  0  0  0
  2  3  1  0  0  0  0
  2  4  1  0  0  0  0
  2  5  1  0  0  0  0
  5  6  2  0  0  0  0
  5  7  1  0  0  0  0
  7  8  1  0  0  0  0
  7  9  1  0  0  0  0
  9 10  1  0  0  0  0
  9 11  1  0  0  0  0
  9 17  1  0  0  0  0
 11 12  1  0  0  0  0
 11 13  1  0  0  0  0
 11 14  1  0  0  0  0
 14 15  1  0  0  0  0
 14 16  2  0  0  0  0
 17 18  2  0  0  0  0
 17 19  1  0  0  0  0
 19 20  1  0  0  0  0
 19 21  1  0  0  0  0
 21 22  1  0  0  0  0
 21 23  1  0  0  0  0
 21 24  1  0  0  0  0
M  CHG  1  15  -1
M  END
$$$$

  -OEChem-01062216073D

 24 23  0     1  0  0  0  0  0999 V2000
   -2.9342   -3.2484    1.3986 H   0  0  0  0  0  0  0  0  0  0  0  0
   -2.8477   -2.1990    1.1031 C   0  0  0  0  0  0  0  0  0  0  0  0
   -3.0391   -1.5715    1.9780 H   0  0  0  0  0  0  0  0  0  0  0  0
   -3.5961   -1.9828    0.3372 H   0  0  0  0  0  0  0  0  0  0  0  0
   -1.4561   -1.9169    0.5662 C   0  0  0  0  0  0  0  0  0  0  0  0
   -0.6699   -2.8388    0.4340 O   0  0  0  0  0  0  0  0  0  0  0  0
   -1.1547   -0.6360    0.1519 N   0  0  0  0  0  0  0  0  0  0  0  0
   -1.8947    0.0269    0.3740 H   0  0  0  0  0  0  0  0  0  0  0  0
    0.1806   -0.0203    0.2270 C   0  0  1  0  0  0  0  0  0  0  0  0
    0.1211    0.9647   -0.2452 H   0  0  0  0  0  0  0  0  0  0  0  0
    0.5063    0.1852    1.7229 C   0  0  0  0  0  0  0  0  0  0  0  0
    0.4074   -0.7555    2.2721 H   0  0  0  0  0  0  0  0  0  0  0  0
    1.5426    0.5180    1.8216 H   0  0  0  0  0  0  0  0  0  0  0  0
   -0.3823    1.2583    2.3518 C   0  0  0  0  0  0  0  0  0  0  0  0
   -0.8142    2.1858    1.6185 O   0  5  0  0  0  0  0  0  0  0  0  0
   -0.7097    1.0976    3.5510 O   0  0  0  0  0  0  0  0  0  0  0  0
    1.2960   -0.7520   -0.5659 C   0  0  0  0  0  0  0  0  0  0  0  0
    2.1727   -1.4210   -0.0271 O   0  0  0  0  0  0  0  0  0  0  0  0
    1.5012   -0.3820   -1.8852 N   0  0  0  0  0  0  0  0  0  0  0  0
    0.7835    0.1929   -2.3130 H   0  0  0  0  0  0  0  0  0  0  0  0
    2.5861   -0.8941   -2.7095 C   0  0  0  0  0  0  0  0  0  0  0  0
    2.5321   -1.9855   -2.7767 H   0  0  0  0  0  0  0  0  0  0  0  0
    2.5174   -0.4804   -3.7198 H   0  0  0  0  0  0  0  0  0  0  0  0
    3.5549   -0.6119   -2.2850 H   0  0  0  0  0  0  0  0  0  0  0  0
  1  2  1  0  0  0  0
  2  3  1  0  0  0  0
  2  4  1  0  0  0  0
  2  5  1  0  0  0  0
  5  6  2  0  0  0  0
  5  7  1  0  0  0  0
  7  8  1  0  0  0  0
  7  9  1  0  0  0  0
  9 10  1  0  0  0  0
  9 11  1  0  0  0  0
  9 17  1  0  0  0  0
 11 12  1  0  0  0  0
 11 13  1  0  0  0  0
 11 14  1  0  0  0  0
 14 15  1  0  0  0  0
 14 16  2  0  0  0  0
 17 18  2  0  0  0  0
 17 19  1  0  0  0  0
 19 20  1  0  0  0  0
 19 21  1  0  0  0  0
 21 22  1  0  0  0  0
 21 23  1  0  0  0  0
 21 24  1  0  0  0  0
M  CHG  1  15  -1
M  END
$$$$

  -OEChem-01062216073D

 24 23  0     1  0  0  0  0  0999 V2000
   -2.9818   -3.2346    1.4523 H   0  0  0  0  0  0  0  0  0  0  0  0
   -2.8915   -2.2007    1.1076 C   0  0  0  0  0  0  0  0  0  0  0  0
   -3.1030   -1.5321    1.9466 H   0  0  0  0  0  0  0  0  0  0  0  0
   -3.6237   -2.0252    0.3162 H   0  0  0  0  0  0  0  0  0  0  0  0
   -1.4895   -1.9414    0.5861 C   0  0  0  0  0  0  0  0  0  0  0  0
   -0.7161   -2.8764    0.4830 O   0  0  0  0  0  0  0  0  0  0  0  0
   -1.1736   -0.6677    0.1595 N   0  0  0  0  0  0  0  0  0  0  0  0
   -1.9094    0.0035    0.3684 H   0  0  0  0  0  0  0  0  0  0  0  0
    0.1654   -0.0558    0.1999 C   0  0  1  0  0  0  0  0  0  0  0  0
    0.0855    0.9249   -0.2779 H   0  0  0  0  0  0  0  0  0  0  0  0
    0.5280    0.1668    1.6842 C   0  0  0  0  0  0  0  0  0  0  0  0
    0.4355   -0.7674    2.2457 H   0  0  0  0  0  0  0  0  0  0  0  0
    1.5687    0.4930    1.7543 H   0  0  0  0  0  0  0  0  0  0  0  0
   -0.3395    1.2512    2.3233 C   0  0  0  0  0  0  0  0  0  0  0  0
   -0.7850    2.1719    1.5893 O   0  5  0  0  0  0  0  0  0  0  0  0
   -0.6228    1.1176    3.5368 O   0  0  0  0  0  0  0  0  0  0  0  0
    1.2843   -0.7740   -0.6022 C   0  0  0  0  0  0  0  0  0  0  0  0
    2.0244   -1.6226   -0.1161 O   0  0  0  0  0  0  0  0  0  0  0  0
    1.6877   -0.2050   -1.8002 N   0  0  0  0  0  0  0  0  0  0  0  0
    1.1497    0.5872   -2.1347 H   0  0  0  0  0  0  0  0  0  0  0  0
    2.8625   -0.6305   -2.5476 C   0  0  0  0  0  0  0  0  0  0  0  0
    2.7941   -1.6949   -2.7952 H   0  0  0  0  0  0  0  0  0  0  0  0
    2.9395   -0.0632   -3.4798 H   0  0  0  0  0  0  0  0  0  0  0  0
    3.7711   -0.4599   -1.9612 H   0  0  0  0  0  0  0  0  0  0  0  0
  1  2  1  0  0  0  0
  2  3  1  0  0  0  0
  2  4  1  0  0  0  0
  2  5  1  0  0  0  0
  5  6  2  0  0  0  0
  5  7  1  0  0  0  0
  7  8  1  0  0  0  0
  7  9  1  0  0  0  0
  9 10  1  0  0  0  0
  9 11  1  0  0  0  0
  9 17  1  0  0  0  0
 11 12  1  0  0  0  0
 11 13  1  0  0  0  0
 11 14  1  0  0  0  0
 14 15  1  0  0  0  0
 14 16  2  0  0  0  0
 17 18  2  0  0  0  0
 17 19  1  0  0  0  0
 19 20  1  0  0  0  0
 19 21  1  0  0  0  0
 21 22  1  0  0  0  0
 21 23  1  0  0  0  0
 21 24  1  0  0  0  0
M  CHG  1  15  -1
M  END
$$$$

  -OEChem-01062216073D

 24 23  0     1  0  0  0  0  0999 V2000
   -3.0671   -3.2544    1.3911 H   0  0  0  0  0  0  0  0  0  0  0  0
   -2.9466   -2.2246    1.0433 C   0  0  0  0  0  0  0  0  0  0  0  0
   -3.2311   -1.5459    1.8519 H   0  0  0  0  0  0  0  0  0  0  0  0
   -3.6070   -2.0606    0.1885 H   0  0  0  0  0  0  0  0  0  0  0  0
   -1.5041   -1.9694    0.6433 C   0  0  0  0  0  0  0  0  0  0  0  0
   -0.7156   -2.8948    0.6919 O   0  0  0  0  0  0  0  0  0  0  0  0
   -1.1702   -0.7038    0.2032 N   0  0  0  0  0  0  0  0  0  0  0  0
   -1.9163   -0.0285    0.3499 H   0  0  0  0  0  0  0  0  0  0  0  0
    0.1670   -0.0843    0.1981 C   0  0  1  0  0  0  0  0  0  0  0  0
    0.0497    0.8858   -0.2929 H   0  0  0  0  0  0  0  0  0  0  0  0
    0.5753    0.1715    1.6636 C   0  0  0  0  0  0  0  0  0  0  0  0
    0.5004   -0.7519    2.2454 H   0  0  0  0  0  0  0  0  0  0  0  0
    1.6171    0.4999    1.6958 H   0  0  0  0  0  0  0  0  0  0  0  0
   -0.2748    1.2662    2.3089 C   0  0  0  0  0  0  0  0  0  0  0  0
   -0.7469    2.1698    1.5698 O   0  5  0  0  0  0  0  0  0  0  0  0
   -0.4925    1.1761    3.5397 O   0  0  0  0  0  0  0  0  0  0  0  0
    1.2967   -0.7705   -0.6180 C   0  0  0  0  0  0  0  0  0  0  0  0
    1.8640   -1.8028   -0.2826 O   0  0  0  0  0  0  0  0  0  0  0  0
    1.8841   -0.0395   -1.6394 N   0  0  0  0  0  0  0  0  0  0  0  0
    1.5172    0.8933   -1.7987 H   0  0  0  0  0  0  0  0  0  0  0  0
    3.0999   -0.4454   -2.3304 C   0  0  0  0  0  0  0  0  0  0  0  0
    2.9720   -1.4348   -2.7812 H   0  0  0  0  0  0  0  0  0  0  0  0
    3.3354    0.2678   -3.1256 H   0  0  0  0  0  0  0  0  0  0  0  0
    3.9424   -0.4794   -1.6323 H   0  0  0  0  0  0  0  0  0  0  0  0
  1  2  1  0  0  0  0
  2  3  1  0  0  0  0
  2  4  1  0  0  0  0
  2  5  1  0  0  0  0
  5  6  2  0  0  0  0
  5  7  1  0  0  0  0
  7  8  1  0  0  0  0
  7  9  1  0  0  0  0
  9 10  1  0  0  0  0
  9 11  1  0  0  0  0
  9 17  1  0  0  0  0
 11 12  1  0  0  0  0
 11 13  1  0  0  0  0
 11 14  1  0  0  0  0
 14 15  1  0  0  0  0
 14 16  2  0  0  0  0
 17 18  2  0  0  0  0
 17 19  1  0  0  0  0
 19 20  1  0  0  0  0
 19 21  1  0  0  0  0
 21 22  1  0  0  0  0
 21 23  1  0  0  0  0
 21 24  1  0  0  0  0
M  CHG  1  15  -1
M  END
$$$$

  -OEChem-01062216073D

 24 23  0     1  0  0  0  0  0999 V2000
   -3.0614   -3.3396    1.2351 H   0  0  0  0  0  0  0  0  0  0  0  0
   -2.9346   -2.3371    0.8170 C   0  0  0  0  0  0  0  0  0  0  0  0
   -3.4773   -1.6242    1.4429 H   0  0  0  0  0  0  0  0  0  0  0  0
   -3.3533   -2.3204   -0.1919 H   0  0  0  0  0  0  0  0  0  0  0  0
   -1.4620   -1.9678    0.7728 C   0  0  0  0  0  0  0  0  0  0  0  0
   -0.6519   -2.7694    1.2046 O   0  0  0  0  0  0  0  0  0  0  0  0
   -1.1272   -0.7051    0.3216 N   0  0  0  0  0  0  0  0  0  0  0  0
   -1.9080   -0.0610    0.2436 H   0  0  0  0  0  0  0  0  0  0  0  0
    0.2047   -0.0769    0.3075 C   0  0  1  0  0  0  0  0  0  0  0  0
    0.0632    0.8698   -0.2213 H   0  0  0  0  0  0  0  0  0  0  0  0
    0.6372    0.2544    1.7502 C   0  0  0  0  0  0  0  0  0  0  0  0
    0.5707   -0.6384    2.3781 H   0  0  0  0  0  0  0  0  0  0  0  0
    1.6788    0.5844    1.7503 H   0  0  0  0  0  0  0  0  0  0  0  0
   -0.2021    1.3774    2.3606 C   0  0  0  0  0  0  0  0  0  0  0  0
   -0.6915    2.2438    1.5884 O   0  5  0  0  0  0  0  0  0  0  0  0
   -0.3346    1.3865    3.6068 O   0  0  0  0  0  0  0  0  0  0  0  0
    1.3438   -0.7522   -0.5042 C   0  0  0  0  0  0  0  0  0  0  0  0
    1.4779   -1.9587   -0.6625 O   0  0  0  0  0  0  0  0  0  0  0  0
    2.1323    0.0713   -1.2926 N   0  0  0  0  0  0  0  0  0  0  0  0
    2.0287    1.0714   -1.1483 H   0  0  0  0  0  0  0  0  0  0  0  0
    3.1992   -0.4106   -2.1584 C   0  0  0  0  0  0  0  0  0  0  0  0
    2.7969   -1.0821   -2.9237 H   0  0  0  0  0  0  0  0  0  0  0  0
    3.6854    0.4320   -2.6589 H   0  0  0  0  0  0  0  0  0  0  0  0
    3.9522   -0.9489   -1.5738 H   0  0  0  0  0  0  0  0  0  0  0  0
  1  2  1  0  0  0  0
  2  3  1  0  0  0  0
  2  4  1  0  0  0  0
  2  5  1  0  0  0  0
  5  6  2  0  0  0  0
  5  7  1  0  0  0  0
  7  8  1  0  0  0  0
  7  9  1  0  0  0  0
  9 10  1  0  0  0  0
  9 11  1  0  0  0  0
  9 17  1  0  0  0  0
 11 12  1  0  0  0  0
 11 13  1  0  0  0  0
 11 14  1  0  0  0  0
 14 15  1  0  0  0  0
 14 16  2  0  0  0  0
 17 18  2  0  0  0  0
 17 19  1  0  0  0  0
 19 20  1  0  0  0  0
 19 21  1  0  0  0  0
 21 22  1  0  0  0  0
 21 23  1  0  0  0  0
 21 24  1  0  0  0  0
M  CHG  1  15  -1
M  END
$$$$

  -OEChem-01062216073D

 24 23  0     1  0  0  0  0  0999 V2000
   -3.0220   -3.3670    1.1863 H   0  0  0  0  0  0  0  0  0  0  0  0
   -2.9122   -2.3535    0.7907 C   0  0  0  0  0  0  0  0  0  0  0  0
   -3.4793   -1.6655    1.4228 H   0  0  0  0  0  0  0  0  0  0  0  0
   -3.3172   -2.3252   -0.2235 H   0  0  0  0  0  0  0  0  0  0  0  0
   -1.4478   -1.9514    0.7748 C   0  0  0  0  0  0  0  0  0  0  0  0
   -0.6247   -2.7267    1.2341 O   0  0  0  0  0  0  0  0  0  0  0  0
   -1.1246   -0.6879    0.3180 N   0  0  0  0  0  0  0  0  0  0  0  0
   -1.9074   -0.0529    0.2009 H   0  0  0  0  0  0  0  0  0  0  0  0
    0.2086   -0.0653    0.3206 C   0  0  1  0  0  0  0  0  0  0  0  0
    0.0861    0.8801   -0.2160 H   0  0  0  0  0  0  0  0  0  0  0  0
    0.6346    0.2675    1.7664 C   0  0  0  0  0  0  0  0  0  0  0  0
    0.5612   -0.6228    2.3965 H   0  0  0  0  0  0  0  0  0  0  0  0
    1.6773    0.5936    1.7730 H   0  0  0  0  0  0  0  0  0  0  0  0
   -0.2009    1.3949    2.3722 C   0  0  0  0  0  0  0  0  0  0  0  0
   -0.6824    2.2632    1.5983 O   0  5  0  0  0  0  0  0  0  0  0  0
   -0.3266    1.4116    3.6191 O   0  0  0  0  0  0  0  0  0  0  0  0
    1.3404   -0.7649   -0.4779 C   0  0  0  0  0  0  0  0  0  0  0  0
    1.2536   -1.8940   -0.9483 O   0  0  0  0  0  0  0  0  0  0  0  0
    2.3332    0.0469   -1.0031 N   0  0  0  0  0  0  0  0  0  0  0  0
    2.3781    0.9962   -0.6436 H   0  0  0  0  0  0  0  0  0  0  0  0
    3.3898   -0.4264   -1.8859 C   0  0  0  0  0  0  0  0  0  0  0  0
    2.9663   -0.8035   -2.8222 H   0  0  0  0  0  0  0  0  0  0  0  0
    4.0763    0.3921   -2.1213 H   0  0  0  0  0  0  0  0  0  0  0  0
    3.9587   -1.2286   -1.4047 H   0  0  0  0  0  0  0  0  0  0  0  0
  1  2  1  0  0  0  0
  2  3  1  0  0  0  0
  2  4  1  0  0  0  0
  2  5  1  0  0  0  0
  5  6  2  0  0  0  0
  5  7  1  0  0  0  0
  7  8  1  0  0  0  0
  7  9  1  0  0  0  0
  9 10  1  0  0  0  0
  9 11  1  0  0  0  0
  9 17  1  0  0  0  0
 11 12  1  0  0  0  0
 11 13  1  0  0  0  0
 11 14  1  0  0  0  0
 14 15  1  0  0  0  0
 14 16  2  0  0  0  0
 17 18  2  0  0  0  0
 17 19  1  0  0  0  0
 19 20  1  0  0  0  0
 19 21  1  0  0  0  0
 21 22  1  0  0  0  0
 21 23  1  0  0  0  0
 21 24  1  0  0  0  0
M  CHG  1  15  -1
M  END
$$$$

  -OEChem-01062216073D

 24 23  0     1  0  0  0  0  0999 V2000
   -2.9925   -3.3561    1.1976 H   0  0  0  0  0  0  0  0  0  0  0  0
   -2.8959   -2.3428    0.7981 C   0  0  0  0  0  0  0  0  0  0  0  0
   -3.4522   -1.6561    1.4411 H   0  0  0  0  0  0  0  0  0  0  0  0
   -3.3227   -2.3178   -0.2073 H   0  0  0  0  0  0  0  0  0  0  0  0
   -1.4342   -1.9342    0.7496 C   0  0  0  0  0  0  0  0  0  0  0  0
   -0.5917   -2.7132    1.1681 O   0  0  0  0  0  0  0  0  0  0  0  0
   -1.1234   -0.6666    0.2963 N   0  0  0  0  0  0  0  0  0  0  0  0
   -1.9079   -0.0303    0.1981 H   0  0  0  0  0  0  0  0  0  0  0  0
    0.2090   -0.0437    0.3152 C   0  0  1  0  0  0  0  0  0  0  0  0
    0.1059    0.9086   -0.2137 H   0  0  0  0  0  0  0  0  0  0  0  0
    0.6187    0.2649    1.7732 C   0  0  0  0  0  0  0  0  0  0  0  0
    0.5393   -0.6357    2.3878 H   0  0  0  0  0  0  0  0  0  0  0  0
    1.6597    0.5932    1.8010 H   0  0  0  0  0  0  0  0  0  0  0  0
   -0.2253    1.3803    2.3887 C   0  0  0  0  0  0  0  0  0  0  0  0
   -0.6997    2.2616    1.6258 O   0  5  0  0  0  0  0  0  0  0  0  0
   -0.3657    1.3723    3.6341 O   0  0  0  0  0  0  0  0  0  0  0  0
    1.3306   -0.7613   -0.4809 C   0  0  0  0  0  0  0  0  0  0  0  0
    1.1320   -1.7543   -1.1747 O   0  0  0  0  0  0  0  0  0  0  0  0
    2.4898   -0.0470   -0.7371 N   0  0  0  0  0  0  0  0  0  0  0  0
    2.6235    0.8053   -0.2006 H   0  0  0  0  0  0  0  0  0  0  0  0
    3.5678   -0.5225   -1.5921 C   0  0  0  0  0  0  0  0  0  0  0  0
    3.2105   -0.6630   -2.6173 H   0  0  0  0  0  0  0  0  0  0  0  0
    4.3834    0.2065   -1.6071 H   0  0  0  0  0  0  0  0  0  0  0  0
    3.9596   -1.4741   -1.2186 H   0  0  0  0  0  0  0  0  0  0  0  0
  1  2  1  0  0  0  0
  2  3  1  0  0  0  0
  2  4  1  0  0  0  0
  2  5  1  0  0  0  0
  5  6  2  0  0  0  0
  5  7  1  0  0  0  0
  7  8  1  0  0  0  0
  7  9  1  0  0  0  0
  9 10  1  0  0  0  0
  9 11  1  0  0  0  0
  9 17  1  0  0  0  0
 11 12  1  0  0  0  0
 11 13  1  0  0  0  0
 11 14  1  0  0  0  0
 14 15  1  0  0  0  0
 14 16  2  0  0  0  0
 17 18  2  0  0  0  0
 17 19  1  0  0  0  0
 19 20  1  0  0  0  0
 19 21  1  0  0  0  0
 21 22  1  0  0  0  0
 21 23  1  0  0  0  0
 21 24  1  0  0  0  0
M  CHG  1  15  -1
M  END
$$$$

  -OEChem-01062216073D

 24 23  0     1  0  0  0  0  0999 V2000
   -2.8911   -3.3928    1.1999 H   0  0  0  0  0  0  0  0  0  0  0  0
   -2.8370   -2.3494    0.8774 C   0  0  0  0  0  0  0  0  0  0  0  0
   -3.2564   -1.7163    1.6636 H   0  0  0  0  0  0  0  0  0  0  0  0
   -3.4283   -2.2298   -0.0336 H   0  0  0  0  0  0  0  0  0  0  0  0
   -1.3947   -1.9552    0.6137 C   0  0  0  0  0  0  0  0  0  0  0  0
   -0.5161   -2.7940    0.7480 O   0  0  0  0  0  0  0  0  0  0  0  0
   -1.1267   -0.6625    0.2088 N   0  0  0  0  0  0  0  0  0  0  0  0
   -1.9133   -0.0263    0.2863 H   0  0  0  0  0  0  0  0  0  0  0  0
    0.1967   -0.0224    0.2723 C   0  0  1  0  0  0  0  0  0  0  0  0
    0.0415    1.0262    0.0012 H   0  0  0  0  0  0  0  0  0  0  0  0
    0.7609   -0.0423    1.7159 C   0  0  0  0  0  0  0  0  0  0  0  0
    0.7714   -1.0581    2.1173 H   0  0  0  0  0  0  0  0  0  0  0  0
    1.7911    0.3172    1.7143 H   0  0  0  0  0  0  0  0  0  0  0  0
   -0.0242    0.8732    2.6547 C   0  0  0  0  0  0  0  0  0  0  0  0
   -0.5881    1.8884    2.1707 O   0  5  0  0  0  0  0  0  0  0  0  0
   -0.0308    0.5728    3.8715 O   0  0  0  0  0  0  0  0  0  0  0  0
    1.1980   -0.5002   -0.8110 C   0  0  0  0  0  0  0  0  0  0  0  0
    0.8410   -1.1348   -1.8004 O   0  0  0  0  0  0  0  0  0  0  0  0
    2.4715    0.0438   -0.8299 N   0  0  0  0  0  0  0  0  0  0  0  0
    2.7463    0.5760   -0.0096 H   0  0  0  0  0  0  0  0  0  0  0  0
    3.4711   -0.2655   -1.8416 C   0  0  0  0  0  0  0  0  0  0  0  0
    3.1320    0.0645   -2.8287 H   0  0  0  0  0  0  0  0  0  0  0  0
    4.4099    0.2458   -1.6094 H   0  0  0  0  0  0  0  0  0  0  0  0
    3.6616   -1.3431   -1.8735 H   0  0  0  0  0  0  0  0  0  0  0  0
  1  2  1  0  0  0  0
  2  3  1  0  0  0  0
  2  4  1  0  0  0  0
  2  5  1  0  0  0  0
  5  6  2  0  0  0  0
  5  7  1  0  0  0  0
  7  8  1  0  0  0  0
  7  9  1  0  0  0  0
  9 10  1  0  0  0  0
  9 11  1  0  0  0  0
  9 17  1  0  0  0  0
 11 12  1  0  0  0  0
 11 13  1  0  0  0  0
 11 14  1  0  0  0  0
 14 15  1  0  0  0  0
 14 16  2  0  0  0  0
 17 18  2  0  0  0  0
 17 19  1  0  0  0  0
 19 20  1  0  0  0  0
 19 21  1  0  0  0  0
 21 22  1  0  0  0  0
 21 23  1  0  0  0  0
 21 24  1  0  0  0  0
M  CHG  1  15  -1
M  END
$$$$

  -OEChem-01062216073D

 24 23  0     1  0  0  0  0  0999 V2000
   -2.8563   -3.3860    1.1873 H   0  0  0  0  0  0  0  0  0  0  0  0
   -2.8130   -2.3425    0.8633 C   0  0  0  0  0  0  0  0  0  0  0  0
   -3.2346   -1.7122    1.6507 H   0  0  0  0  0  0  0  0  0  0  0  0
   -3.4095   -2.2293   -0.0450 H   0  0  0  0  0  0  0  0  0  0  0  0
   -1.3756   -1.9356    0.5927 C   0  0  0  0  0  0  0  0  0  0  0  0
   -0.4890   -2.7710    0.6944 O   0  0  0  0  0  0  0  0  0  0  0  0
   -1.1161   -0.6370    0.2045 N   0  0  0  0  0  0  0  0  0  0  0  0
   -1.9063   -0.0063    0.2915 H   0  0  0  0  0  0  0  0  0  0  0  0
    0.2021    0.0106    0.2895 C   0  0  1  0  0  0  0  0  0  0  0  0
    0.0532    1.0634    0.0318 H   0  0  0  0  0  0  0  0  0  0  0  0
    0.7485   -0.0319    1.7409 C   0  0  0  0  0  0  0  0  0  0  0  0
    0.7639   -1.0546    2.1244 H   0  0  0  0  0  0  0  0  0  0  0  0
    1.7737    0.3409    1.7620 H   0  0  0  0  0  0  0  0  0  0  0  0
   -0.0550    0.8614    2.6853 C   0  0  0  0  0  0  0  0  0  0  0  0
   -0.6204    1.8817    2.2149 O   0  5  0  0  0  0  0  0  0  0  0  0
   -0.0806    0.5317    3.8943 O   0  0  0  0  0  0  0  0  0  0  0  0
    1.1971   -0.4684   -0.8001 C   0  0  0  0  0  0  0  0  0  0  0  0
    0.8062   -0.8843   -1.8885 O   0  0  0  0  0  0  0  0  0  0  0  0
    2.5485   -0.1968   -0.6671 N   0  0  0  0  0  0  0  0  0  0  0  0
    2.8533    0.1190    0.2485 H   0  0  0  0  0  0  0  0  0  0  0  0
    3.5497   -0.5713   -1.6544 C   0  0  0  0  0  0  0  0  0  0  0  0
    3.3476   -0.0780   -2.6105 H   0  0  0  0  0  0  0  0  0  0  0  0
    4.5443   -0.2693   -1.3130 H   0  0  0  0  0  0  0  0  0  0  0  0
    3.5487   -1.6554   -1.8068 H   0  0  0  0  0  0  0  0  0  0  0  0
  1  2  1  0  0  0  0
  2  3  1  0  0  0  0
  2  4  1  0  0  0  0
  2  5  1  0  0  0  0
  5  6  2  0  0  0  0
  5  7  1  0  0  0  0
  7  8  1  0  0  0  0
  7  9  1  0  0  0  0
  9 10  1  0  0  0  0
  9 11  1  0  0  0  0
  9 17  1  0  0  0  0
 11 12  1  0  0  0  0
 11 13  1  0  0  0  0
 11 14  1  0  0  0  0
 14 15  1  0  0  0  0
 14 16  2  0  0  0  0
 17 18  2  0  0  0  0
 17 19  1  0  0  0  0
 19 20  1  0  0  0  0
 19 21  1  0  0  0  0
 21 22  1  0  0  0  0
 21 23  1  0  0  0  0
 21 24  1  0  0  0  0
M  CHG  1  15  -1
M  END
$$$$

  -OEChem-01062216073D

 24 23  0     1  0  0  0  0  0999 V2000
   -2.8193   -3.3834    1.1715 H   0  0  0  0  0  0  0  0  0  0  0  0
   -2.7881   -2.3376    0.8535 C   0  0  0  0  0  0  0  0  0  0  0  0
   -3.2061   -1.7156    1.6494 H   0  0  0  0  0  0  0  0  0  0  0  0
   -3.3955   -2.2231   -0.0474 H   0  0  0  0  0  0  0  0  0  0  0  0
   -1.3568   -1.9177    0.5703 C   0  0  0  0  0  0  0  0  0  0  0  0
   -0.4629   -2.7491    0.6412 O   0  0  0  0  0  0  0  0  0  0  0  0
   -1.1062   -0.6140    0.1944 N   0  0  0  0  0  0  0  0  0  0  0  0
   -1.8993    0.0117    0.2933 H   0  0  0  0  0  0  0  0  0  0  0  0
    0.2068    0.0401    0.3023 C   0  0  1  0  0  0  0  0  0  0  0  0
    0.0618    1.0961    0.0539 H   0  0  0  0  0  0  0  0  0  0  0  0
    0.7379   -0.0184    1.7589 C   0  0  0  0  0  0  0  0  0  0  0  0
    0.7599   -1.0459    2.1299 H   0  0  0  0  0  0  0  0  0  0  0  0
    1.7583    0.3676    1.7943 H   0  0  0  0  0  0  0  0  0  0  0  0
   -0.0815    0.8567    2.7061 C   0  0  0  0  0  0  0  0  0  0  0  0
   -0.6496    1.8798    2.2456 O   0  5  0  0  0  0  0  0  0  0  0  0
   -0.1221    0.5045    3.9084 O   0  0  0  0  0  0  0  0  0  0  0  0
    1.2021   -0.4392   -0.7863 C   0  0  0  0  0  0  0  0  0  0  0  0
    0.8294   -0.6314   -1.9416 O   0  0  0  0  0  0  0  0  0  0  0  0
    2.5629   -0.4631   -0.5323 N   0  0  0  0  0  0  0  0  0  0  0  0
    2.8293   -0.3881    0.4450 H   0  0  0  0  0  0  0  0  0  0  0  0
    3.5534   -0.9155   -1.4976 C   0  0  0  0  0  0  0  0  0  0  0  0
    3.5206   -0.2955   -2.3991 H   0  0  0  0  0  0  0  0  0  0  0  0
    4.5563   -0.8442   -1.0667 H   0  0  0  0  0  0  0  0  0  0  0  0
    3.3669   -1.9577   -1.7760 H   0  0  0  0  0  0  0  0  0  0  0  0
  1  2  1  0  0  0  0
  2  3  1  0  0  0  0
  2  4  1  0  0  0  0
  2  5  1  0  0  0  0
  5  6  2  0  0  0  0
  5  7  1  0  0  0  0
  7  8  1  0  0  0  0
  7  9  1  0  0  0  0
  9 10  1  0  0  0  0
  9 11  1  0  0  0  0
  9 17  1  0  0  0  0
 11 12  1  0  0  0  0
 11 13  1  0  0  0  0
 11 14  1  0  0  0  0
 14 15  1  0  0  0  0
 14 16  2  0  0  0  0
 17 18  2  0  0  0  0
 17 19  1  0  0  0  0
 19 20  1  0  0  0  0
 19 21  1  0  0  0  0
 21 22  1  0  0  0  0
 21 23  1  0  0  0  0
 21 24  1  0  0  0  0
M  CHG  1  15  -1
M  END
$$$$

  -OEChem-01062216073D

 24 23  0     1  0  0  0  0  0999 V2000
   -2.7946   -3.3686    1.1796 H   0  0  0  0  0  0  0  0  0  0  0  0
   -2.7698   -2.3257    0.8518 C   0  0  0  0  0  0  0  0  0  0  0  0
   -3.1818   -1.6985    1.6468 H   0  0  0  0  0  0  0  0  0  0  0  0
   -3.3870   -2.2206   -0.0437 H   0  0  0  0  0  0  0  0  0  0  0  0
   -1.3428   -1.9036    0.5512 C   0  0  0  0  0  0  0  0  0  0  0  0
   -0.4464   -2.7341    0.5996 O   0  0  0  0  0  0  0  0  0  0  0  0
   -1.0954   -0.5978    0.1816 N   0  0  0  0  0  0  0  0  0  0  0  0
   -1.8892    0.0257    0.2916 H   0  0  0  0  0  0  0  0  0  0  0  0
    0.2138    0.0590    0.3098 C   0  0  1  0  0  0  0  0  0  0  0  0
    0.0724    1.1170    0.0680 H   0  0  0  0  0  0  0  0  0  0  0  0
    0.7307   -0.0130    1.7701 C   0  0  0  0  0  0  0  0  0  0  0  0
    0.7538   -1.0437    2.1315 H   0  0  0  0  0  0  0  0  0  0  0  0
    1.7496    0.3775    1.8139 H   0  0  0  0  0  0  0  0  0  0  0  0
   -0.1015    0.8494    2.7177 C   0  0  0  0  0  0  0  0  0  0  0  0
   -0.6693    1.8753    2.2638 O   0  5  0  0  0  0  0  0  0  0  0  0
   -0.1652    0.4739    3.9120 O   0  0  0  0  0  0  0  0  0  0  0  0
    1.2155   -0.4219   -0.7704 C   0  0  0  0  0  0  0  0  0  0  0  0
    0.9096   -0.3991   -1.9604 O   0  0  0  0  0  0  0  0  0  0  0  0
    2.5181   -0.7465   -0.4329 N   0  0  0  0  0  0  0  0  0  0  0  0
    2.6880   -0.8834    0.5595 H   0  0  0  0  0  0  0  0  0  0  0  0
    3.4853   -1.2667   -1.3871 C   0  0  0  0  0  0  0  0  0  0  0  0
    3.6421   -0.5520   -2.2012 H   0  0  0  0  0  0  0  0  0  0  0  0
    4.4448   -1.4398   -0.8910 H   0  0  0  0  0  0  0  0  0  0  0  0
    3.1344   -2.2143   -1.8083 H   0  0  0  0  0  0  0  0  0  0  0  0
  1  2  1  0  0  0  0
  2  3  1  0  0  0  0
  2  4  1  0  0  0  0
  2  5  1  0  0  0  0
  5  6  2  0  0  0  0
  5  7  1  0  0  0  0
  7  8  1  0  0  0  0
  7  9  1  0  0  0  0
  9 10  1  0  0  0  0
  9 11  1  0  0  0  0
  9 17  1  0  0  0  0
 11 12  1  0  0  0  0
 11 13  1  0  0  0  0
 11 14  1  0  0  0  0
 14 15  1  0  0  0  0
 14 16  2  0  0  0  0
 17 18  2  0  0  0  0
 17 19  1  0  0  0  0
 19 20  1  0  0  0  0
 19 21  1  0  0  0  0
 21 22  1  0  0  0  0
 21 23  1  0  0  0  0
 21 24  1  0  0  0  0
M  CHG  1  15  -1
M  END
$$$$

  -OEChem-01062216073D

 24 23  0     1  0  0  0  0  0999 V2000
   -2.7777   -3.3721    1.1410 H   0  0  0  0  0  0  0  0  0  0  0  0
   -2.7523   -2.3185    0.8496 C   0  0  0  0  0  0  0  0  0  0  0  0
   -3.1475   -1.7170    1.6725 H   0  0  0  0  0  0  0  0  0  0  0  0
   -3.3833   -2.1789   -0.0314 H   0  0  0  0  0  0  0  0  0  0  0  0
   -1.3283   -1.8930    0.5410 C   0  0  0  0  0  0  0  0  0  0  0  0
   -0.4292   -2.7217    0.5770 O   0  0  0  0  0  0  0  0  0  0  0  0
   -1.0849   -0.5871    0.1691 N   0  0  0  0  0  0  0  0  0  0  0  0
   -1.8800    0.0341    0.2861 H   0  0  0  0  0  0  0  0  0  0  0  0
    0.2203    0.0734    0.3134 C   0  0  1  0  0  0  0  0  0  0  0  0
    0.0813    1.1322    0.0717 H   0  0  0  0  0  0  0  0  0  0  0  0
    0.7278   -0.0038    1.7758 C   0  0  0  0  0  0  0  0  0  0  0  0
    0.7516   -1.0357    2.1341 H   0  0  0  0  0  0  0  0  0  0  0  0
    1.7469    0.3873    1.8218 H   0  0  0  0  0  0  0  0  0  0  0  0
   -0.1139    0.8500    2.7226 C   0  0  0  0  0  0  0  0  0  0  0  0
   -0.6834    1.8759    2.2710 O   0  5  0  0  0  0  0  0  0  0  0  0
   -0.1924    0.4614    3.9119 O   0  0  0  0  0  0  0  0  0  0  0  0
    1.2307   -0.4133   -0.7536 C   0  0  0  0  0  0  0  0  0  0  0  0
    1.0320   -0.1932   -1.9460 O   0  0  0  0  0  0  0  0  0  0  0  0
    2.4130   -1.0244   -0.3758 N   0  0  0  0  0  0  0  0  0  0  0  0
    2.4323   -1.3509    0.5871 H   0  0  0  0  0  0  0  0  0  0  0  0
    3.3437   -1.6107   -1.3277 C   0  0  0  0  0  0  0  0  0  0  0  0
    3.7042   -0.8511   -2.0287 H   0  0  0  0  0  0  0  0  0  0  0  0
    4.2057   -2.0283   -0.7995 H   0  0  0  0  0  0  0  0  0  0  0  0
    2.8579   -2.4132   -1.8919 H   0  0  0  0  0  0  0  0  0  0  0  0
  1  2  1  0  0  0  0
  2  3  1  0  0  0  0
  2  4  1  0  0  0  0
  2  5  1  0  0  0  0
  5  6  2  0  0  0  0
  5  7  1  0  0  0  0
  7  8  1  0  0  0  0
  7  9  1  0  0  0  0
  9 10  1  0  0  0  0
  9 11  1  0  0  0  0
  9 17  1  0  0  0  0
 11 12  1  0  0  0  0
 11 13  1  0  0  0  0
 11 14  1  0  0  0  0
 14 15  1  0  0  0  0
 14 16  2  0  0  0  0
 17 18  2  0  0  0  0
 17 19  1  0  0  0  0
 19 20  1  0  0  0  0
 19 21  1  0  0  0  0
 21 22  1  0  0  0  0
 21 23  1  0  0  0  0
 21 24  1  0  0  0  0
M  CHG  1  15  -1
M  END
$$$$

  -OEChem-01062216073D

 24 23  0     1  0  0  0  0  0999 V2000
   -2.7642   -3.3586    1.1573 H   0  0  0  0  0  0  0  0  0  0  0  0
   -2.7417   -2.3077    0.8560 C   0  0  0  0  0  0  0  0  0  0  0  0
   -3.1324   -1.6989    1.6759 H   0  0  0  0  0  0  0  0  0  0  0  0
   -3.3780   -2.1771   -0.0225 H   0  0  0  0  0  0  0  0  0  0  0  0
   -1.3199   -1.8841    0.5350 C   0  0  0  0  0  0  0  0  0  0  0  0
   -0.4205   -2.7134    0.5679 O   0  0  0  0  0  0  0  0  0  0  0  0
   -1.0753   -0.5797    0.1570 N   0  0  0  0  0  0  0  0  0  0  0  0
   -1.8693    0.0425    0.2785 H   0  0  0  0  0  0  0  0  0  0  0  0
    0.2290    0.0802    0.3139 C   0  0  1  0  0  0  0  0  0  0  0  0
    0.0950    1.1398    0.0729 H   0  0  0  0  0  0  0  0  0  0  0  0
    0.7269   -0.0035    1.7782 C   0  0  0  0  0  0  0  0  0  0  0  0
    0.7483   -1.0361    2.1339 H   0  0  0  0  0  0  0  0  0  0  0  0
    1.7476    0.3841    1.8269 H   0  0  0  0  0  0  0  0  0  0  0  0
   -0.1210    0.8457    2.7234 C   0  0  0  0  0  0  0  0  0  0  0  0
   -0.6881    1.8736    2.2735 O   0  5  0  0  0  0  0  0  0  0  0  0
   -0.2227    0.4404    3.9055 O   0  0  0  0  0  0  0  0  0  0  0  0
    1.2478   -0.4161   -0.7383 C   0  0  0  0  0  0  0  0  0  0  0  0
    1.2018   -0.0072   -1.8959 O   0  0  0  0  0  0  0  0  0  0  0  0
    2.2545   -1.2893   -0.3699 N   0  0  0  0  0  0  0  0  0  0  0  0
    2.0737   -1.7777    0.5054 H   0  0  0  0  0  0  0  0  0  0  0  0
    3.1473   -1.9151   -1.3323 C   0  0  0  0  0  0  0  0  0  0  0  0
    3.7011   -1.1550   -1.8924 H   0  0  0  0  0  0  0  0  0  0  0  0
    3.8680   -2.5536   -0.8130 H   0  0  0  0  0  0  0  0  0  0  0  0
    2.5786   -2.5310   -2.0362 H   0  0  0  0  0  0  0  0  0  0  0  0
  1  2  1  0  0  0  0
  2  3  1  0  0  0  0
  2  4  1  0  0  0  0
  2  5  1  0  0  0  0
  5  6  2  0  0  0  0
  5  7  1  0  0  0  0
  7  8  1  0  0  0  0
  7  9  1  0  0  0  0
  9 10  1  0  0  0  0
  9 11  1  0  0  0  0
  9 17  1  0  0  0  0
 11 12  1  0  0  0  0
 11 13  1  0  0  0  0
 11 14  1  0  0  0  0
 14 15  1  0  0  0  0
 14 16  2  0  0  0  0
 17 18  2  0  0  0  0
 17 19  1  0  0  0  0
 19 20  1  0  0  0  0
 19 21  1  0  0  0  0
 21 22  1  0  0  0  0
 21 23  1  0  0  0  0
 21 24  1  0  0  0  0
M  CHG  1  15  -1
M  END
$$$$

  -OEChem-01062216073D

 24 23  0     1  0  0  0  0  0999 V2000
   -2.7945   -3.3429    1.1746 H   0  0  0  0  0  0  0  0  0  0  0  0
   -2.7585   -2.2912    0.8770 C   0  0  0  0  0  0  0  0  0  0  0  0
   -3.1340   -1.6804    1.7025 H   0  0  0  0  0  0  0  0  0  0  0  0
   -3.4005   -2.1476    0.0047 H   0  0  0  0  0  0  0  0  0  0  0  0
   -1.3329   -1.8874    0.5467 C   0  0  0  0  0  0  0  0  0  0  0  0
   -0.4436   -2.7280    0.5839 O   0  0  0  0  0  0  0  0  0  0  0  0
   -1.0754   -0.5890    0.1546 N   0  0  0  0  0  0  0  0  0  0  0  0
   -1.8644    0.0399    0.2768 H   0  0  0  0  0  0  0  0  0  0  0  0
    0.2316    0.0683    0.3091 C   0  0  1  0  0  0  0  0  0  0  0  0
    0.1004    1.1273    0.0626 H   0  0  0  0  0  0  0  0  0  0  0  0
    0.7274   -0.0122    1.7727 C   0  0  0  0  0  0  0  0  0  0  0  0
    0.7465   -1.0436    2.1321 H   0  0  0  0  0  0  0  0  0  0  0  0
    1.7499    0.3703    1.8186 H   0  0  0  0  0  0  0  0  0  0  0  0
   -0.1197    0.8429    2.7138 C   0  0  0  0  0  0  0  0  0  0  0  0
   -0.6834    1.8708    2.2592 O   0  5  0  0  0  0  0  0  0  0  0  0
   -0.2341    0.4363    3.8943 O   0  0  0  0  0  0  0  0  0  0  0  0
    1.2596   -0.4395   -0.7280 C   0  0  0  0  0  0  0  0  0  0  0  0
    1.3970    0.1291   -1.8081 O   0  0  0  0  0  0  0  0  0  0  0  0
    2.0572   -1.5276   -0.4280 N   0  0  0  0  0  0  0  0  0  0  0  0
    1.6750   -2.1108    0.3186 H   0  0  0  0  0  0  0  0  0  0  0  0
    2.9327   -2.1554   -1.4043 C   0  0  0  0  0  0  0  0  0  0  0  0
    3.6653   -1.4347   -1.7816 H   0  0  0  0  0  0  0  0  0  0  0  0
    3.4735   -2.9859   -0.9413 H   0  0  0  0  0  0  0  0  0  0  0  0
    2.3498   -2.5435   -2.2456 H   0  0  0  0  0  0  0  0  0  0  0  0
  1  2  1  0  0  0  0
  2  3  1  0  0  0  0
  2  4  1  0  0  0  0
  2  5  1  0  0  0  0
  5  6  2  0  0  0  0
  5  7  1  0  0  0  0
  7  8  1  0  0  0  0
  7  9  1  0  0  0  0
  9 10  1  0  0  0  0
  9 11  1  0  0  0  0
  9 17  1  0  0  0  0
 11 12  1  0  0  0  0
 11 13  1  0  0  0  0
 11 14  1  0  0  0  0
 14 15  1  0  0  0  0
 14 16  2  0  0  0  0
 17 18  2  0  0  0  0
 17 19  1  0  0  0  0
 19 20  1  0  0  0  0
 19 21  1  0  0  0  0
 21 22  1  0  0  0  0
 21 23  1  0  0  0  0
 21 24  1  0  0  0  0
M  CHG  1  15  -1
M  END
$$$$

  -OEChem-01062216073D

 24 23  0     1  0  0  0  0  0999 V2000
   -2.8690   -3.2979    1.2428 H   0  0  0  0  0  0  0  0  0  0  0  0
   -2.8081   -2.2576    0.9115 C   0  0  0  0  0  0  0  0  0  0  0  0
   -3.1689   -1.6118    1.7169 H   0  0  0  0  0  0  0  0  0  0  0  0
   -3.4463   -2.1271    0.0343 H   0  0  0  0  0  0  0  0  0  0  0  0
   -1.3738   -1.8980    0.5694 C   0  0  0  0  0  0  0  0  0  0  0  0
   -0.5122   -2.7664    0.6063 O   0  0  0  0  0  0  0  0  0  0  0  0
   -1.0868   -0.6101    0.1617 N   0  0  0  0  0  0  0  0  0  0  0  0
   -1.8660    0.0318    0.2828 H   0  0  0  0  0  0  0  0  0  0  0  0
    0.2265    0.0437    0.2991 C   0  0  1  0  0  0  0  0  0  0  0  0
    0.0953    1.1017    0.0479 H   0  0  0  0  0  0  0  0  0  0  0  0
    0.7246   -0.0362    1.7601 C   0  0  0  0  0  0  0  0  0  0  0  0
    0.7397   -1.0676    2.1198 H   0  0  0  0  0  0  0  0  0  0  0  0
    1.7495    0.3410    1.8022 H   0  0  0  0  0  0  0  0  0  0  0  0
   -0.1168    0.8265    2.7000 C   0  0  0  0  0  0  0  0  0  0  0  0
   -0.6754    1.8560    2.2428 O   0  5  0  0  0  0  0  0  0  0  0  0
   -0.2400    0.4195    3.8797 O   0  0  0  0  0  0  0  0  0  0  0  0
    1.2689   -0.4674   -0.7232 C   0  0  0  0  0  0  0  0  0  0  0  0
    1.5914    0.2201   -1.6883 O   0  0  0  0  0  0  0  0  0  0  0  0
    1.8538   -1.7078   -0.5564 N   0  0  0  0  0  0  0  0  0  0  0  0
    1.3460   -2.3166    0.0920 H   0  0  0  0  0  0  0  0  0  0  0  0
    2.7177   -2.3238   -1.5505 C   0  0  0  0  0  0  0  0  0  0  0  0
    3.5831   -1.6854   -1.7547 H   0  0  0  0  0  0  0  0  0  0  0  0
    3.0806   -3.2882   -1.1831 H   0  0  0  0  0  0  0  0  0  0  0  0
    2.1696   -2.4884   -2.4836 H   0  0  0  0  0  0  0  0  0  0  0  0
  1  2  1  0  0  0  0
  2  3  1  0  0  0  0
  2  4  1  0  0  0  0
  2  5  1  0  0  0  0
  5  6  2  0  0  0  0
  5  7  1  0  0  0  0
  7  8  1  0  0  0  0
  7  9  1  0  0  0  0
  9 10  1  0  0  0  0
  9 11  1  0  0  0  0
  9 17  1  0  0  0  0
 11 12  1  0  0  0  0
 11 13  1  0  0  0  0
 11 14  1  0  0  0  0
 14 15  1  0  0  0  0
 14 16  2  0  0  0  0
 17 18  2  0  0  0  0
 17 19  1  0  0  0  0
 19 20  1  0  0  0  0
 19 21  1  0  0  0  0
 21 22  1  0  0  0  0
 21 23  1  0  0  0  0
 21 24  1  0  0  0  0
M  CHG  1  15  -1
M  END
$$$$

  -OEChem-01062216073D

 24 23  0     1  0  0  0  0  0999 V2000
   -2.9590   -3.2587    1.2915 H   0  0  0  0  0  0  0  0  0  0  0  0
   -2.8668   -2.2181    0.9680 C   0  0  0  0  0  0  0  0  0  0  0  0
   -3.1841   -1.5674    1.7875 H   0  0  0  0  0  0  0  0  0  0  0  0
   -3.5201   -2.0552    0.1076 H   0  0  0  0  0  0  0  0  0  0  0  0
   -1.4284   -1.9081    0.5957 C   0  0  0  0  0  0  0  0  0  0  0  0
   -0.5981   -2.8058    0.6230 O   0  0  0  0  0  0  0  0  0  0  0  0
   -1.1128   -0.6322    0.1706 N   0  0  0  0  0  0  0  0  0  0  0  0
   -1.8795    0.0242    0.2949 H   0  0  0  0  0  0  0  0  0  0  0  0
    0.2095    0.0132    0.2812 C   0  0  1  0  0  0  0  0  0  0  0  0
    0.0787    1.0696    0.0230 H   0  0  0  0  0  0  0  0  0  0  0  0
    0.7141   -0.0624    1.7395 C   0  0  0  0  0  0  0  0  0  0  0  0
    0.7199   -1.0923    2.1040 H   0  0  0  0  0  0  0  0  0  0  0  0
    1.7431    0.3038    1.7758 H   0  0  0  0  0  0  0  0  0  0  0  0
   -0.1144    0.8155    2.6771 C   0  0  0  0  0  0  0  0  0  0  0  0
   -0.6649    1.8475    2.2152 O   0  5  0  0  0  0  0  0  0  0  0  0
   -0.2410    0.4151    3.8587 O   0  0  0  0  0  0  0  0  0  0  0  0
    1.2603   -0.5011   -0.7335 C   0  0  0  0  0  0  0  0  0  0  0  0
    1.7587    0.2622   -1.5559 O   0  0  0  0  0  0  0  0  0  0  0  0
    1.6369   -1.8296   -0.7542 N   0  0  0  0  0  0  0  0  0  0  0  0
    1.0710   -2.4473   -0.1644 H   0  0  0  0  0  0  0  0  0  0  0  0
    2.5140   -2.4141   -1.7556 C   0  0  0  0  0  0  0  0  0  0  0  0
    3.4829   -1.9049   -1.7591 H   0  0  0  0  0  0  0  0  0  0  0  0
    2.6808   -3.4722   -1.5338 H   0  0  0  0  0  0  0  0  0  0  0  0
    2.0657   -2.3328   -2.7508 H   0  0  0  0  0  0  0  0  0  0  0  0
  1  2  1  0  0  0  0
  2  3  1  0  0  0  0
  2  4  1  0  0  0  0
  2  5  1  0  0  0  0
  5  6  2  0  0  0  0
  5  7  1  0  0  0  0
  7  8  1  0  0  0  0
  7  9  1  0  0  0  0
  9 10  1  0  0  0  0
  9 11  1  0  0  0  0
  9 17  1  0  0  0  0
 11 12  1  0  0  0  0
 11 13  1  0  0  0  0
 11 14  1  0  0  0  0
 14 15  1  0  0  0  0
 14 16  2  0  0  0  0
 17 18  2  0  0  0  0
 17 19  1  0  0  0  0
 19 20  1  0  0  0  0
 19 21  1  0  0  0  0
 21 22  1  0  0  0  0
 21 23  1  0  0  0  0
 21 24  1  0  0  0  0
M  CHG  1  15  -1
M  END
$$$$

  -OEChem-01062216073D

 24 23  0     1  0  0  0  0  0999 V2000
   -3.0286   -3.2321    1.3476 H   0  0  0  0  0  0  0  0  0  0  0  0
   -2.9212   -2.1866    1.0459 C   0  0  0  0  0  0  0  0  0  0  0  0
   -3.1804   -1.5483    1.8951 H   0  0  0  0  0  0  0  0  0  0  0  0
   -3.6098   -1.9830    0.2223 H   0  0  0  0  0  0  0  0  0  0  0  0
   -1.4931   -1.9073    0.6135 C   0  0  0  0  0  0  0  0  0  0  0  0
   -0.6848   -2.8248    0.5980 O   0  0  0  0  0  0  0  0  0  0  0  0
   -1.1691   -0.6364    0.1794 N   0  0  0  0  0  0  0  0  0  0  0  0
   -1.9196    0.0308    0.3406 H   0  0  0  0  0  0  0  0  0  0  0  0
    0.1645   -0.0050    0.2445 C   0  0  1  0  0  0  0  0  0  0  0  0
    0.0334    1.0531   -0.0061 H   0  0  0  0  0  0  0  0  0  0  0  0
    0.7109   -0.0927    1.6858 C   0  0  0  0  0  0  0  0  0  0  0  0
    0.7166   -1.1248    2.0446 H   0  0  0  0  0  0  0  0  0  0  0  0
    1.7447    0.2621    1.6925 H   0  0  0  0  0  0  0  0  0  0  0  0
   -0.0792    0.7908    2.6508 C   0  0  0  0  0  0  0  0  0  0  0  0
   -0.6312    1.8312    2.2097 O   0  5  0  0  0  0  0  0  0  0  0  0
   -0.1826    0.3826    3.8318 O   0  0  0  0  0  0  0  0  0  0  0  0
    1.1928   -0.5158   -0.7966 C   0  0  0  0  0  0  0  0  0  0  0  0
    1.8796    0.2793   -1.4315 O   0  0  0  0  0  0  0  0  0  0  0  0
    1.3529   -1.8634   -1.0512 N   0  0  0  0  0  0  0  0  0  0  0  0
    0.7790   -2.4916   -0.4811 H   0  0  0  0  0  0  0  0  0  0  0  0
    2.3360   -2.4212   -1.9651 C   0  0  0  0  0  0  0  0  0  0  0  0
    3.3478   -2.1419   -1.6545 H   0  0  0  0  0  0  0  0  0  0  0  0
    2.2636   -3.5127   -1.9702 H   0  0  0  0  0  0  0  0  0  0  0  0
    2.1623   -2.0571   -2.9825 H   0  0  0  0  0  0  0  0  0  0  0  0
  1  2  1  0  0  0  0
  2  3  1  0  0  0  0
  2  4  1  0  0  0  0
  2  5  1  0  0  0  0
  5  6  2  0  0  0  0
  5  7  1  0  0  0  0
  7  8  1  0  0  0  0
  7  9  1  0  0  0  0
  9 10  1  0  0  0  0
  9 11  1  0  0  0  0
  9 17  1  0  0  0  0
 11 12  1  0  0  0  0
 11 13  1  0  0  0  0
 11 14  1  0  0  0  0
 14 15  1  0  0  0  0
 14 16  2  0  0  0  0
 17 18  2  0  0  0  0
 17 19  1  0  0  0  0
 19 20  1  0  0  0  0
 19 21  1  0  0  0  0
 21 22  1  0  0  0  0
 21 23  1  0  0  0  0
 21 24  1  0  0  0  0
M  CHG  1  15  -1
M  END
$$$$

  -OEChem-01062216073D

 24 23  0     1  0  0  0  0  0999 V2000
   -3.0135   -3.2136    1.4309 H   0  0  0  0  0  0  0  0  0  0  0  0
   -2.9191   -2.1705    1.1165 C   0  0  0  0  0  0  0  0  0  0  0  0
   -3.1271   -1.5261    1.9754 H   0  0  0  0  0  0  0  0  0  0  0  0
   -3.6519   -1.9687    0.3316 H   0  0  0  0  0  0  0  0  0  0  0  0
   -1.5167   -1.9006    0.6026 C   0  0  0  0  0  0  0  0  0  0  0  0
   -0.7241   -2.8272    0.5104 O   0  0  0  0  0  0  0  0  0  0  0  0
   -1.2000   -0.6271    0.1715 N   0  0  0  0  0  0  0  0  0  0  0  0
   -1.9382    0.0420    0.3777 H   0  0  0  0  0  0  0  0  0  0  0  0
    0.1394   -0.0051    0.2213 C   0  0  1  0  0  0  0  0  0  0  0  0
    0.0120    1.0554   -0.0207 H   0  0  0  0  0  0  0  0  0  0  0  0
    0.6949   -0.1113    1.6581 C   0  0  0  0  0  0  0  0  0  0  0  0
    0.6953   -1.1470    2.0068 H   0  0  0  0  0  0  0  0  0  0  0  0
    1.7314    0.2357    1.6623 H   0  0  0  0  0  0  0  0  0  0  0  0
   -0.0829    0.7707    2.6347 C   0  0  0  0  0  0  0  0  0  0  0  0
   -0.6288    1.8194    2.2056 O   0  5  0  0  0  0  0  0  0  0  0  0
   -0.1972    0.3445    3.8085 O   0  0  0  0  0  0  0  0  0  0  0  0
    1.1569   -0.5071   -0.8359 C   0  0  0  0  0  0  0  0  0  0  0  0
    2.0118    0.2545   -1.2782 O   0  0  0  0  0  0  0  0  0  0  0  0
    1.1138   -1.7951   -1.3335 N   0  0  0  0  0  0  0  0  0  0  0  0
    0.4972   -2.4303   -0.8195 H   0  0  0  0  0  0  0  0  0  0  0  0
    2.1264   -2.3578   -2.2125 C   0  0  0  0  0  0  0  0  0  0  0  0
    3.1010   -2.3677   -1.7144 H   0  0  0  0  0  0  0  0  0  0  0  0
    1.8608   -3.3848   -2.4792 H   0  0  0  0  0  0  0  0  0  0  0  0
    2.2036   -1.7710   -3.1333 H   0  0  0  0  0  0  0  0  0  0  0  0
  1  2  1  0  0  0  0
  2  3  1  0  0  0  0
  2  4  1  0  0  0  0
  2  5  1  0  0  0  0
  5  6  2  0  0  0  0
  5  7  1  0  0  0  0
  7  8  1  0  0  0  0
  7  9  1  0  0  0  0
  9 10  1  0  0  0  0
  9 11  1  0  0  0  0
  9 17  1  0  0  0  0
 11 12  1  0  0  0  0
 11 13  1  0  0  0  0
 11 14  1  0  0  0  0
 14 15  1  0  0  0  0
 14 16  2  0  0  0  0
 17 18  2  0  0  0  0
 17 19  1  0  0  0  0
 19 20  1  0  0  0  0
 19 21  1  0  0  0  0
 21 22  1  0  0  0  0
 21 23  1  0  0  0  0
 21 24  1  0  0  0  0
M  CHG  1  15  -1
M  END
$$$$

  -OEChem-01062216073D

 24 23  0     1  0  0  0  0  0999 V2000
   -2.9604   -3.2209    1.4509 H   0  0  0  0  0  0  0  0  0  0  0  0
   -2.8762   -2.1673    1.1708 C   0  0  0  0  0  0  0  0  0  0  0  0
   -3.0160   -1.5549    2.0660 H   0  0  0  0  0  0  0  0  0  0  0  0
   -3.6598   -1.9285    0.4479 H   0  0  0  0  0  0  0  0  0  0  0  0
   -1.5099   -1.8897    0.5715 C   0  0  0  0  0  0  0  0  0  0  0  0
   -0.7350   -2.8158    0.3798 O   0  0  0  0  0  0  0  0  0  0  0  0
   -1.2092   -0.6107    0.1479 N   0  0  0  0  0  0  0  0  0  0  0  0
   -1.9395    0.0520    0.3991 H   0  0  0  0  0  0  0  0  0  0  0  0
    0.1310    0.0095    0.2088 C   0  0  1  0  0  0  0  0  0  0  0  0
    0.0102    1.0725   -0.0245 H   0  0  0  0  0  0  0  0  0  0  0  0
    0.6720   -0.1167    1.6499 C   0  0  0  0  0  0  0  0  0  0  0  0
    0.6674   -1.1568    1.9857 H   0  0  0  0  0  0  0  0  0  0  0  0
    1.7089    0.2284    1.6703 H   0  0  0  0  0  0  0  0  0  0  0  0
   -0.1156    0.7556    2.6270 C   0  0  0  0  0  0  0  0  0  0  0  0
   -0.6543    1.8102    2.2032 O   0  5  0  0  0  0  0  0  0  0  0  0
   -0.2620    0.3057    3.7882 O   0  0  0  0  0  0  0  0  0  0  0  0
    1.1501   -0.4875   -0.8495 C   0  0  0  0  0  0  0  0  0  0  0  0
    2.1425    0.1842   -1.1155 O   0  0  0  0  0  0  0  0  0  0  0  0
    0.9293   -1.6442   -1.5731 N   0  0  0  0  0  0  0  0  0  0  0  0
    0.2425   -2.2690   -1.1430 H   0  0  0  0  0  0  0  0  0  0  0  0
    1.9165   -2.2228   -2.4712 C   0  0  0  0  0  0  0  0  0  0  0  0
    2.8104   -2.5204   -1.9139 H   0  0  0  0  0  0  0  0  0  0  0  0
    1.5004   -3.1070   -2.9628 H   0  0  0  0  0  0  0  0  0  0  0  0
    2.2031   -1.5022   -3.2440 H   0  0  0  0  0  0  0  0  0  0  0  0
  1  2  1  0  0  0  0
  2  3  1  0  0  0  0
  2  4  1  0  0  0  0
  2  5  1  0  0  0  0
  5  6  2  0  0  0  0
  5  7  1  0  0  0  0
  7  8  1  0  0  0  0
  7  9  1  0  0  0  0
  9 10  1  0  0  0  0
  9 11  1  0  0  0  0
  9 17  1  0  0  0  0
 11 12  1  0  0  0  0
 11 13  1  0  0  0  0
 11 14  1  0  0  0  0
 14 15  1  0  0  0  0
 14 16  2  0  0  0  0
 17 18  2  0  0  0  0
 17 19  1  0  0  0  0
 19 20  1  0  0  0  0
 19 21  1  0  0  0  0
 21 22  1  0  0  0  0
 21 23  1  0  0  0  0
 21 24  1  0  0  0  0
M  CHG  1  15  -1
M  END
$$$$

  -OEChem-01062216073D

 24 23  0     1  0  0  0  0  0999 V2000
   -2.8991   -3.2341    1.4356 H   0  0  0  0  0  0  0  0  0  0  0  0
   -2.8149   -2.1677    1.2090 C   0  0  0  0  0  0  0  0  0  0  0  0
   -2.8779   -1.6043    2.1445 H   0  0  0  0  0  0  0  0  0  0  0  0
   -3.6434   -1.8755    0.5594 H   0  0  0  0  0  0  0  0  0  0  0  0
   -1.4899   -1.8778    0.5289 C   0  0  0  0  0  0  0  0  0  0  0  0
   -0.7398   -2.7965    0.2336 O   0  0  0  0  0  0  0  0  0  0  0  0
   -1.2044   -0.5925    0.1185 N   0  0  0  0  0  0  0  0  0  0  0  0
   -1.9277    0.0620    0.4102 H   0  0  0  0  0  0  0  0  0  0  0  0
    0.1358    0.0228    0.2084 C   0  0  1  0  0  0  0  0  0  0  0  0
    0.0270    1.0882   -0.0186 H   0  0  0  0  0  0  0  0  0  0  0  0
    0.6487   -0.1220    1.6590 C   0  0  0  0  0  0  0  0  0  0  0  0
    0.6369   -1.1659    1.9827 H   0  0  0  0  0  0  0  0  0  0  0  0
    1.6853    0.2211    1.7054 H   0  0  0  0  0  0  0  0  0  0  0  0
   -0.1570    0.7427    2.6282 C   0  0  0  0  0  0  0  0  0  0  0  0
   -0.6833    1.8030    2.2032 O   0  5  0  0  0  0  0  0  0  0  0  0
   -0.3442    0.2728    3.7755 O   0  0  0  0  0  0  0  0  0  0  0  0
    1.1572   -0.4783   -0.8458 C   0  0  0  0  0  0  0  0  0  0  0  0
    2.2581    0.0542   -0.9533 O   0  0  0  0  0  0  0  0  0  0  0  0
    0.7946   -1.4333   -1.7776 N   0  0  0  0  0  0  0  0  0  0  0  0
    0.0245   -2.0232   -1.4559 H   0  0  0  0  0  0  0  0  0  0  0  0
    1.7385   -2.0078   -2.7239 C   0  0  0  0  0  0  0  0  0  0  0  0
    2.5465   -2.5214   -2.1931 H   0  0  0  0  0  0  0  0  0  0  0  0
    1.2285   -2.7303   -3.3674 H   0  0  0  0  0  0  0  0  0  0  0  0
    2.1703   -1.2270   -3.3580 H   0  0  0  0  0  0  0  0  0  0  0  0
  1  2  1  0  0  0  0
  2  3  1  0  0  0  0
  2  4  1  0  0  0  0
  2  5  1  0  0  0  0
  5  6  2  0  0  0  0
  5  7  1  0  0  0  0
  7  8  1  0  0  0  0
  7  9  1  0  0  0  0
  9 10  1  0  0  0  0
  9 11  1  0  0  0  0
  9 17  1  0  0  0  0
 11 12  1  0  0  0  0
 11 13  1  0  0  0  0
 11 14  1  0  0  0  0
 14 15  1  0  0  0  0
 14 16  2  0  0  0  0
 17 18  2  0  0  0  0
 17 19  1  0  0  0  0
 19 20  1  0  0  0  0
 19 21  1  0  0  0  0
 21 22  1  0  0  0  0
 21 23  1  0  0  0  0
 21 24  1  0  0  0  0
M  CHG  1  15  -1
M  END
$$$$

  -OEChem-01062216073D

 24 23  0     1  0  0  0  0  0999 V2000
   -2.8140   -3.2514    1.4508 H   0  0  0  0  0  0  0  0  0  0  0  0
   -2.7595   -2.1849    1.2163 C   0  0  0  0  0  0  0  0  0  0  0  0
   -2.8074   -1.6179    2.1506 H   0  0  0  0  0  0  0  0  0  0  0  0
   -3.6124   -1.9142    0.5896 H   0  0  0  0  0  0  0  0  0  0  0  0
   -1.4609   -1.8716    0.4965 C   0  0  0  0  0  0  0  0  0  0  0  0
   -0.7217   -2.7759    0.1387 O   0  0  0  0  0  0  0  0  0  0  0  0
   -1.1918   -0.5783    0.1034 N   0  0  0  0  0  0  0  0  0  0  0  0
   -1.9122    0.0649    0.4270 H   0  0  0  0  0  0  0  0  0  0  0  0
    0.1475    0.0340    0.2166 C   0  0  1  0  0  0  0  0  0  0  0  0
    0.0467    1.1013   -0.0040 H   0  0  0  0  0  0  0  0  0  0  0  0
    0.6413   -0.1235    1.6738 C   0  0  0  0  0  0  0  0  0  0  0  0
    0.6244   -1.1698    1.9893 H   0  0  0  0  0  0  0  0  0  0  0  0
    1.6771    0.2184    1.7397 H   0  0  0  0  0  0  0  0  0  0  0  0
   -0.1783    0.7356    2.6361 C   0  0  0  0  0  0  0  0  0  0  0  0
   -0.6965    1.7991    2.2088 O   0  5  0  0  0  0  0  0  0  0  0  0
   -0.3930    0.2540    3.7736 O   0  0  0  0  0  0  0  0  0  0  0  0
    1.1627   -0.4665   -0.8435 C   0  0  0  0  0  0  0  0  0  0  0  0
    2.3418   -0.1262   -0.8076 O   0  0  0  0  0  0  0  0  0  0  0  0
    0.7091   -1.1566   -1.9529 N   0  0  0  0  0  0  0  0  0  0  0  0
   -0.1710   -1.6391   -1.7782 H   0  0  0  0  0  0  0  0  0  0  0  0
    1.6117   -1.7329   -2.9377 C   0  0  0  0  0  0  0  0  0  0  0  0
    2.2612   -2.4790   -2.4687 H   0  0  0  0  0  0  0  0  0  0  0  0
    1.0374   -2.2192   -3.7316 H   0  0  0  0  0  0  0  0  0  0  0  0
    2.2344   -0.9547   -3.3906 H   0  0  0  0  0  0  0  0  0  0  0  0
  1  2  1  0  0  0  0
  2  3  1  0  0  0  0
  2  4  1  0  0  0  0
  2  5  1  0  0  0  0
  5  6  2  0  0  0  0
  5  7  1  0  0  0  0
  7  8  1  0  0  0  0
  7  9  1  0  0  0  0
  9 10  1  0  0  0  0
  9 11  1  0  0  0  0
  9 17  1  0  0  0  0
 11 12  1  0  0  0  0
 11 13  1  0  0  0  0
 11 14  1  0  0  0  0
 14 15  1  0  0  0  0
 14 16  2  0  0  0  0
 17 18  2  0  0  0  0
 17 19  1  0  0  0  0
 19 20  1  0  0  0  0
 19 21  1  0  0  0  0
 21 22  1  0  0  0  0
 21 23  1  0  0  0  0
 21 24  1  0  0  0  0
M  CHG  1  15  -1
M  END
$$$$

  -OEChem-01062216073D

 24 23  0     1  0  0  0  0  0999 V2000
   -2.7816   -3.2859    1.4012 H   0  0  0  0  0  0  0  0  0  0  0  0
   -2.7360   -2.2172    1.1747 C   0  0  0  0  0  0  0  0  0  0  0  0
   -2.8171   -1.6571    2.1107 H   0  0  0  0  0  0  0  0  0  0  0  0
   -3.5755   -1.9549    0.5268 H   0  0  0  0  0  0  0  0  0  0  0  0
   -1.4230   -1.8810    0.4921 C   0  0  0  0  0  0  0  0  0  0  0  0
   -0.6545   -2.7730    0.1689 O   0  0  0  0  0  0  0  0  0  0  0  0
   -1.1670   -0.5809    0.1114 N   0  0  0  0  0  0  0  0  0  0  0  0
   -1.8947    0.0525    0.4377 H   0  0  0  0  0  0  0  0  0  0  0  0
    0.1682    0.0356    0.2349 C   0  0  1  0  0  0  0  0  0  0  0  0
    0.0658    1.1026    0.0140 H   0  0  0  0  0  0  0  0  0  0  0  0
    0.6533   -0.1128    1.6970 C   0  0  0  0  0  0  0  0  0  0  0  0
    0.6379   -1.1575    2.0179 H   0  0  0  0  0  0  0  0  0  0  0  0
    1.6871    0.2339    1.7692 H   0  0  0  0  0  0  0  0  0  0  0  0
   -0.1768    0.7484    2.6487 C   0  0  0  0  0  0  0  0  0  0  0  0
   -0.6955    1.8074    2.2099 O   0  5  0  0  0  0  0  0  0  0  0  0
   -0.3949    0.2775    3.7900 O   0  0  0  0  0  0  0  0  0  0  0  0
    1.1719   -0.4623   -0.8364 C   0  0  0  0  0  0  0  0  0  0  0  0
    2.3863   -0.3531   -0.6924 O   0  0  0  0  0  0  0  0  0  0  0  0
    0.6897   -0.8537   -2.0729 N   0  0  0  0  0  0  0  0  0  0  0  0
   -0.2879   -1.1301   -2.0567 H   0  0  0  0  0  0  0  0  0  0  0  0
    1.5453   -1.4214   -3.1042 C   0  0  0  0  0  0  0  0  0  0  0  0
    2.0110   -2.3452   -2.7463 H   0  0  0  0  0  0  0  0  0  0  0  0
    0.9552   -1.6509   -3.9962 H   0  0  0  0  0  0  0  0  0  0  0  0
    2.3315   -0.7132   -3.3848 H   0  0  0  0  0  0  0  0  0  0  0  0
  1  2  1  0  0  0  0
  2  3  1  0  0  0  0
  2  4  1  0  0  0  0
  2  5  1  0  0  0  0
  5  6  2  0  0  0  0
  5  7  1  0  0  0  0
  7  8  1  0  0  0  0
  7  9  1  0  0  0  0
  9 10  1  0  0  0  0
  9 11  1  0  0  0  0
  9 17  1  0  0  0  0
 11 12  1  0  0  0  0
 11 13  1  0  0  0  0
 11 14  1  0  0  0  0
 14 15  1  0  0  0  0
 14 16  2  0  0  0  0
 17 18  2  0  0  0  0
 17 19  1  0  0  0  0
 19 20  1  0  0  0  0
 19 21  1  0  0  0  0
 21 22  1  0  0  0  0
 21 23  1  0  0  0  0
 21 24  1  0  0  0  0
M  CHG  1  15  -1
M  END
$$$$

  -OEChem-01062216073D

 24 23  0     1  0  0  0  0  0999 V2000
   -2.7696   -3.3050    1.3887 H   0  0  0  0  0  0  0  0  0  0  0  0
   -2.7286   -2.2386    1.1505 C   0  0  0  0  0  0  0  0  0  0  0  0
   -2.8374   -1.6684    2.0776 H   0  0  0  0  0  0  0  0  0  0  0  0
   -3.5549   -1.9924    0.4796 H   0  0  0  0  0  0  0  0  0  0  0  0
   -1.4027   -1.8980    0.4952 C   0  0  0  0  0  0  0  0  0  0  0  0
   -0.6174   -2.7876    0.2091 O   0  0  0  0  0  0  0  0  0  0  0  0
   -1.1496   -0.5966    0.1153 N   0  0  0  0  0  0  0  0  0  0  0  0
   -1.8825    0.0336    0.4353 H   0  0  0  0  0  0  0  0  0  0  0  0
    0.1820    0.0236    0.2433 C   0  0  1  0  0  0  0  0  0  0  0  0
    0.0789    1.0887    0.0144 H   0  0  0  0  0  0  0  0  0  0  0  0
    0.6593   -0.1061    1.7094 C   0  0  0  0  0  0  0  0  0  0  0  0
    0.6442   -1.1471    2.0419 H   0  0  0  0  0  0  0  0  0  0  0  0
    1.6915    0.2445    1.7831 H   0  0  0  0  0  0  0  0  0  0  0  0
   -0.1794    0.7646    2.6450 C   0  0  0  0  0  0  0  0  0  0  0  0
   -0.6981    1.8166    2.1884 O   0  5  0  0  0  0  0  0  0  0  0  0
   -0.3985    0.3127    3.7936 O   0  0  0  0  0  0  0  0  0  0  0  0
    1.1821   -0.4779   -0.8287 C   0  0  0  0  0  0  0  0  0  0  0  0
    2.3825   -0.6077   -0.6064 O   0  0  0  0  0  0  0  0  0  0  0  0
    0.7453   -0.5664   -2.1389 N   0  0  0  0  0  0  0  0  0  0  0  0
   -0.2633   -0.6108   -2.2431 H   0  0  0  0  0  0  0  0  0  0  0  0
    1.5782   -1.0773   -3.2172 C   0  0  0  0  0  0  0  0  0  0  0  0
    1.8622   -2.1160   -3.0198 H   0  0  0  0  0  0  0  0  0  0  0  0
    1.0311   -1.0385   -4.1637 H   0  0  0  0  0  0  0  0  0  0  0  0
    2.4862   -0.4743   -3.3196 H   0  0  0  0  0  0  0  0  0  0  0  0
  1  2  1  0  0  0  0
  2  3  1  0  0  0  0
  2  4  1  0  0  0  0
  2  5  1  0  0  0  0
  5  6  2  0  0  0  0
  5  7  1  0  0  0  0
  7  8  1  0  0  0  0
  7  9  1  0  0  0  0
  9 10  1  0  0  0  0
  9 11  1  0  0  0  0
  9 17  1  0  0  0  0
 11 12  1  0  0  0  0
 11 13  1  0  0  0  0
 11 14  1  0  0  0  0
 14 15  1  0  0  0  0
 14 16  2  0  0  0  0
 17 18  2  0  0  0  0
 17 19  1  0  0  0  0
 19 20  1  0  0  0  0
 19 21  1  0  0  0  0
 21 22  1  0  0  0  0
 21 23  1  0  0  0  0
 21 24  1  0  0  0  0
M  CHG  1  15  -1
M  END
$$$$

  -OEChem-01062216073D

 24 23  0     1  0  0  0  0  0999 V2000
   -2.7783   -3.3150    1.3840 H   0  0  0  0  0  0  0  0  0  0  0  0
   -2.7325   -2.2495    1.1426 C   0  0  0  0  0  0  0  0  0  0  0  0
   -2.8485   -1.6758    2.0666 H   0  0  0  0  0  0  0  0  0  0  0  0
   -3.5514   -2.0038    0.4627 H   0  0  0  0  0  0  0  0  0  0  0  0
   -1.4000   -1.9138    0.4982 C   0  0  0  0  0  0  0  0  0  0  0  0
   -0.6124   -2.8069    0.2315 O   0  0  0  0  0  0  0  0  0  0  0  0
   -1.1453   -0.6134    0.1154 N   0  0  0  0  0  0  0  0  0  0  0  0
   -1.8812    0.0166    0.4279 H   0  0  0  0  0  0  0  0  0  0  0  0
    0.1844    0.0089    0.2406 C   0  0  1  0  0  0  0  0  0  0  0  0
    0.0795    1.0728    0.0077 H   0  0  0  0  0  0  0  0  0  0  0  0
    0.6613   -0.1075    1.7080 C   0  0  0  0  0  0  0  0  0  0  0  0
    0.6458   -1.1459    2.0494 H   0  0  0  0  0  0  0  0  0  0  0  0
    1.6940    0.2429    1.7774 H   0  0  0  0  0  0  0  0  0  0  0  0
   -0.1787    0.7705    2.6361 C   0  0  0  0  0  0  0  0  0  0  0  0
   -0.6975    1.8179    2.1686 O   0  5  0  0  0  0  0  0  0  0  0  0
   -0.3937    0.3336    3.7913 O   0  0  0  0  0  0  0  0  0  0  0  0
    1.1835   -0.4945   -0.8306 C   0  0  0  0  0  0  0  0  0  0  0  0
    2.3250   -0.8575   -0.5622 O   0  0  0  0  0  0  0  0  0  0  0  0
    0.8616   -0.2916   -2.1617 N   0  0  0  0  0  0  0  0  0  0  0  0
   -0.1160   -0.0925   -2.3463 H   0  0  0  0  0  0  0  0  0  0  0  0
    1.7068   -0.7331   -3.2612 C   0  0  0  0  0  0  0  0  0  0  0  0
    1.8428   -1.8188   -3.2250 H   0  0  0  0  0  0  0  0  0  0  0  0
    1.2451   -0.4706   -4.2174 H   0  0  0  0  0  0  0  0  0  0  0  0
    2.6880   -0.2503   -3.2084 H   0  0  0  0  0  0  0  0  0  0  0  0
  1  2  1  0  0  0  0
  2  3  1  0  0  0  0
  2  4  1  0  0  0  0
  2  5  1  0  0  0  0
  5  6  2  0  0  0  0
  5  7  1  0  0  0  0
  7  8  1  0  0  0  0
  7  9  1  0  0  0  0
  9 10  1  0  0  0  0
  9 11  1  0  0  0  0
  9 17  1  0  0  0  0
 11 12  1  0  0  0  0
 11 13  1  0  0  0  0
 11 14  1  0  0  0  0
 14 15  1  0  0  0  0
 14 16  2  0  0  0  0
 17 18  2  0  0  0  0
 17 19  1  0  0  0  0
 19 20  1  0  0  0  0
 19 21  1  0  0  0  0
 21 22  1  0  0  0  0
 21 23  1  0  0  0  0
 21 24  1  0  0  0  0
M  CHG  1  15  -1
M  END
$$$$

  -OEChem-01062216073D

 24 23  0     1  0  0  0  0  0999 V2000
   -2.8014   -3.3202    1.4089 H   0  0  0  0  0  0  0  0  0  0  0  0
   -2.7508   -2.2577    1.1559 C   0  0  0  0  0  0  0  0  0  0  0  0
   -2.8644   -1.6740    2.0739 H   0  0  0  0  0  0  0  0  0  0  0  0
   -3.5685   -2.0156    0.4732 H   0  0  0  0  0  0  0  0  0  0  0  0
   -1.4166   -1.9353    0.5079 C   0  0  0  0  0  0  0  0  0  0  0  0
   -0.6343   -2.8364    0.2558 O   0  0  0  0  0  0  0  0  0  0  0  0
   -1.1579   -0.6383    0.1153 N   0  0  0  0  0  0  0  0  0  0  0  0
   -1.8933   -0.0048    0.4210 H   0  0  0  0  0  0  0  0  0  0  0  0
    0.1721   -0.0151    0.2244 C   0  0  1  0  0  0  0  0  0  0  0  0
    0.0596    1.0470   -0.0133 H   0  0  0  0  0  0  0  0  0  0  0  0
    0.6621   -0.1135    1.6880 C   0  0  0  0  0  0  0  0  0  0  0  0
    0.6482   -1.1478    2.0414 H   0  0  0  0  0  0  0  0  0  0  0  0
    1.6961    0.2362    1.7415 H   0  0  0  0  0  0  0  0  0  0  0  0
   -0.1688    0.7756    2.6139 C   0  0  0  0  0  0  0  0  0  0  0  0
   -0.6915    1.8173    2.1377 O   0  5  0  0  0  0  0  0  0  0  0  0
   -0.3638    0.3601    3.7803 O   0  0  0  0  0  0  0  0  0  0  0  0
    1.1741   -0.5161   -0.8460 C   0  0  0  0  0  0  0  0  0  0  0  0
    2.2163   -1.1012   -0.5679 O   0  0  0  0  0  0  0  0  0  0  0  0
    1.0224   -0.0543   -2.1429 N   0  0  0  0  0  0  0  0  0  0  0  0
    0.1410    0.3993   -2.3570 H   0  0  0  0  0  0  0  0  0  0  0  0
    1.9226   -0.4039   -3.2319 C   0  0  0  0  0  0  0  0  0  0  0  0
    1.9399   -1.4885   -3.3792 H   0  0  0  0  0  0  0  0  0  0  0  0
    1.5891    0.0680   -4.1606 H   0  0  0  0  0  0  0  0  0  0  0  0
    2.9385   -0.0585   -3.0148 H   0  0  0  0  0  0  0  0  0  0  0  0
  1  2  1  0  0  0  0
  2  3  1  0  0  0  0
  2  4  1  0  0  0  0
  2  5  1  0  0  0  0
  5  6  2  0  0  0  0
  5  7  1  0  0  0  0
  7  8  1  0  0  0  0
  7  9  1  0  0  0  0
  9 10  1  0  0  0  0
  9 11  1  0  0  0  0
  9 17  1  0  0  0  0
 11 12  1  0  0  0  0
 11 13  1  0  0  0  0
 11 14  1  0  0  0  0
 14 15  1  0  0  0  0
 14 16  2  0  0  0  0
 17 18  2  0  0  0  0
 17 19  1  0  0  0  0
 19 20  1  0  0  0  0
 19 21  1  0  0  0  0
 21 22  1  0  0  0  0
 21 23  1  0  0  0  0
 21 24  1  0  0  0  0
M  CHG  1  15  -1
M  END
$$$$

  -OEChem-01062216073D

 24 23  0     1  0  0  0  0  0999 V2000
   -2.8455   -3.3269    1.4191 H   0  0  0  0  0  0  0  0  0  0  0  0
   -2.7877   -2.2684    1.1509 C   0  0  0  0  0  0  0  0  0  0  0  0
   -2.9220   -1.6699    2.0563 H   0  0  0  0  0  0  0  0  0  0  0  0
   -3.5889   -2.0365    0.4455 H   0  0  0  0  0  0  0  0  0  0  0  0
   -1.4382   -1.9582    0.5288 C   0  0  0  0  0  0  0  0  0  0  0  0
   -0.6548   -2.8675    0.3154 O   0  0  0  0  0  0  0  0  0  0  0  0
   -1.1727   -0.6656    0.1250 N   0  0  0  0  0  0  0  0  0  0  0  0
   -1.9091   -0.0262    0.4138 H   0  0  0  0  0  0  0  0  0  0  0  0
    0.1580   -0.0394    0.2045 C   0  0  1  0  0  0  0  0  0  0  0  0
    0.0306    1.0201   -0.0363 H   0  0  0  0  0  0  0  0  0  0  0  0
    0.6761   -0.1180    1.6588 C   0  0  0  0  0  0  0  0  0  0  0  0
    0.6664   -1.1483    2.0246 H   0  0  0  0  0  0  0  0  0  0  0  0
    1.7117    0.2294    1.6864 H   0  0  0  0  0  0  0  0  0  0  0  0
   -0.1366    0.7817    2.5914 C   0  0  0  0  0  0  0  0  0  0  0  0
   -0.6698    1.8172    2.1124 O   0  5  0  0  0  0  0  0  0  0  0  0
   -0.2915    0.3922    3.7726 O   0  0  0  0  0  0  0  0  0  0  0  0
    1.1592   -0.5320   -0.8718 C   0  0  0  0  0  0  0  0  0  0  0  0
    2.0696   -1.3187   -0.6340 O   0  0  0  0  0  0  0  0  0  0  0  0
    1.2047    0.1466   -2.0792 N   0  0  0  0  0  0  0  0  0  0  0  0
    0.4813    0.8385   -2.2428 H   0  0  0  0  0  0  0  0  0  0  0  0
    2.1825   -0.1218   -3.1239 C   0  0  0  0  0  0  0  0  0  0  0  0
    2.1282   -1.1693   -3.4380 H   0  0  0  0  0  0  0  0  0  0  0  0
    1.9859    0.5111   -3.9942 H   0  0  0  0  0  0  0  0  0  0  0  0
    3.1945    0.0889   -2.7634 H   0  0  0  0  0  0  0  0  0  0  0  0
  1  2  1  0  0  0  0
  2  3  1  0  0  0  0
  2  4  1  0  0  0  0
  2  5  1  0  0  0  0
  5  6  2  0  0  0  0
  5  7  1  0  0  0  0
  7  8  1  0  0  0  0
  7  9  1  0  0  0  0
  9 10  1  0  0  0  0
  9 11  1  0  0  0  0
  9 17  1  0  0  0  0
 11 12  1  0  0  0  0
 11 13  1  0  0  0  0
 11 14  1  0  0  0  0
 14 15  1  0  0  0  0
 14 16  2  0  0  0  0
 17 18  2  0  0  0  0
 17 19  1  0  0  0  0
 19 20  1  0  0  0  0
 19 21  1  0  0  0  0
 21 22  1  0  0  0  0
 21 23  1  0  0  0  0
 21 24  1  0  0  0  0
M  CHG  1  15  -1
M  END
$$$$

  -OEChem-01062216073D

 24 23  0     1  0  0  0  0  0999 V2000
   -2.9060   -3.3378    1.4076 H   0  0  0  0  0  0  0  0  0  0  0  0
   -2.8352   -2.2845    1.1220 C   0  0  0  0  0  0  0  0  0  0  0  0
   -3.0130   -1.6687    2.0081 H   0  0  0  0  0  0  0  0  0  0  0  0
   -3.6020   -2.0676    0.3748 H   0  0  0  0  0  0  0  0  0  0  0  0
   -1.4577   -1.9845    0.5582 C   0  0  0  0  0  0  0  0  0  0  0  0
   -0.6621   -2.8974    0.4251 O   0  0  0  0  0  0  0  0  0  0  0  0
   -1.1834   -0.6966    0.1434 N   0  0  0  0  0  0  0  0  0  0  0  0
   -1.9259   -0.0516    0.4004 H   0  0  0  0  0  0  0  0  0  0  0  0
    0.1458   -0.0626    0.1854 C   0  0  1  0  0  0  0  0  0  0  0  0
   -0.0092    0.9913   -0.0620 H   0  0  0  0  0  0  0  0  0  0  0  0
    0.7044   -0.1127    1.6248 C   0  0  0  0  0  0  0  0  0  0  0  0
    0.7070   -1.1374    2.0061 H   0  0  0  0  0  0  0  0  0  0  0  0
    1.7395    0.2374    1.6181 H   0  0  0  0  0  0  0  0  0  0  0  0
   -0.0848    0.7975    2.5675 C   0  0  0  0  0  0  0  0  0  0  0  0
   -0.6374    1.8225    2.0873 O   0  5  0  0  0  0  0  0  0  0  0  0
   -0.1797    0.4422    3.7656 O   0  0  0  0  0  0  0  0  0  0  0  0
    1.1490   -0.5355   -0.8988 C   0  0  0  0  0  0  0  0  0  0  0  0
    1.8862   -1.5054   -0.7667 O   0  0  0  0  0  0  0  0  0  0  0  0
    1.4045    0.3130   -1.9650 N   0  0  0  0  0  0  0  0  0  0  0  0
    0.8805    1.1813   -1.9935 H   0  0  0  0  0  0  0  0  0  0  0  0
    2.4580    0.0897   -2.9448 C   0  0  0  0  0  0  0  0  0  0  0  0
    2.3244   -0.8797   -3.4357 H   0  0  0  0  0  0  0  0  0  0  0  0
    2.4307    0.8709   -3.7100 H   0  0  0  0  0  0  0  0  0  0  0  0
    3.4400    0.1105   -2.4615 H   0  0  0  0  0  0  0  0  0  0  0  0
  1  2  1  0  0  0  0
  2  3  1  0  0  0  0
  2  4  1  0  0  0  0
  2  5  1  0  0  0  0
  5  6  2  0  0  0  0
  5  7  1  0  0  0  0
  7  8  1  0  0  0  0
  7  9  1  0  0  0  0
  9 10  1  0  0  0  0
  9 11  1  0  0  0  0
  9 17  1  0  0  0  0
 11 12  1  0  0  0  0
 11 13  1  0  0  0  0
 11 14  1  0  0  0  0
 14 15  1  0  0  0  0
 14 16  2  0  0  0  0
 17 18  2  0  0  0  0
 17 19  1  0  0  0  0
 19 20  1  0  0  0  0
 19 21  1  0  0  0  0
 21 22  1  0  0  0  0
 21 23  1  0  0  0  0
 21 24  1  0  0  0  0
M  CHG  1  15  -1
M  END
$$$$

  -OEChem-01062216073D

 24 23  0     1  0  0  0  0  0999 V2000
   -2.9724   -3.3814    1.2885 H   0  0  0  0  0  0  0  0  0  0  0  0
   -2.8888   -2.3362    0.9777 C   0  0  0  0  0  0  0  0  0  0  0  0
   -3.2283   -1.6984    1.7982 H   0  0  0  0  0  0  0  0  0  0  0  0
   -3.5298   -2.1742    0.1081 H   0  0  0  0  0  0  0  0  0  0  0  0
   -1.4480   -2.0046    0.6304 C   0  0  0  0  0  0  0  0  0  0  0  0
   -0.6118   -2.8858    0.7199 O   0  0  0  0  0  0  0  0  0  0  0  0
   -1.1611   -0.7189    0.2124 N   0  0  0  0  0  0  0  0  0  0  0  0
   -1.9293   -0.0731    0.3668 H   0  0  0  0  0  0  0  0  0  0  0  0
    0.1635   -0.0734    0.2223 C   0  0  1  0  0  0  0  0  0  0  0  0
   -0.0288    0.9700   -0.0417 H   0  0  0  0  0  0  0  0  0  0  0  0
    0.7668   -0.0723    1.6435 C   0  0  0  0  0  0  0  0  0  0  0  0
    0.7881   -1.0845    2.0550 H   0  0  0  0  0  0  0  0  0  0  0  0
    1.7983    0.2845    1.5942 H   0  0  0  0  0  0  0  0  0  0  0  0
    0.0024    0.8571    2.5879 C   0  0  0  0  0  0  0  0  0  0  0  0
   -0.5763    1.8628    2.0972 O   0  5  0  0  0  0  0  0  0  0  0  0
   -0.0037    0.5651    3.8066 O   0  0  0  0  0  0  0  0  0  0  0  0
    1.1698   -0.5177   -0.8718 C   0  0  0  0  0  0  0  0  0  0  0  0
    1.5956   -1.6580   -1.0029 O   0  0  0  0  0  0  0  0  0  0  0  0
    1.6433    0.4447   -1.7502 N   0  0  0  0  0  0  0  0  0  0  0  0
    1.3645    1.4034   -1.5663 H   0  0  0  0  0  0  0  0  0  0  0  0
    2.6687    0.1892   -2.7519 C   0  0  0  0  0  0  0  0  0  0  0  0
    2.3400   -0.5911   -3.4461 H   0  0  0  0  0  0  0  0  0  0  0  0
    2.8683    1.0995   -3.3249 H   0  0  0  0  0  0  0  0  0  0  0  0
    3.5995   -0.1311   -2.2726 H   0  0  0  0  0  0  0  0  0  0  0  0
  1  2  1  0  0  0  0
  2  3  1  0  0  0  0
  2  4  1  0  0  0  0
  2  5  1  0  0  0  0
  5  6  2  0  0  0  0
  5  7  1  0  0  0  0
  7  8  1  0  0  0  0
  7  9  1  0  0  0  0
  9 10  1  0  0  0  0
  9 11  1  0  0  0  0
  9 17  1  0  0  0  0
 11 12  1  0  0  0  0
 11 13  1  0  0  0  0
 11 14  1  0  0  0  0
 14 15  1  0  0  0  0
 14 16  2  0  0  0  0
 17 18  2  0  0  0  0
 17 19  1  0  0  0  0
 19 20  1  0  0  0  0
 19 21  1  0  0  0  0
 21 22  1  0  0  0  0
 21 23  1  0  0  0  0
 21 24  1  0  0  0  0
M  CHG  1  15  -1
M  END
$$$$

  -OEChem-01062216073D

 24 23  0     1  0  0  0  0  0999 V2000
   -2.9659   -3.3981    1.2434 H   0  0  0  0  0  0  0  0  0  0  0  0
   -2.8857   -2.3691    0.8819 C   0  0  0  0  0  0  0  0  0  0  0  0
   -3.3270   -1.7005    1.6255 H   0  0  0  0  0  0  0  0  0  0  0  0
   -3.4399   -2.2801   -0.0554 H   0  0  0  0  0  0  0  0  0  0  0  0
   -1.4287   -2.0025    0.6594 C   0  0  0  0  0  0  0  0  0  0  0  0
   -0.5768   -2.8480    0.8761 O   0  0  0  0  0  0  0  0  0  0  0  0
   -1.1385   -0.7179    0.2397 N   0  0  0  0  0  0  0  0  0  0  0  0
   -1.9209   -0.0755    0.3083 H   0  0  0  0  0  0  0  0  0  0  0  0
    0.1873   -0.0774    0.2609 C   0  0  1  0  0  0  0  0  0  0  0  0
   -0.0074    0.9605   -0.0229 H   0  0  0  0  0  0  0  0  0  0  0  0
    0.7907   -0.0456    1.6824 C   0  0  0  0  0  0  0  0  0  0  0  0
    0.8101   -1.0483    2.1161 H   0  0  0  0  0  0  0  0  0  0  0  0
    1.8227    0.3088    1.6261 H   0  0  0  0  0  0  0  0  0  0  0  0
    0.0316    0.9036    2.6108 C   0  0  0  0  0  0  0  0  0  0  0  0
   -0.5461    1.9009    2.1027 O   0  5  0  0  0  0  0  0  0  0  0  0
    0.0547    0.6509    3.8382 O   0  0  0  0  0  0  0  0  0  0  0  0
    1.2038   -0.5253   -0.8211 C   0  0  0  0  0  0  0  0  0  0  0  0
    1.2678   -1.6589   -1.2816 O   0  0  0  0  0  0  0  0  0  0  0  0
    1.9234    0.4629   -1.4741 N   0  0  0  0  0  0  0  0  0  0  0  0
    1.8760    1.3961   -1.0754 H   0  0  0  0  0  0  0  0  0  0  0  0
    2.8738    0.1996   -2.5449 C   0  0  0  0  0  0  0  0  0  0  0  0
    2.3665   -0.2500   -3.4044 H   0  0  0  0  0  0  0  0  0  0  0  0
    3.3419    1.1336   -2.8692 H   0  0  0  0  0  0  0  0  0  0  0  0
    3.6592   -0.4805   -2.1998 H   0  0  0  0  0  0  0  0  0  0  0  0
  1  2  1  0  0  0  0
  2  3  1  0  0  0  0
  2  4  1  0  0  0  0
  2  5  1  0  0  0  0
  5  6  2  0  0  0  0
  5  7  1  0  0  0  0
  7  8  1  0  0  0  0
  7  9  1  0  0  0  0
  9 10  1  0  0  0  0
  9 11  1  0  0  0  0
  9 17  1  0  0  0  0
 11 12  1  0  0  0  0
 11 13  1  0  0  0  0
 11 14  1  0  0  0  0
 14 15  1  0  0  0  0
 14 16  2  0  0  0  0
 17 18  2  0  0  0  0
 17 19  1  0  0  0  0
 19 20  1  0  0  0  0
 19 21  1  0  0  0  0
 21 22  1  0  0  0  0
 21 23  1  0  0  0  0
 21 24  1  0  0  0  0
M  CHG  1  15  -1
M  END
$$$$

  -OEChem-01062216073D

 24 23  0     1  0  0  0  0  0999 V2000
   -2.9545   -3.4019    1.2156 H   0  0  0  0  0  0  0  0  0  0  0  0
   -2.8780   -2.3677    0.8686 C   0  0  0  0  0  0  0  0  0  0  0  0
   -3.3240   -1.7110    1.6199 H   0  0  0  0  0  0  0  0  0  0  0  0
   -3.4306   -2.2682   -0.0686 H   0  0  0  0  0  0  0  0  0  0  0  0
   -1.4221   -1.9919    0.6552 C   0  0  0  0  0  0  0  0  0  0  0  0
   -0.5622   -2.8303    0.8749 O   0  0  0  0  0  0  0  0  0  0  0  0
   -1.1337   -0.7083    0.2325 N   0  0  0  0  0  0  0  0  0  0  0  0
   -1.9174   -0.0659    0.2789 H   0  0  0  0  0  0  0  0  0  0  0  0
    0.1945   -0.0752    0.2663 C   0  0  1  0  0  0  0  0  0  0  0  0
    0.0143    0.9636   -0.0253 H   0  0  0  0  0  0  0  0  0  0  0  0
    0.7891   -0.0444    1.6931 C   0  0  0  0  0  0  0  0  0  0  0  0
    0.8015   -1.0460    2.1291 H   0  0  0  0  0  0  0  0  0  0  0  0
    1.8230    0.3047    1.6455 H   0  0  0  0  0  0  0  0  0  0  0  0
    0.0304    0.9089    2.6168 C   0  0  0  0  0  0  0  0  0  0  0  0
   -0.5390    1.9088    2.1060 O   0  5  0  0  0  0  0  0  0  0  0  0
    0.0537    0.6598    3.8449 O   0  0  0  0  0  0  0  0  0  0  0  0
    1.2111   -0.5390   -0.8073 C   0  0  0  0  0  0  0  0  0  0  0  0
    1.0636   -1.5440   -1.4950 O   0  0  0  0  0  0  0  0  0  0  0  0
    2.1577    0.3805   -1.2291 N   0  0  0  0  0  0  0  0  0  0  0  0
    2.2536    1.2213   -0.6666 H   0  0  0  0  0  0  0  0  0  0  0  0
    3.1081    0.1352   -2.3040 C   0  0  0  0  0  0  0  0  0  0  0  0
    2.5823   -0.0243   -3.2509 H   0  0  0  0  0  0  0  0  0  0  0  0
    3.7736    0.9958   -2.4189 H   0  0  0  0  0  0  0  0  0  0  0  0
    3.7168   -0.7472   -2.0821 H   0  0  0  0  0  0  0  0  0  0  0  0
  1  2  1  0  0  0  0
  2  3  1  0  0  0  0
  2  4  1  0  0  0  0
  2  5  1  0  0  0  0
  5  6  2  0  0  0  0
  5  7  1  0  0  0  0
  7  8  1  0  0  0  0
  7  9  1  0  0  0  0
  9 10  1  0  0  0  0
  9 11  1  0  0  0  0
  9 17  1  0  0  0  0
 11 12  1  0  0  0  0
 11 13  1  0  0  0  0
 11 14  1  0  0  0  0
 14 15  1  0  0  0  0
 14 16  2  0  0  0  0
 17 18  2  0  0  0  0
 17 19  1  0  0  0  0
 19 20  1  0  0  0  0
 19 21  1  0  0  0  0
 21 22  1  0  0  0  0
 21 23  1  0  0  0  0
 21 24  1  0  0  0  0
M  CHG  1  15  -1
M  END
$$$$

  -OEChem-01062216073D

 24 23  0     1  0  0  0  0  0999 V2000
   -2.9250   -3.3871    1.2386 H   0  0  0  0  0  0  0  0  0  0  0  0
   -2.8628   -2.3573    0.8758 C   0  0  0  0  0  0  0  0  0  0  0  0
   -3.3008   -1.6939    1.6260 H   0  0  0  0  0  0  0  0  0  0  0  0
   -3.4323   -2.2747   -0.0529 H   0  0  0  0  0  0  0  0  0  0  0  0
   -1.4139   -1.9736    0.6318 C   0  0  0  0  0  0  0  0  0  0  0  0
   -0.5447   -2.8136    0.8085 O   0  0  0  0  0  0  0  0  0  0  0  0
   -1.1341   -0.6861    0.2163 N   0  0  0  0  0  0  0  0  0  0  0  0
   -1.9177   -0.0446    0.2793 H   0  0  0  0  0  0  0  0  0  0  0  0
    0.1938   -0.0533    0.2642 C   0  0  1  0  0  0  0  0  0  0  0  0
    0.0292    0.9908   -0.0178 H   0  0  0  0  0  0  0  0  0  0  0  0
    0.7770   -0.0493    1.6981 C   0  0  0  0  0  0  0  0  0  0  0  0
    0.7861   -1.0581    2.1171 H   0  0  0  0  0  0  0  0  0  0  0  0
    1.8109    0.3011    1.6699 H   0  0  0  0  0  0  0  0  0  0  0  0
    0.0106    0.8871    2.6321 C   0  0  0  0  0  0  0  0  0  0  0  0
   -0.5546    1.8964    2.1365 O   0  5  0  0  0  0  0  0  0  0  0  0
    0.0239    0.6134    3.8551 O   0  0  0  0  0  0  0  0  0  0  0  0
    1.2035   -0.5255   -0.8122 C   0  0  0  0  0  0  0  0  0  0  0  0
    0.9259   -1.3568   -1.6719 O   0  0  0  0  0  0  0  0  0  0  0  0
    2.3391    0.2408   -1.0161 N   0  0  0  0  0  0  0  0  0  0  0  0
    2.5414    0.9444   -0.3117 H   0  0  0  0  0  0  0  0  0  0  0  0
    3.3200   -0.0208   -2.0591 C   0  0  0  0  0  0  0  0  0  0  0  0
    2.8619    0.0751   -3.0487 H   0  0  0  0  0  0  0  0  0  0  0  0
    4.1429    0.6965   -1.9880 H   0  0  0  0  0  0  0  0  0  0  0  0
    3.7299   -1.0304   -1.9537 H   0  0  0  0  0  0  0  0  0  0  0  0
  1  2  1  0  0  0  0
  2  3  1  0  0  0  0
  2  4  1  0  0  0  0
  2  5  1  0  0  0  0
  5  6  2  0  0  0  0
  5  7  1  0  0  0  0
  7  8  1  0  0  0  0
  7  9  1  0  0  0  0
  9 10  1  0  0  0  0
  9 11  1  0  0  0  0
  9 17  1  0  0  0  0
 11 12  1  0  0  0  0
 11 13  1  0  0  0  0
 11 14  1  0  0  0  0
 14 15  1  0  0  0  0
 14 16  2  0  0  0  0
 17 18  2  0  0  0  0
 17 19  1  0  0  0  0
 19 20  1  0  0  0  0
 19 21  1  0  0  0  0
 21 22  1  0  0  0  0
 21 23  1  0  0  0  0
 21 24  1  0  0  0  0
M  CHG  1  15  -1
M  END
$$$$

  -OEChem-01062216073D

 24 23  0     1  0  0  0  0  0999 V2000
   -2.8651   -3.4249    1.2078 H   0  0  0  0  0  0  0  0  0  0  0  0
   -2.8121   -2.3653    0.9431 C   0  0  0  0  0  0  0  0  0  0  0  0
   -3.1047   -1.7715    1.8129 H   0  0  0  0  0  0  0  0  0  0  0  0
   -3.5083   -2.1697    0.1243 H   0  0  0  0  0  0  0  0  0  0  0  0
   -1.3997   -1.9989    0.5234 C   0  0  0  0  0  0  0  0  0  0  0  0
   -0.5508   -2.8757    0.4628 O   0  0  0  0  0  0  0  0  0  0  0  0
   -1.1367   -0.6985    0.1430 N   0  0  0  0  0  0  0  0  0  0  0  0
   -1.9152   -0.0686    0.3023 H   0  0  0  0  0  0  0  0  0  0  0  0
    0.1846   -0.0511    0.2242 C   0  0  1  0  0  0  0  0  0  0  0  0
   -0.0178    1.0237    0.2074 H   0  0  0  0  0  0  0  0  0  0  0  0
    0.9212   -0.3330    1.5615 C   0  0  0  0  0  0  0  0  0  0  0  0
    1.0064   -1.4048    1.7502 H   0  0  0  0  0  0  0  0  0  0  0  0
    1.9362    0.0645    1.5119 H   0  0  0  0  0  0  0  0  0  0  0  0
    0.2437    0.3491    2.7503 C   0  0  0  0  0  0  0  0  0  0  0  0
   -0.3895    1.4176    2.5488 O   0  5  0  0  0  0  0  0  0  0  0  0
    0.3984   -0.1797    3.8759 O   0  0  0  0  0  0  0  0  0  0  0  0
    1.0537   -0.2221   -1.0472 C   0  0  0  0  0  0  0  0  0  0  0  0
    0.5941   -0.6479   -2.1037 O   0  0  0  0  0  0  0  0  0  0  0  0
    2.3169    0.3444   -1.0805 N   0  0  0  0  0  0  0  0  0  0  0  0
    2.6771    0.6960   -0.1982 H   0  0  0  0  0  0  0  0  0  0  0  0
    3.1952    0.3047   -2.2402 C   0  0  0  0  0  0  0  0  0  0  0  0
    2.7438    0.8416   -3.0807 H   0  0  0  0  0  0  0  0  0  0  0  0
    4.1526    0.7772   -2.0018 H   0  0  0  0  0  0  0  0  0  0  0  0
    3.3848   -0.7309   -2.5405 H   0  0  0  0  0  0  0  0  0  0  0  0
  1  2  1  0  0  0  0
  2  3  1  0  0  0  0
  2  4  1  0  0  0  0
  2  5  1  0  0  0  0
  5  6  2  0  0  0  0
  5  7  1  0  0  0  0
  7  8  1  0  0  0  0
  7  9  1  0  0  0  0
  9 10  1  0  0  0  0
  9 11  1  0  0  0  0
  9 17  1  0  0  0  0
 11 12  1  0  0  0  0
 11 13  1  0  0  0  0
 11 14  1  0  0  0  0
 14 15  1  0  0  0  0
 14 16  2  0  0  0  0
 17 18  2  0  0  0  0
 17 19  1  0  0  0  0
 19 20  1  0  0  0  0
 19 21  1  0  0  0  0
 21 22  1  0  0  0  0
 21 23  1  0  0  0  0
 21 24  1  0  0  0  0
M  CHG  1  15  -1
M  END
$$$$

  -OEChem-01062216073D

 24 23  0     1  0  0  0  0  0999 V2000
   -2.8380   -3.4160    1.1957 H   0  0  0  0  0  0  0  0  0  0  0  0
   -2.7944   -2.3558    0.9317 C   0  0  0  0  0  0  0  0  0  0  0  0
   -3.0888   -1.7652    1.8033 H   0  0  0  0  0  0  0  0  0  0  0  0
   -3.4948   -2.1650    0.1152 H   0  0  0  0  0  0  0  0  0  0  0  0
   -1.3860   -1.9788    0.5079 C   0  0  0  0  0  0  0  0  0  0  0  0
   -0.5347   -2.8514    0.4173 O   0  0  0  0  0  0  0  0  0  0  0  0
   -1.1261   -0.6739    0.1427 N   0  0  0  0  0  0  0  0  0  0  0  0
   -1.9068   -0.0475    0.3061 H   0  0  0  0  0  0  0  0  0  0  0  0
    0.1920   -0.0236    0.2466 C   0  0  1  0  0  0  0  0  0  0  0  0
   -0.0030    1.0531    0.2424 H   0  0  0  0  0  0  0  0  0  0  0  0
    0.9127   -0.3292    1.5885 C   0  0  0  0  0  0  0  0  0  0  0  0
    1.0030   -1.4037    1.7587 H   0  0  0  0  0  0  0  0  0  0  0  0
    1.9239    0.0797    1.5638 H   0  0  0  0  0  0  0  0  0  0  0  0
    0.2176    0.3292    2.7802 C   0  0  0  0  0  0  0  0  0  0  0  0
   -0.4163    1.3993    2.5928 O   0  5  0  0  0  0  0  0  0  0  0  0
    0.3538   -0.2265    3.8953 O   0  0  0  0  0  0  0  0  0  0  0  0
    1.0561   -0.1957   -1.0291 C   0  0  0  0  0  0  0  0  0  0  0  0
    0.5454   -0.3796   -2.1315 O   0  0  0  0  0  0  0  0  0  0  0  0
    2.4135    0.0744   -0.9881 N   0  0  0  0  0  0  0  0  0  0  0  0
    2.8196    0.1903   -0.0644 H   0  0  0  0  0  0  0  0  0  0  0  0
    3.2962   -0.0304   -2.1404 C   0  0  0  0  0  0  0  0  0  0  0  0
    2.9896    0.6717   -2.9224 H   0  0  0  0  0  0  0  0  0  0  0  0
    4.3237    0.2053   -1.8480 H   0  0  0  0  0  0  0  0  0  0  0  0
    3.2751   -1.0466   -2.5468 H   0  0  0  0  0  0  0  0  0  0  0  0
  1  2  1  0  0  0  0
  2  3  1  0  0  0  0
  2  4  1  0  0  0  0
  2  5  1  0  0  0  0
  5  6  2  0  0  0  0
  5  7  1  0  0  0  0
  7  8  1  0  0  0  0
  7  9  1  0  0  0  0
  9 10  1  0  0  0  0
  9 11  1  0  0  0  0
  9 17  1  0  0  0  0
 11 12  1  0  0  0  0
 11 13  1  0  0  0  0
 11 14  1  0  0  0  0
 14 15  1  0  0  0  0
 14 16  2  0  0  0  0
 17 18  2  0  0  0  0
 17 19  1  0  0  0  0
 19 20  1  0  0  0  0
 19 21  1  0  0  0  0
 21 22  1  0  0  0  0
 21 23  1  0  0  0  0
 21 24  1  0  0  0  0
M  CHG  1  15  -1
M  END
$$$$

  -OEChem-01062216073D

 24 23  0     1  0  0  0  0  0999 V2000
   -2.8199   -3.4121    1.1670 H   0  0  0  0  0  0  0  0  0  0  0  0
   -2.7802   -2.3487    0.9156 C   0  0  0  0  0  0  0  0  0  0  0  0
   -3.0765   -1.7696    1.7942 H   0  0  0  0  0  0  0  0  0  0  0  0
   -3.4816   -2.1502    0.1018 H   0  0  0  0  0  0  0  0  0  0  0  0
   -1.3736   -1.9612    0.4959 C   0  0  0  0  0  0  0  0  0  0  0  0
   -0.5192   -2.8287    0.3861 O   0  0  0  0  0  0  0  0  0  0  0  0
   -1.1169   -0.6533    0.1414 N   0  0  0  0  0  0  0  0  0  0  0  0
   -1.8995   -0.0300    0.3082 H   0  0  0  0  0  0  0  0  0  0  0  0
    0.1979   -0.0014    0.2670 C   0  0  1  0  0  0  0  0  0  0  0  0
    0.0067    1.0760    0.2702 H   0  0  0  0  0  0  0  0  0  0  0  0
    0.9083   -0.3206    1.6109 C   0  0  0  0  0  0  0  0  0  0  0  0
    1.0058   -1.3966    1.7677 H   0  0  0  0  0  0  0  0  0  0  0  0
    1.9155    0.0996    1.5988 H   0  0  0  0  0  0  0  0  0  0  0  0
    0.2011    0.3201    2.8050 C   0  0  0  0  0  0  0  0  0  0  0  0
   -0.4359    1.3900    2.6281 O   0  5  0  0  0  0  0  0  0  0  0  0
    0.3252   -0.2554    3.9115 O   0  0  0  0  0  0  0  0  0  0  0  0
    1.0618   -0.1759   -1.0077 C   0  0  0  0  0  0  0  0  0  0  0  0
    0.5565   -0.1218   -2.1266 O   0  0  0  0  0  0  0  0  0  0  0  0
    2.4429   -0.2194   -0.9212 N   0  0  0  0  0  0  0  0  0  0  0  0
    2.8238   -0.3485    0.0117 H   0  0  0  0  0  0  0  0  0  0  0  0
    3.3188   -0.3950   -2.0697 C   0  0  0  0  0  0  0  0  0  0  0  0
    3.1873    0.4270   -2.7807 H   0  0  0  0  0  0  0  0  0  0  0  0
    4.3634   -0.4063   -1.7449 H   0  0  0  0  0  0  0  0  0  0  0  0
    3.1013   -1.3412   -2.5757 H   0  0  0  0  0  0  0  0  0  0  0  0
  1  2  1  0  0  0  0
  2  3  1  0  0  0  0
  2  4  1  0  0  0  0
  2  5  1  0  0  0  0
  5  6  2  0  0  0  0
  5  7  1  0  0  0  0
  7  8  1  0  0  0  0
  7  9  1  0  0  0  0
  9 10  1  0  0  0  0
  9 11  1  0  0  0  0
  9 17  1  0  0  0  0
 11 12  1  0  0  0  0
 11 13  1  0  0  0  0
 11 14  1  0  0  0  0
 14 15  1  0  0  0  0
 14 16  2  0  0  0  0
 17 18  2  0  0  0  0
 17 19  1  0  0  0  0
 19 20  1  0  0  0  0
 19 21  1  0  0  0  0
 21 22  1  0  0  0  0
 21 23  1  0  0  0  0
 21 24  1  0  0  0  0
M  CHG  1  15  -1
M  END
$$$$

  -OEChem-01062216073D

 24 23  0     1  0  0  0  0  0999 V2000
   -2.7995   -3.4059    1.1420 H   0  0  0  0  0  0  0  0  0  0  0  0
   -2.7626   -2.3380    0.9104 C   0  0  0  0  0  0  0  0  0  0  0  0
   -3.0456   -1.7752    1.8039 H   0  0  0  0  0  0  0  0  0  0  0  0
   -3.4754   -2.1236    0.1106 H   0  0  0  0  0  0  0  0  0  0  0  0
   -1.3615   -1.9437    0.4789 C   0  0  0  0  0  0  0  0  0  0  0  0
   -0.5060   -2.8072    0.3460 O   0  0  0  0  0  0  0  0  0  0  0  0
   -1.1082   -0.6335    0.1311 N   0  0  0  0  0  0  0  0  0  0  0  0
   -1.8905   -0.0130    0.3119 H   0  0  0  0  0  0  0  0  0  0  0  0
    0.2037    0.0180    0.2787 C   0  0  1  0  0  0  0  0  0  0  0  0
    0.0162    1.0962    0.2881 H   0  0  0  0  0  0  0  0  0  0  0  0
    0.9022   -0.3144    1.6248 C   0  0  0  0  0  0  0  0  0  0  0  0
    1.0006   -1.3917    1.7724 H   0  0  0  0  0  0  0  0  0  0  0  0
    1.9088    0.1089    1.6209 H   0  0  0  0  0  0  0  0  0  0  0  0
    0.1826    0.3115    2.8189 C   0  0  0  0  0  0  0  0  0  0  0  0
   -0.4553    1.3817    2.6489 O   0  5  0  0  0  0  0  0  0  0  0  0
    0.2876   -0.2837    3.9171 O   0  0  0  0  0  0  0  0  0  0  0  0
    1.0742   -0.1591   -0.9890 C   0  0  0  0  0  0  0  0  0  0  0  0
    0.6265    0.1109   -2.1011 O   0  0  0  0  0  0  0  0  0  0  0  0
    2.4076   -0.5145   -0.8846 N   0  0  0  0  0  0  0  0  0  0  0  0
    2.6990   -0.8518    0.0288 H   0  0  0  0  0  0  0  0  0  0  0  0
    3.2633   -0.7688   -2.0334 C   0  0  0  0  0  0  0  0  0  0  0  0
    3.3313    0.1228   -2.6649 H   0  0  0  0  0  0  0  0  0  0  0  0
    4.2711   -1.0319   -1.6987 H   0  0  0  0  0  0  0  0  0  0  0  0
    2.8667   -1.5971   -2.6294 H   0  0  0  0  0  0  0  0  0  0  0  0
  1  2  1  0  0  0  0
  2  3  1  0  0  0  0
  2  4  1  0  0  0  0
  2  5  1  0  0  0  0
  5  6  2  0  0  0  0
  5  7  1  0  0  0  0
  7  8  1  0  0  0  0
  7  9  1  0  0  0  0
  9 10  1  0  0  0  0
  9 11  1  0  0  0  0
  9 17  1  0  0  0  0
 11 12  1  0  0  0  0
 11 13  1  0  0  0  0
 11 14  1  0  0  0  0
 14 15  1  0  0  0  0
 14 16  2  0  0  0  0
 17 18  2  0  0  0  0
 17 19  1  0  0  0  0
 19 20  1  0  0  0  0
 19 21  1  0  0  0  0
 21 22  1  0  0  0  0
 21 23  1  0  0  0  0
 21 24  1  0  0  0  0
M  CHG  1  15  -1
M  END
$$$$

  -OEChem-01062216073D

 24 23  0     1  0  0  0  0  0999 V2000
   -2.7817   -3.3928    1.1414 H   0  0  0  0  0  0  0  0  0  0  0  0
   -2.7447   -2.3231    0.9181 C   0  0  0  0  0  0  0  0  0  0  0  0
   -3.0075   -1.7664    1.8218 H   0  0  0  0  0  0  0  0  0  0  0  0
   -3.4719   -2.0988    0.1342 H   0  0  0  0  0  0  0  0  0  0  0  0
   -1.3512   -1.9299    0.4634 C   0  0  0  0  0  0  0  0  0  0  0  0
   -0.4972   -2.7920    0.3095 O   0  0  0  0  0  0  0  0  0  0  0  0
   -1.1011   -0.6196    0.1147 N   0  0  0  0  0  0  0  0  0  0  0  0
   -1.8829   -0.0010    0.3057 H   0  0  0  0  0  0  0  0  0  0  0  0
    0.2081    0.0311    0.2824 C   0  0  1  0  0  0  0  0  0  0  0  0
    0.0239    1.1100    0.2950 H   0  0  0  0  0  0  0  0  0  0  0  0
    0.8961   -0.3126    1.6300 C   0  0  0  0  0  0  0  0  0  0  0  0
    0.9945   -1.3909    1.7700 H   0  0  0  0  0  0  0  0  0  0  0  0
    1.9031    0.1112    1.6308 H   0  0  0  0  0  0  0  0  0  0  0  0
    0.1651    0.3006    2.8238 C   0  0  0  0  0  0  0  0  0  0  0  0
   -0.4741    1.3708    2.6595 O   0  5  0  0  0  0  0  0  0  0  0  0
    0.2503   -0.3137    3.9132 O   0  0  0  0  0  0  0  0  0  0  0  0
    1.0894   -0.1544   -0.9739 C   0  0  0  0  0  0  0  0  0  0  0  0
    0.7480    0.3188   -2.0551 O   0  0  0  0  0  0  0  0  0  0  0  0
    2.3079   -0.8028   -0.8832 N   0  0  0  0  0  0  0  0  0  0  0  0
    2.4558   -1.3208   -0.0205 H   0  0  0  0  0  0  0  0  0  0  0  0
    3.1344   -1.1165   -2.0382 C   0  0  0  0  0  0  0  0  0  0  0  0
    3.4184   -0.2001   -2.5655 H   0  0  0  0  0  0  0  0  0  0  0  0
    4.0473   -1.6271   -1.7176 H   0  0  0  0  0  0  0  0  0  0  0  0
    2.5932   -1.7709   -2.7291 H   0  0  0  0  0  0  0  0  0  0  0  0
  1  2  1  0  0  0  0
  2  3  1  0  0  0  0
  2  4  1  0  0  0  0
  2  5  1  0  0  0  0
  5  6  2  0  0  0  0
  5  7  1  0  0  0  0
  7  8  1  0  0  0  0
  7  9  1  0  0  0  0
  9 10  1  0  0  0  0
  9 11  1  0  0  0  0
  9 17  1  0  0  0  0
 11 12  1  0  0  0  0
 11 13  1  0  0  0  0
 11 14  1  0  0  0  0
 14 15  1  0  0  0  0
 14 16  2  0  0  0  0
 17 18  2  0  0  0  0
 17 19  1  0  0  0  0
 19 20  1  0  0  0  0
 19 21  1  0  0  0  0
 21 22  1  0  0  0  0
 21 23  1  0  0  0  0
 21 24  1  0  0  0  0
M  CHG  1  15  -1
M  END
$$$$

  -OEChem-01062216073D

 24 23  0     1  0  0  0  0  0999 V2000
   -2.7566   -3.3760    1.1685 H   0  0  0  0  0  0  0  0  0  0  0  0
   -2.7287   -2.3090    0.9313 C   0  0  0  0  0  0  0  0  0  0  0  0
   -2.9817   -1.7432    1.8321 H   0  0  0  0  0  0  0  0  0  0  0  0
   -3.4684   -2.0981    0.1555 H   0  0  0  0  0  0  0  0  0  0  0  0
   -1.3438   -1.9153    0.4516 C   0  0  0  0  0  0  0  0  0  0  0  0
   -0.4918   -2.7763    0.2769 O   0  0  0  0  0  0  0  0  0  0  0  0
   -1.0954   -0.6058    0.0983 N   0  0  0  0  0  0  0  0  0  0  0  0
   -1.8743    0.0126    0.3034 H   0  0  0  0  0  0  0  0  0  0  0  0
    0.2139    0.0394    0.2835 C   0  0  1  0  0  0  0  0  0  0  0  0
    0.0355    1.1196    0.2976 H   0  0  0  0  0  0  0  0  0  0  0  0
    0.8915   -0.3153    1.6325 C   0  0  0  0  0  0  0  0  0  0  0  0
    0.9868   -1.3945    1.7681 H   0  0  0  0  0  0  0  0  0  0  0  0
    1.9008    0.1037    1.6372 H   0  0  0  0  0  0  0  0  0  0  0  0
    0.1523    0.2912    2.8245 C   0  0  0  0  0  0  0  0  0  0  0  0
   -0.4837    1.3637    2.6626 O   0  5  0  0  0  0  0  0  0  0  0  0
    0.2115   -0.3409    3.9055 O   0  0  0  0  0  0  0  0  0  0  0  0
    1.1055   -0.1586   -0.9611 C   0  0  0  0  0  0  0  0  0  0  0  0
    0.9187    0.4984   -1.9821 O   0  0  0  0  0  0  0  0  0  0  0  0
    2.1465   -1.0675   -0.9219 N   0  0  0  0  0  0  0  0  0  0  0  0
    2.0974   -1.7296   -0.1496 H   0  0  0  0  0  0  0  0  0  0  0  0
    2.9391   -1.4191   -2.0894 C   0  0  0  0  0  0  0  0  0  0  0  0
    3.4320   -0.5315   -2.4989 H   0  0  0  0  0  0  0  0  0  0  0  0
    3.7099   -2.1445   -1.8132 H   0  0  0  0  0  0  0  0  0  0  0  0
    2.3038   -1.8618   -2.8631 H   0  0  0  0  0  0  0  0  0  0  0  0
  1  2  1  0  0  0  0
  2  3  1  0  0  0  0
  2  4  1  0  0  0  0
  2  5  1  0  0  0  0
  5  6  2  0  0  0  0
  5  7  1  0  0  0  0
  7  8  1  0  0  0  0
  7  9  1  0  0  0  0
  9 10  1  0  0  0  0
  9 11  1  0  0  0  0
  9 17  1  0  0  0  0
 11 12  1  0  0  0  0
 11 13  1  0  0  0  0
 11 14  1  0  0  0  0
 14 15  1  0  0  0  0
 14 16  2  0  0  0  0
 17 18  2  0  0  0  0
 17 19  1  0  0  0  0
 19 20  1  0  0  0  0
 19 21  1  0  0  0  0
 21 22  1  0  0  0  0
 21 23  1  0  0  0  0
 21 24  1  0  0  0  0
M  CHG  1  15  -1
M  END
$$$$

  -OEChem-01062216073D

 24 23  0     1  0  0  0  0  0999 V2000
   -2.7383   -3.3673    1.1791 H   0  0  0  0  0  0  0  0  0  0  0  0
   -2.7103   -2.2976    0.9545 C   0  0  0  0  0  0  0  0  0  0  0  0
   -2.9337   -1.7417    1.8693 H   0  0  0  0  0  0  0  0  0  0  0  0
   -3.4710   -2.0724    0.2034 H   0  0  0  0  0  0  0  0  0  0  0  0
   -1.3369   -1.9057    0.4414 C   0  0  0  0  0  0  0  0  0  0  0  0
   -0.4890   -2.7669    0.2427 O   0  0  0  0  0  0  0  0  0  0  0  0
   -1.0908   -0.5978    0.0799 N   0  0  0  0  0  0  0  0  0  0  0  0
   -1.8661    0.0199    0.3016 H   0  0  0  0  0  0  0  0  0  0  0  0
    0.2184    0.0434    0.2803 C   0  0  1  0  0  0  0  0  0  0  0  0
    0.0460    1.1249    0.2923 H   0  0  0  0  0  0  0  0  0  0  0  0
    0.8847   -0.3180    1.6319 C   0  0  0  0  0  0  0  0  0  0  0  0
    0.9782   -1.3976    1.7649 H   0  0  0  0  0  0  0  0  0  0  0  0
    1.8952    0.0978    1.6440 H   0  0  0  0  0  0  0  0  0  0  0  0
    0.1354    0.2852    2.8195 C   0  0  0  0  0  0  0  0  0  0  0  0
   -0.4977    1.3590    2.6554 O   0  5  0  0  0  0  0  0  0  0  0  0
    0.1686   -0.3594    3.8943 O   0  0  0  0  0  0  0  0  0  0  0  0
    1.1185   -0.1712   -0.9540 C   0  0  0  0  0  0  0  0  0  0  0  0
    1.1300    0.6317   -1.8833 O   0  0  0  0  0  0  0  0  0  0  0  0
    1.9322   -1.2869   -1.0032 N   0  0  0  0  0  0  0  0  0  0  0  0
    1.6603   -2.0211   -0.3475 H   0  0  0  0  0  0  0  0  0  0  0  0
    2.6924   -1.6620   -2.1845 C   0  0  0  0  0  0  0  0  0  0  0  0
    3.3892   -0.8639   -2.4600 H   0  0  0  0  0  0  0  0  0  0  0  0
    3.2696   -2.5696   -1.9852 H   0  0  0  0  0  0  0  0  0  0  0  0
    2.0202   -1.8537   -3.0268 H   0  0  0  0  0  0  0  0  0  0  0  0
  1  2  1  0  0  0  0
  2  3  1  0  0  0  0
  2  4  1  0  0  0  0
  2  5  1  0  0  0  0
  5  6  2  0  0  0  0
  5  7  1  0  0  0  0
  7  8  1  0  0  0  0
  7  9  1  0  0  0  0
  9 10  1  0  0  0  0
  9 11  1  0  0  0  0
  9 17  1  0  0  0  0
 11 12  1  0  0  0  0
 11 13  1  0  0  0  0
 11 14  1  0  0  0  0
 14 15  1  0  0  0  0
 14 16  2  0  0  0  0
 17 18  2  0  0  0  0
 17 19  1  0  0  0  0
 19 20  1  0  0  0  0
 19 21  1  0  0  0  0
 21 22  1  0  0  0  0
 21 23  1  0  0  0  0
 21 24  1  0  0  0  0
M  CHG  1  15  -1
M  END
$$$$

  -OEChem-01062216073D

 24 23  0     1  0  0  0  0  0999 V2000
   -2.7667   -3.3429    1.2336 H   0  0  0  0  0  0  0  0  0  0  0  0
   -2.7282   -2.2774    0.9907 C   0  0  0  0  0  0  0  0  0  0  0  0
   -2.9337   -1.7038    1.8988 H   0  0  0  0  0  0  0  0  0  0  0  0
   -3.4950   -2.0550    0.2448 H   0  0  0  0  0  0  0  0  0  0  0  0
   -1.3565   -1.9109    0.4543 C   0  0  0  0  0  0  0  0  0  0  0  0
   -0.5286   -2.7875    0.2386 O   0  0  0  0  0  0  0  0  0  0  0  0
   -1.0988   -0.6089    0.0779 N   0  0  0  0  0  0  0  0  0  0  0  0
   -1.8689    0.0142    0.3037 H   0  0  0  0  0  0  0  0  0  0  0  0
    0.2128    0.0335    0.2711 C   0  0  1  0  0  0  0  0  0  0  0  0
    0.0421    1.1155    0.2805 H   0  0  0  0  0  0  0  0  0  0  0  0
    0.8799   -0.3318    1.6190 C   0  0  0  0  0  0  0  0  0  0  0  0
    0.9730   -1.4121    1.7475 H   0  0  0  0  0  0  0  0  0  0  0  0
    1.8910    0.0828    1.6292 H   0  0  0  0  0  0  0  0  0  0  0  0
    0.1317    0.2707    2.8076 C   0  0  0  0  0  0  0  0  0  0  0  0
   -0.5002    1.3458    2.6456 O   0  5  0  0  0  0  0  0  0  0  0  0
    0.1544   -0.3822    3.8776 O   0  0  0  0  0  0  0  0  0  0  0  0
    1.1215   -0.1938   -0.9543 C   0  0  0  0  0  0  0  0  0  0  0  0
    1.3390    0.7008   -1.7668 O   0  0  0  0  0  0  0  0  0  0  0  0
    1.6933   -1.4377   -1.1379 N   0  0  0  0  0  0  0  0  0  0  0  0
    1.2720   -2.1777   -0.5690 H   0  0  0  0  0  0  0  0  0  0  0  0
    2.4376   -1.8098   -2.3297 C   0  0  0  0  0  0  0  0  0  0  0  0
    3.2932   -1.1417   -2.4707 H   0  0  0  0  0  0  0  0  0  0  0  0
    2.8118   -2.8330   -2.2315 H   0  0  0  0  0  0  0  0  0  0  0  0
    1.7950   -1.7561   -3.2141 H   0  0  0  0  0  0  0  0  0  0  0  0
  1  2  1  0  0  0  0
  2  3  1  0  0  0  0
  2  4  1  0  0  0  0
  2  5  1  0  0  0  0
  5  6  2  0  0  0  0
  5  7  1  0  0  0  0
  7  8  1  0  0  0  0
  7  9  1  0  0  0  0
  9 10  1  0  0  0  0
  9 11  1  0  0  0  0
  9 17  1  0  0  0  0
 11 12  1  0  0  0  0
 11 13  1  0  0  0  0
 11 14  1  0  0  0  0
 14 15  1  0  0  0  0
 14 16  2  0  0  0  0
 17 18  2  0  0  0  0
 17 19  1  0  0  0  0
 19 20  1  0  0  0  0
 19 21  1  0  0  0  0
 21 22  1  0  0  0  0
 21 23  1  0  0  0  0
 21 24  1  0  0  0  0
M  CHG  1  15  -1
M  END
$$$$

  -OEChem-01062216073D

 24 23  0     1  0  0  0  0  0999 V2000
   -2.8105   -3.3156    1.3014 H   0  0  0  0  0  0  0  0  0  0  0  0
   -2.7541   -2.2515    1.0560 C   0  0  0  0  0  0  0  0  0  0  0  0
   -2.9131   -1.6730    1.9703 H   0  0  0  0  0  0  0  0  0  0  0  0
   -3.5411   -2.0106    0.3375 H   0  0  0  0  0  0  0  0  0  0  0  0
   -1.3934   -1.9193    0.4718 C   0  0  0  0  0  0  0  0  0  0  0  0
   -0.5977   -2.8177    0.2290 O   0  0  0  0  0  0  0  0  0  0  0  0
   -1.1195   -0.6251    0.0789 N   0  0  0  0  0  0  0  0  0  0  0  0
   -1.8789    0.0068    0.3172 H   0  0  0  0  0  0  0  0  0  0  0  0
    0.1980    0.0156    0.2534 C   0  0  1  0  0  0  0  0  0  0  0  0
    0.0312    1.0982    0.2577 H   0  0  0  0  0  0  0  0  0  0  0  0
    0.8634   -0.3518    1.6002 C   0  0  0  0  0  0  0  0  0  0  0  0
    0.9469   -1.4331    1.7286 H   0  0  0  0  0  0  0  0  0  0  0  0
    1.8780    0.0543    1.6096 H   0  0  0  0  0  0  0  0  0  0  0  0
    0.1195    0.2606    2.7871 C   0  0  0  0  0  0  0  0  0  0  0  0
   -0.5040    1.3402    2.6216 O   0  5  0  0  0  0  0  0  0  0  0  0
    0.1288   -0.3934    3.8566 O   0  0  0  0  0  0  0  0  0  0  0  0
    1.1158   -0.2202   -0.9657 C   0  0  0  0  0  0  0  0  0  0  0  0
    1.5333    0.7152   -1.6423 O   0  0  0  0  0  0  0  0  0  0  0  0
    1.4462   -1.5125   -1.3236 N   0  0  0  0  0  0  0  0  0  0  0  0
    0.9487   -2.2449   -0.8072 H   0  0  0  0  0  0  0  0  0  0  0  0
    2.1882   -1.8637   -2.5228 C   0  0  0  0  0  0  0  0  0  0  0  0
    3.1684   -1.3767   -2.5223 H   0  0  0  0  0  0  0  0  0  0  0  0
    2.3406   -2.9461   -2.5637 H   0  0  0  0  0  0  0  0  0  0  0  0
    1.6375   -1.5549   -3.4168 H   0  0  0  0  0  0  0  0  0  0  0  0
  1  2  1  0  0  0  0
  2  3  1  0  0  0  0
  2  4  1  0  0  0  0
  2  5  1  0  0  0  0
  5  6  2  0  0  0  0
  5  7  1  0  0  0  0
  7  8  1  0  0  0  0
  7  9  1  0  0  0  0
  9 10  1  0  0  0  0
  9 11  1  0  0  0  0
  9 17  1  0  0  0  0
 11 12  1  0  0  0  0
 11 13  1  0  0  0  0
 11 14  1  0  0  0  0
 14 15  1  0  0  0  0
 14 16  2  0  0  0  0
 17 18  2  0  0  0  0
 17 19  1  0  0  0  0
 19 20  1  0  0  0  0
 19 21  1  0  0  0  0
 21 22  1  0  0  0  0
 21 23  1  0  0  0  0
 21 24  1  0  0  0  0
M  CHG  1  15  -1
M  END
$$$$

  -OEChem-01062216073D

 24 23  0     1  0  0  0  0  0999 V2000
   -2.8394   -3.2980    1.3886 H   0  0  0  0  0  0  0  0  0  0  0  0
   -2.7746   -2.2307    1.1596 C   0  0  0  0  0  0  0  0  0  0  0  0
   -2.8529   -1.6670    2.0938 H   0  0  0  0  0  0  0  0  0  0  0  0
   -3.6049   -1.9565    0.5048 H   0  0  0  0  0  0  0  0  0  0  0  0
   -1.4515   -1.9185    0.4857 C   0  0  0  0  0  0  0  0  0  0  0  0
   -0.6910   -2.8278    0.1801 O   0  0  0  0  0  0  0  0  0  0  0  0
   -1.1816   -0.6268    0.0825 N   0  0  0  0  0  0  0  0  0  0  0  0
   -1.9240    0.0087    0.3620 H   0  0  0  0  0  0  0  0  0  0  0  0
    0.1454    0.0074    0.2153 C   0  0  1  0  0  0  0  0  0  0  0  0
   -0.0168    1.0904    0.2282 H   0  0  0  0  0  0  0  0  0  0  0  0
    0.8427   -0.3749    1.5409 C   0  0  0  0  0  0  0  0  0  0  0  0
    0.9213   -1.4582    1.6580 H   0  0  0  0  0  0  0  0  0  0  0  0
    1.8604    0.0234    1.5268 H   0  0  0  0  0  0  0  0  0  0  0  0
    0.1343    0.2362    2.7498 C   0  0  0  0  0  0  0  0  0  0  0  0
   -0.4842    1.3219    2.6067 O   0  5  0  0  0  0  0  0  0  0  0  0
    0.1536   -0.4312    3.8110 O   0  0  0  0  0  0  0  0  0  0  0  0
    1.0414   -0.2236   -1.0227 C   0  0  0  0  0  0  0  0  0  0  0  0
    1.6762    0.6972   -1.5281 O   0  0  0  0  0  0  0  0  0  0  0  0
    1.1241   -1.4814   -1.5870 N   0  0  0  0  0  0  0  0  0  0  0  0
    0.6069   -2.2179   -1.0969 H   0  0  0  0  0  0  0  0  0  0  0  0
    1.9873   -1.8286   -2.7035 C   0  0  0  0  0  0  0  0  0  0  0  0
    3.0358   -1.6487   -2.4457 H   0  0  0  0  0  0  0  0  0  0  0  0
    1.8675   -2.8868   -2.9533 H   0  0  0  0  0  0  0  0  0  0  0  0
    1.7301   -1.2332   -3.5852 H   0  0  0  0  0  0  0  0  0  0  0  0
  1  2  1  0  0  0  0
  2  3  1  0  0  0  0
  2  4  1  0  0  0  0
  2  5  1  0  0  0  0
  5  6  2  0  0  0  0
  5  7  1  0  0  0  0
  7  8  1  0  0  0  0
  7  9  1  0  0  0  0
  9 10  1  0  0  0  0
  9 11  1  0  0  0  0
  9 17  1  0  0  0  0
 11 12  1  0  0  0  0
 11 13  1  0  0  0  0
 11 14  1  0  0  0  0
 14 15  1  0  0  0  0
 14 16  2  0  0  0  0
 17 18  2  0  0  0  0
 17 19  1  0  0  0  0
 19 20  1  0  0  0  0
 19 21  1  0  0  0  0
 21 22  1  0  0  0  0
 21 23  1  0  0  0  0
 21 24  1  0  0  0  0
M  CHG  1  15  -1
M  END
$$$$

  -OEChem-01062216073D

 24 23  0     1  0  0  0  0  0999 V2000
   -2.7983   -3.2956    1.4618 H   0  0  0  0  0  0  0  0  0  0  0  0
   -2.7541   -2.2292    1.2244 C   0  0  0  0  0  0  0  0  0  0  0  0
   -2.7850   -1.6612    2.1588 H   0  0  0  0  0  0  0  0  0  0  0  0
   -3.6211   -1.9643    0.6150 H   0  0  0  0  0  0  0  0  0  0  0  0
   -1.4719   -1.9111    0.4784 C   0  0  0  0  0  0  0  0  0  0  0  0
   -0.7437   -2.8161    0.0932 O   0  0  0  0  0  0  0  0  0  0  0  0
   -1.2138   -0.6166    0.0787 N   0  0  0  0  0  0  0  0  0  0  0  0
   -1.9437    0.0140    0.4004 H   0  0  0  0  0  0  0  0  0  0  0  0
    0.1171    0.0143    0.1977 C   0  0  1  0  0  0  0  0  0  0  0  0
   -0.0409    1.0978    0.2192 H   0  0  0  0  0  0  0  0  0  0  0  0
    0.8224   -0.3848    1.5142 C   0  0  0  0  0  0  0  0  0  0  0  0
    0.8962   -1.4696    1.6195 H   0  0  0  0  0  0  0  0  0  0  0  0
    1.8422    0.0077    1.4969 H   0  0  0  0  0  0  0  0  0  0  0  0
    0.1245    0.2193    2.7329 C   0  0  0  0  0  0  0  0  0  0  0  0
   -0.4891    1.3095    2.6032 O   0  5  0  0  0  0  0  0  0  0  0  0
    0.1322   -0.4658    3.7828 O   0  0  0  0  0  0  0  0  0  0  0  0
    1.0025   -0.2055   -1.0513 C   0  0  0  0  0  0  0  0  0  0  0  0
    1.8241    0.6366   -1.4005 O   0  0  0  0  0  0  0  0  0  0  0  0
    0.8535   -1.3499   -1.8115 N   0  0  0  0  0  0  0  0  0  0  0  0
    0.2853   -2.0785   -1.3689 H   0  0  0  0  0  0  0  0  0  0  0  0
    1.7452   -1.7182   -2.8991 C   0  0  0  0  0  0  0  0  0  0  0  0
    2.7632   -1.8647   -2.5245 H   0  0  0  0  0  0  0  0  0  0  0  0
    1.4061   -2.6503   -3.3604 H   0  0  0  0  0  0  0  0  0  0  0  0
    1.7574   -0.9382   -3.6669 H   0  0  0  0  0  0  0  0  0  0  0  0
  1  2  1  0  0  0  0
  2  3  1  0  0  0  0
  2  4  1  0  0  0  0
  2  5  1  0  0  0  0
  5  6  2  0  0  0  0
  5  7  1  0  0  0  0
  7  8  1  0  0  0  0
  7  9  1  0  0  0  0
  9 10  1  0  0  0  0
  9 11  1  0  0  0  0
  9 17  1  0  0  0  0
 11 12  1  0  0  0  0
 11 13  1  0  0  0  0
 11 14  1  0  0  0  0
 14 15  1  0  0  0  0
 14 16  2  0  0  0  0
 17 18  2  0  0  0  0
 17 19  1  0  0  0  0
 19 20  1  0  0  0  0
 19 21  1  0  0  0  0
 21 22  1  0  0  0  0
 21 23  1  0  0  0  0
 21 24  1  0  0  0  0
M  CHG  1  15  -1
M  END
$$$$

  -OEChem-01062216073D

 24 23  0     1  0  0  0  0  0999 V2000
   -2.7339   -3.2932    1.5170 H   0  0  0  0  0  0  0  0  0  0  0  0
   -2.7091   -2.2269    1.2765 C   0  0  0  0  0  0  0  0  0  0  0  0
   -2.6900   -1.6590    2.2114 H   0  0  0  0  0  0  0  0  0  0  0  0
   -3.6104   -1.9660    0.7174 H   0  0  0  0  0  0  0  0  0  0  0  0
   -1.4732   -1.9035    0.4579 C   0  0  0  0  0  0  0  0  0  0  0  0
   -0.7845   -2.7998   -0.0100 O   0  0  0  0  0  0  0  0  0  0  0  0
   -1.2239   -0.6072    0.0635 N   0  0  0  0  0  0  0  0  0  0  0  0
   -1.9453    0.0178    0.4146 H   0  0  0  0  0  0  0  0  0  0  0  0
    0.1088    0.0189    0.1938 C   0  0  1  0  0  0  0  0  0  0  0  0
   -0.0431    1.1031    0.2190 H   0  0  0  0  0  0  0  0  0  0  0  0
    0.7983   -0.3945    1.5146 C   0  0  0  0  0  0  0  0  0  0  0  0
    0.8654   -1.4809    1.6117 H   0  0  0  0  0  0  0  0  0  0  0  0
    1.8203   -0.0072    1.5135 H   0  0  0  0  0  0  0  0  0  0  0  0
    0.0882    0.2059    2.7279 C   0  0  0  0  0  0  0  0  0  0  0  0
   -0.5179    1.3003    2.5969 O   0  5  0  0  0  0  0  0  0  0  0  0
    0.0658   -0.4931    3.7683 O   0  0  0  0  0  0  0  0  0  0  0  0
    0.9998   -0.1979   -1.0525 C   0  0  0  0  0  0  0  0  0  0  0  0
    1.9720    0.5198   -1.2677 O   0  0  0  0  0  0  0  0  0  0  0  0
    0.6576   -1.1588   -1.9857 N   0  0  0  0  0  0  0  0  0  0  0  0
    0.0044   -1.8594   -1.6256 H   0  0  0  0  0  0  0  0  0  0  0  0
    1.5111   -1.5194   -3.1065 C   0  0  0  0  0  0  0  0  0  0  0  0
    2.4559   -1.9393   -2.7472 H   0  0  0  0  0  0  0  0  0  0  0  0
    1.0117   -2.2660   -3.7308 H   0  0  0  0  0  0  0  0  0  0  0  0
    1.7251   -0.6415   -3.7245 H   0  0  0  0  0  0  0  0  0  0  0  0
  1  2  1  0  0  0  0
  2  3  1  0  0  0  0
  2  4  1  0  0  0  0
  2  5  1  0  0  0  0
  5  6  2  0  0  0  0
  5  7  1  0  0  0  0
  7  8  1  0  0  0  0
  7  9  1  0  0  0  0
  9 10  1  0  0  0  0
  9 11  1  0  0  0  0
  9 17  1  0  0  0  0
 11 12  1  0  0  0  0
 11 13  1  0  0  0  0
 11 14  1  0  0  0  0
 14 15  1  0  0  0  0
 14 16  2  0  0  0  0
 17 18  2  0  0  0  0
 17 19  1  0  0  0  0
 19 20  1  0  0  0  0
 19 21  1  0  0  0  0
 21 22  1  0  0  0  0
 21 23  1  0  0  0  0
 21 24  1  0  0  0  0
M  CHG  1  15  -1
M  END
$$$$

  -OEChem-01062216073D

 24 23  0     1  0  0  0  0  0999 V2000
   -2.7119   -3.3176    1.4836 H   0  0  0  0  0  0  0  0  0  0  0  0
   -2.6702   -2.2410    1.2977 C   0  0  0  0  0  0  0  0  0  0  0  0
   -2.5961   -1.7233    2.2587 H   0  0  0  0  0  0  0  0  0  0  0  0
   -3.5881   -1.9308    0.7933 H   0  0  0  0  0  0  0  0  0  0  0  0
   -1.4624   -1.9033    0.4438 C   0  0  0  0  0  0  0  0  0  0  0  0
   -0.7941   -2.7882   -0.0710 O   0  0  0  0  0  0  0  0  0  0  0  0
   -1.2236   -0.6033    0.0582 N   0  0  0  0  0  0  0  0  0  0  0  0
   -1.9396    0.0138    0.4346 H   0  0  0  0  0  0  0  0  0  0  0  0
    0.1092    0.0206    0.1970 C   0  0  1  0  0  0  0  0  0  0  0  0
   -0.0401    1.1050    0.2232 H   0  0  0  0  0  0  0  0  0  0  0  0
    0.7861   -0.3970    1.5242 C   0  0  0  0  0  0  0  0  0  0  0  0
    0.8498   -1.4836    1.6208 H   0  0  0  0  0  0  0  0  0  0  0  0
    1.8091   -0.0126    1.5351 H   0  0  0  0  0  0  0  0  0  0  0  0
    0.0648    0.2055    2.7299 C   0  0  0  0  0  0  0  0  0  0  0  0
   -0.5364    1.3019    2.5919 O   0  5  0  0  0  0  0  0  0  0  0  0
    0.0181   -0.4988    3.7660 O   0  0  0  0  0  0  0  0  0  0  0  0
    0.9988   -0.1899   -1.0522 C   0  0  0  0  0  0  0  0  0  0  0  0
    2.0920    0.3583   -1.1553 O   0  0  0  0  0  0  0  0  0  0  0  0
    0.5073   -0.9042   -2.1294 N   0  0  0  0  0  0  0  0  0  0  0  0
   -0.2553   -1.5330   -1.8742 H   0  0  0  0  0  0  0  0  0  0  0  0
    1.3207   -1.2467   -3.2857 C   0  0  0  0  0  0  0  0  0  0  0  0
    2.1627   -1.8792   -2.9867 H   0  0  0  0  0  0  0  0  0  0  0  0
    0.7179   -1.7913   -4.0181 H   0  0  0  0  0  0  0  0  0  0  0  0
    1.7088   -0.3419   -3.7642 H   0  0  0  0  0  0  0  0  0  0  0  0
  1  2  1  0  0  0  0
  2  3  1  0  0  0  0
  2  4  1  0  0  0  0
  2  5  1  0  0  0  0
  5  6  2  0  0  0  0
  5  7  1  0  0  0  0
  7  8  1  0  0  0  0
  7  9  1  0  0  0  0
  9 10  1  0  0  0  0
  9 11  1  0  0  0  0
  9 17  1  0  0  0  0
 11 12  1  0  0  0  0
 11 13  1  0  0  0  0
 11 14  1  0  0  0  0
 14 15  1  0  0  0  0
 14 16  2  0  0  0  0
 17 18  2  0  0  0  0
 17 19  1  0  0  0  0
 19 20  1  0  0  0  0
 19 21  1  0  0  0  0
 21 22  1  0  0  0  0
 21 23  1  0  0  0  0
 21 24  1  0  0  0  0
M  CHG  1  15  -1
M  END
$$$$

  -OEChem-01062216073D

 24 23  0     1  0  0  0  0  0999 V2000
   -2.6884   -3.3412    1.4699 H   0  0  0  0  0  0  0  0  0  0  0  0
   -2.6532   -2.2641    1.2859 C   0  0  0  0  0  0  0  0  0  0  0  0
   -2.5893   -1.7471    2.2481 H   0  0  0  0  0  0  0  0  0  0  0  0
   -3.5701   -1.9595    0.7761 H   0  0  0  0  0  0  0  0  0  0  0  0
   -1.4420   -1.9169    0.4406 C   0  0  0  0  0  0  0  0  0  0  0  0
   -0.7613   -2.7978   -0.0624 O   0  0  0  0  0  0  0  0  0  0  0  0
   -1.2099   -0.6120    0.0661 N   0  0  0  0  0  0  0  0  0  0  0  0
   -1.9250   -0.0018    0.4554 H   0  0  0  0  0  0  0  0  0  0  0  0
    0.1221    0.0124    0.2060 C   0  0  1  0  0  0  0  0  0  0  0  0
   -0.0303    1.0959    0.2310 H   0  0  0  0  0  0  0  0  0  0  0  0
    0.7923   -0.3979    1.5400 C   0  0  0  0  0  0  0  0  0  0  0  0
    0.8554   -1.4839    1.6433 H   0  0  0  0  0  0  0  0  0  0  0  0
    1.8150   -0.0135    1.5571 H   0  0  0  0  0  0  0  0  0  0  0  0
    0.0638    0.2133    2.7372 C   0  0  0  0  0  0  0  0  0  0  0  0
   -0.5356    1.3094    2.5869 O   0  5  0  0  0  0  0  0  0  0  0  0
    0.0082   -0.4830    3.7781 O   0  0  0  0  0  0  0  0  0  0  0  0
    1.0038   -0.1865   -1.0514 C   0  0  0  0  0  0  0  0  0  0  0  0
    2.1829    0.1538   -1.0731 O   0  0  0  0  0  0  0  0  0  0  0  0
    0.4153   -0.6062   -2.2308 N   0  0  0  0  0  0  0  0  0  0  0  0
   -0.4710   -1.0858   -2.0896 H   0  0  0  0  0  0  0  0  0  0  0  0
    1.1824   -0.9158   -3.4277 C   0  0  0  0  0  0  0  0  0  0  0  0
    1.8702   -1.7455   -3.2357 H   0  0  0  0  0  0  0  0  0  0  0  0
    0.5086   -1.2013   -4.2405 H   0  0  0  0  0  0  0  0  0  0  0  0
    1.7600   -0.0434   -3.7500 H   0  0  0  0  0  0  0  0  0  0  0  0
  1  2  1  0  0  0  0
  2  3  1  0  0  0  0
  2  4  1  0  0  0  0
  2  5  1  0  0  0  0
  5  6  2  0  0  0  0
  5  7  1  0  0  0  0
  7  8  1  0  0  0  0
  7  9  1  0  0  0  0
  9 10  1  0  0  0  0
  9 11  1  0  0  0  0
  9 17  1  0  0  0  0
 11 12  1  0  0  0  0
 11 13  1  0  0  0  0
 11 14  1  0  0  0  0
 14 15  1  0  0  0  0
 14 16  2  0  0  0  0
 17 18  2  0  0  0  0
 17 19  1  0  0  0  0
 19 20  1  0  0  0  0
 19 21  1  0  0  0  0
 21 22  1  0  0  0  0
 21 23  1  0  0  0  0
 21 24  1  0  0  0  0
M  CHG  1  15  -1
M  END
$$$$

  -OEChem-01062216073D

 24 23  0     1  0  0  0  0  0999 V2000
   -2.6825   -3.3620    1.4316 H   0  0  0  0  0  0  0  0  0  0  0  0
   -2.6442   -2.2836    1.2562 C   0  0  0  0  0  0  0  0  0  0  0  0
   -2.5970   -1.7737    2.2230 H   0  0  0  0  0  0  0  0  0  0  0  0
   -3.5518   -1.9752    0.7325 H   0  0  0  0  0  0  0  0  0  0  0  0
   -1.4183   -1.9304    0.4345 C   0  0  0  0  0  0  0  0  0  0  0  0
   -0.7128   -2.8107   -0.0331 O   0  0  0  0  0  0  0  0  0  0  0  0
   -1.1905   -0.6217    0.0675 N   0  0  0  0  0  0  0  0  0  0  0  0
   -1.9098   -0.0170    0.4577 H   0  0  0  0  0  0  0  0  0  0  0  0
    0.1388    0.0055    0.2128 C   0  0  1  0  0  0  0  0  0  0  0  0
   -0.0158    1.0886    0.2356 H   0  0  0  0  0  0  0  0  0  0  0  0
    0.8009   -0.3957    1.5546 C   0  0  0  0  0  0  0  0  0  0  0  0
    0.8654   -1.4809    1.6653 H   0  0  0  0  0  0  0  0  0  0  0  0
    1.8226   -0.0088    1.5772 H   0  0  0  0  0  0  0  0  0  0  0  0
    0.0620    0.2221    2.7426 C   0  0  0  0  0  0  0  0  0  0  0  0
   -0.5381    1.3163    2.5791 O   0  5  0  0  0  0  0  0  0  0  0  0
    0.0030   -0.4635    3.7905 O   0  0  0  0  0  0  0  0  0  0  0  0
    1.0146   -0.1885   -1.0496 C   0  0  0  0  0  0  0  0  0  0  0  0
    2.2377   -0.0908   -1.0207 O   0  0  0  0  0  0  0  0  0  0  0  0
    0.3925   -0.2934   -2.2813 N   0  0  0  0  0  0  0  0  0  0  0  0
   -0.5857   -0.5618   -2.2276 H   0  0  0  0  0  0  0  0  0  0  0  0
    1.1183   -0.5619   -3.5136 C   0  0  0  0  0  0  0  0  0  0  0  0
    1.6302   -1.5277   -3.4519 H   0  0  0  0  0  0  0  0  0  0  0  0
    0.4245   -0.5878   -4.3590 H   0  0  0  0  0  0  0  0  0  0  0  0
    1.8600    0.2213   -3.7009 H   0  0  0  0  0  0  0  0  0  0  0  0
  1  2  1  0  0  0  0
  2  3  1  0  0  0  0
  2  4  1  0  0  0  0
  2  5  1  0  0  0  0
  5  6  2  0  0  0  0
  5  7  1  0  0  0  0
  7  8  1  0  0  0  0
  7  9  1  0  0  0  0
  9 10  1  0  0  0  0
  9 11  1  0  0  0  0
  9 17  1  0  0  0  0
 11 12  1  0  0  0  0
 11 13  1  0  0  0  0
 11 14  1  0  0  0  0
 14 15  1  0  0  0  0
 14 16  2  0  0  0  0
 17 18  2  0  0  0  0
 17 19  1  0  0  0  0
 19 20  1  0  0  0  0
 19 21  1  0  0  0  0
 21 22  1  0  0  0  0
 21 23  1  0  0  0  0
 21 24  1  0  0  0  0
M  CHG  1  15  -1
M  END
$$$$

  -OEChem-01062216073D

 24 23  0     1  0  0  0  0  0999 V2000
   -2.6949   -3.3838    1.3916 H   0  0  0  0  0  0  0  0  0  0  0  0
   -2.6489   -2.3041    1.2251 C   0  0  0  0  0  0  0  0  0  0  0  0
   -2.6249   -1.8014    2.1965 H   0  0  0  0  0  0  0  0  0  0  0  0
   -3.5421   -1.9896    0.6808 H   0  0  0  0  0  0  0  0  0  0  0  0
   -1.4018   -1.9485    0.4367 C   0  0  0  0  0  0  0  0  0  0  0  0
   -0.6768   -2.8303    0.0038 O   0  0  0  0  0  0  0  0  0  0  0  0
   -1.1747   -0.6391    0.0699 N   0  0  0  0  0  0  0  0  0  0  0  0
   -1.8992   -0.0365    0.4531 H   0  0  0  0  0  0  0  0  0  0  0  0
    0.1517   -0.0081    0.2142 C   0  0  1  0  0  0  0  0  0  0  0  0
   -0.0068    1.0745    0.2283 H   0  0  0  0  0  0  0  0  0  0  0  0
    0.8110   -0.3887    1.5635 C   0  0  0  0  0  0  0  0  0  0  0  0
    0.8765   -1.4722    1.6895 H   0  0  0  0  0  0  0  0  0  0  0  0
    1.8318    0.0004    1.5833 H   0  0  0  0  0  0  0  0  0  0  0  0
    0.0666    0.2439    2.7405 C   0  0  0  0  0  0  0  0  0  0  0  0
   -0.5354    1.3344    2.5577 O   0  5  0  0  0  0  0  0  0  0  0  0
    0.0126   -0.4203    3.8021 O   0  0  0  0  0  0  0  0  0  0  0  0
    1.0235   -0.2023   -1.0502 C   0  0  0  0  0  0  0  0  0  0  0  0
    2.2409   -0.3497   -1.0014 O   0  0  0  0  0  0  0  0  0  0  0  0
    0.4387    0.0045   -2.2877 N   0  0  0  0  0  0  0  0  0  0  0  0
   -0.5756   -0.0277   -2.2891 H   0  0  0  0  0  0  0  0  0  0  0  0
    1.1455   -0.2002   -3.5434 C   0  0  0  0  0  0  0  0  0  0  0  0
    1.4680   -1.2425   -3.6337 H   0  0  0  0  0  0  0  0  0  0  0  0
    0.4893    0.0363   -4.3860 H   0  0  0  0  0  0  0  0  0  0  0  0
    2.0249    0.4494   -3.5992 H   0  0  0  0  0  0  0  0  0  0  0  0
  1  2  1  0  0  0  0
  2  3  1  0  0  0  0
  2  4  1  0  0  0  0
  2  5  1  0  0  0  0
  5  6  2  0  0  0  0
  5  7  1  0  0  0  0
  7  8  1  0  0  0  0
  7  9  1  0  0  0  0
  9 10  1  0  0  0  0
  9 11  1  0  0  0  0
  9 17  1  0  0  0  0
 11 12  1  0  0  0  0
 11 13  1  0  0  0  0
 11 14  1  0  0  0  0
 14 15  1  0  0  0  0
 14 16  2  0  0  0  0
 17 18  2  0  0  0  0
 17 19  1  0  0  0  0
 19 20  1  0  0  0  0
 19 21  1  0  0  0  0
 21 22  1  0  0  0  0
 21 23  1  0  0  0  0
 21 24  1  0  0  0  0
M  CHG  1  15  -1
M  END
$$$$

  -OEChem-01062216073D

 24 23  0     1  0  0  0  0  0999 V2000
   -2.6816   -3.3838    1.4325 H   0  0  0  0  0  0  0  0  0  0  0  0
   -2.6579   -2.3127    1.2137 C   0  0  0  0  0  0  0  0  0  0  0  0
   -2.6669   -1.7632    2.1595 H   0  0  0  0  0  0  0  0  0  0  0  0
   -3.5462   -2.0475    0.6360 H   0  0  0  0  0  0  0  0  0  0  0  0
   -1.4027   -1.9651    0.4346 C   0  0  0  0  0  0  0  0  0  0  0  0
   -0.6738   -2.8531    0.0225 O   0  0  0  0  0  0  0  0  0  0  0  0
   -1.1719   -0.6563    0.0662 N   0  0  0  0  0  0  0  0  0  0  0  0
   -1.8985   -0.0527    0.4426 H   0  0  0  0  0  0  0  0  0  0  0  0
    0.1534   -0.0245    0.2060 C   0  0  1  0  0  0  0  0  0  0  0  0
   -0.0075    1.0575    0.2181 H   0  0  0  0  0  0  0  0  0  0  0  0
    0.8144   -0.3935    1.5574 C   0  0  0  0  0  0  0  0  0  0  0  0
    0.8793   -1.4761    1.6916 H   0  0  0  0  0  0  0  0  0  0  0  0
    1.8355   -0.0047    1.5707 H   0  0  0  0  0  0  0  0  0  0  0  0
    0.0712    0.2484    2.7305 C   0  0  0  0  0  0  0  0  0  0  0  0
   -0.5315    1.3373    2.5386 O   0  5  0  0  0  0  0  0  0  0  0  0
    0.0254   -0.4016    3.8013 O   0  0  0  0  0  0  0  0  0  0  0  0
    1.0254   -0.2177   -1.0579 C   0  0  0  0  0  0  0  0  0  0  0  0
    2.1861   -0.6133   -1.0159 O   0  0  0  0  0  0  0  0  0  0  0  0
    0.5525    0.2831   -2.2592 N   0  0  0  0  0  0  0  0  0  0  0  0
   -0.4347    0.5151   -2.2801 H   0  0  0  0  0  0  0  0  0  0  0  0
    1.2717    0.1520   -3.5177 C   0  0  0  0  0  0  0  0  0  0  0  0
    1.4264   -0.9043   -3.7604 H   0  0  0  0  0  0  0  0  0  0  0  0
    0.6999    0.6149   -4.3270 H   0  0  0  0  0  0  0  0  0  0  0  0
    2.2455    0.6482   -3.4561 H   0  0  0  0  0  0  0  0  0  0  0  0
  1  2  1  0  0  0  0
  2  3  1  0  0  0  0
  2  4  1  0  0  0  0
  2  5  1  0  0  0  0
  5  6  2  0  0  0  0
  5  7  1  0  0  0  0
  7  8  1  0  0  0  0
  7  9  1  0  0  0  0
  9 10  1  0  0  0  0
  9 11  1  0  0  0  0
  9 17  1  0  0  0  0
 11 12  1  0  0  0  0
 11 13  1  0  0  0  0
 11 14  1  0  0  0  0
 14 15  1  0  0  0  0
 14 16  2  0  0  0  0
 17 18  2  0  0  0  0
 17 19  1  0  0  0  0
 19 20  1  0  0  0  0
 19 21  1  0  0  0  0
 21 22  1  0  0  0  0
 21 23  1  0  0  0  0
 21 24  1  0  0  0  0
M  CHG  1  15  -1
M  END
$$$$

  -OEChem-01062216073D

 24 23  0     1  0  0  0  0  0999 V2000
   -2.7160   -3.3954    1.4288 H   0  0  0  0  0  0  0  0  0  0  0  0
   -2.6806   -2.3247    1.2101 C   0  0  0  0  0  0  0  0  0  0  0  0
   -2.6982   -1.7749    2.1555 H   0  0  0  0  0  0  0  0  0  0  0  0
   -3.5589   -2.0530    0.6203 H   0  0  0  0  0  0  0  0  0  0  0  0
   -1.4123   -1.9875    0.4475 C   0  0  0  0  0  0  0  0  0  0  0  0
   -0.6765   -2.8836    0.0678 O   0  0  0  0  0  0  0  0  0  0  0  0
   -1.1798   -0.6822    0.0667 N   0  0  0  0  0  0  0  0  0  0  0  0
   -1.9096   -0.0743    0.4285 H   0  0  0  0  0  0  0  0  0  0  0  0
    0.1443   -0.0458    0.1878 C   0  0  1  0  0  0  0  0  0  0  0  0
   -0.0238    1.0349    0.1928 H   0  0  0  0  0  0  0  0  0  0  0  0
    0.8186   -0.3911    1.5380 C   0  0  0  0  0  0  0  0  0  0  0  0
    0.8852   -1.4714    1.6885 H   0  0  0  0  0  0  0  0  0  0  0  0
    1.8397   -0.0021    1.5334 H   0  0  0  0  0  0  0  0  0  0  0  0
    0.0857    0.2668    2.7092 C   0  0  0  0  0  0  0  0  0  0  0  0
   -0.5216    1.3512    2.5054 O   0  5  0  0  0  0  0  0  0  0  0  0
    0.0634   -0.3584    3.7952 O   0  0  0  0  0  0  0  0  0  0  0  0
    1.0148   -0.2413   -1.0770 C   0  0  0  0  0  0  0  0  0  0  0  0
    2.0712   -0.8644   -1.0743 O   0  0  0  0  0  0  0  0  0  0  0  0
    0.7089    0.5061   -2.2024 N   0  0  0  0  0  0  0  0  0  0  0  0
   -0.1775    0.9986   -2.1912 H   0  0  0  0  0  0  0  0  0  0  0  0
    1.4844    0.4672   -3.4336 C   0  0  0  0  0  0  0  0  0  0  0  0
    1.5002   -0.5478   -3.8434 H   0  0  0  0  0  0  0  0  0  0  0  0
    1.0410    1.1354   -4.1774 H   0  0  0  0  0  0  0  0  0  0  0  0
    2.5135    0.7915   -3.2481 H   0  0  0  0  0  0  0  0  0  0  0  0
  1  2  1  0  0  0  0
  2  3  1  0  0  0  0
  2  4  1  0  0  0  0
  2  5  1  0  0  0  0
  5  6  2  0  0  0  0
  5  7  1  0  0  0  0
  7  8  1  0  0  0  0
  7  9  1  0  0  0  0
  9 10  1  0  0  0  0
  9 11  1  0  0  0  0
  9 17  1  0  0  0  0
 11 12  1  0  0  0  0
 11 13  1  0  0  0  0
 11 14  1  0  0  0  0
 14 15  1  0  0  0  0
 14 16  2  0  0  0  0
 17 18  2  0  0  0  0
 17 19  1  0  0  0  0
 19 20  1  0  0  0  0
 19 21  1  0  0  0  0
 21 22  1  0  0  0  0
 21 23  1  0  0  0  0
 21 24  1  0  0  0  0
M  CHG  1  15  -1
M  END
$$$$

  -OEChem-01062216073D

 24 23  0     1  0  0  0  0  0999 V2000
   -2.7652   -3.4098    1.4171 H   0  0  0  0  0  0  0  0  0  0  0  0
   -2.7245   -2.3423    1.1838 C   0  0  0  0  0  0  0  0  0  0  0  0
   -2.7856   -1.7777    2.1185 H   0  0  0  0  0  0  0  0  0  0  0  0
   -3.5771   -2.0841    0.5516 H   0  0  0  0  0  0  0  0  0  0  0  0
   -1.4257   -2.0111    0.4714 C   0  0  0  0  0  0  0  0  0  0  0  0
   -0.6695   -2.9132    0.1529 O   0  0  0  0  0  0  0  0  0  0  0  0
   -1.1912   -0.7087    0.0799 N   0  0  0  0  0  0  0  0  0  0  0  0
   -1.9285   -0.0961    0.4161 H   0  0  0  0  0  0  0  0  0  0  0  0
    0.1304   -0.0619    0.1702 C   0  0  1  0  0  0  0  0  0  0  0  0
   -0.0564    1.0156    0.1729 H   0  0  0  0  0  0  0  0  0  0  0  0
    0.8387   -0.3805    1.5081 C   0  0  0  0  0  0  0  0  0  0  0  0
    0.9153   -1.4582    1.6715 H   0  0  0  0  0  0  0  0  0  0  0  0
    1.8568    0.0145    1.4710 H   0  0  0  0  0  0  0  0  0  0  0  0
    0.1304    0.2865    2.6895 C   0  0  0  0  0  0  0  0  0  0  0  0
   -0.4918    1.3631    2.4863 O   0  5  0  0  0  0  0  0  0  0  0  0
    0.1642   -0.3094    3.7915 O   0  0  0  0  0  0  0  0  0  0  0  0
    0.9964   -0.2479   -1.0998 C   0  0  0  0  0  0  0  0  0  0  0  0
    1.8976   -1.0747   -1.1843 O   0  0  0  0  0  0  0  0  0  0  0  0
    0.8936    0.6951   -2.1101 N   0  0  0  0  0  0  0  0  0  0  0  0
    0.1933    1.4192   -1.9921 H   0  0  0  0  0  0  0  0  0  0  0  0
    1.7428    0.7119   -3.2922 C   0  0  0  0  0  0  0  0  0  0  0  0
    1.6491   -0.2294   -3.8435 H   0  0  0  0  0  0  0  0  0  0  0  0
    1.4483    1.5314   -3.9542 H   0  0  0  0  0  0  0  0  0  0  0  0
    2.7904    0.8544   -3.0079 H   0  0  0  0  0  0  0  0  0  0  0  0
  1  2  1  0  0  0  0
  2  3  1  0  0  0  0
  2  4  1  0  0  0  0
  2  5  1  0  0  0  0
  5  6  2  0  0  0  0
  5  7  1  0  0  0  0
  7  8  1  0  0  0  0
  7  9  1  0  0  0  0
  9 10  1  0  0  0  0
  9 11  1  0  0  0  0
  9 17  1  0  0  0  0
 11 12  1  0  0  0  0
 11 13  1  0  0  0  0
 11 14  1  0  0  0  0
 14 15  1  0  0  0  0
 14 16  2  0  0  0  0
 17 18  2  0  0  0  0
 17 19  1  0  0  0  0
 19 20  1  0  0  0  0
 19 21  1  0  0  0  0
 21 22  1  0  0  0  0
 21 23  1  0  0  0  0
 21 24  1  0  0  0  0
M  CHG  1  15  -1
M  END
$$$$

  -OEChem-01062216073D

 24 23  0     1  0  0  0  0  0999 V2000
   -2.8353   -3.4275    1.3613 H   0  0  0  0  0  0  0  0  0  0  0  0
   -2.7834   -2.3626    1.1177 C   0  0  0  0  0  0  0  0  0  0  0  0
   -2.9208   -1.7864    2.0368 H   0  0  0  0  0  0  0  0  0  0  0  0
   -3.5864   -2.1194    0.4181 H   0  0  0  0  0  0  0  0  0  0  0  0
   -1.4356   -2.0306    0.5021 C   0  0  0  0  0  0  0  0  0  0  0  0
   -0.6437   -2.9329    0.2902 O   0  0  0  0  0  0  0  0  0  0  0  0
   -1.1930   -0.7295    0.1079 N   0  0  0  0  0  0  0  0  0  0  0  0
   -1.9426   -0.1107    0.4006 H   0  0  0  0  0  0  0  0  0  0  0  0
    0.1264   -0.0743    0.1653 C   0  0  1  0  0  0  0  0  0  0  0  0
   -0.0855    0.9981    0.1655 H   0  0  0  0  0  0  0  0  0  0  0  0
    0.8743   -0.3614    1.4877 C   0  0  0  0  0  0  0  0  0  0  0  0
    0.9624   -1.4355    1.6670 H   0  0  0  0  0  0  0  0  0  0  0  0
    1.8878    0.0397    1.4144 H   0  0  0  0  0  0  0  0  0  0  0  0
    0.1972    0.3182    2.6801 C   0  0  0  0  0  0  0  0  0  0  0  0
   -0.4404    1.3861    2.4775 O   0  5  0  0  0  0  0  0  0  0  0  0
    0.3006   -0.2386    3.7980 O   0  0  0  0  0  0  0  0  0  0  0  0
    0.9870   -0.2394   -1.1117 C   0  0  0  0  0  0  0  0  0  0  0  0
    1.6577   -1.2359   -1.3517 O   0  0  0  0  0  0  0  0  0  0  0  0
    1.1148    0.8434   -1.9680 N   0  0  0  0  0  0  0  0  0  0  0  0
    0.6483    1.7013   -1.6917 H   0  0  0  0  0  0  0  0  0  0  0  0
    2.0178    0.8665   -3.1098 C   0  0  0  0  0  0  0  0  0  0  0  0
    1.7755    0.0569   -3.8058 H   0  0  0  0  0  0  0  0  0  0  0  0
    1.9270    1.8180   -3.6419 H   0  0  0  0  0  0  0  0  0  0  0  0
    3.0547    0.7507   -2.7783 H   0  0  0  0  0  0  0  0  0  0  0  0
  1  2  1  0  0  0  0
  2  3  1  0  0  0  0
  2  4  1  0  0  0  0
  2  5  1  0  0  0  0
  5  6  2  0  0  0  0
  5  7  1  0  0  0  0
  7  8  1  0  0  0  0
  7  9  1  0  0  0  0
  9 10  1  0  0  0  0
  9 11  1  0  0  0  0
  9 17  1  0  0  0  0
 11 12  1  0  0  0  0
 11 13  1  0  0  0  0
 11 14  1  0  0  0  0
 14 15  1  0  0  0  0
 14 16  2  0  0  0  0
 17 18  2  0  0  0  0
 17 19  1  0  0  0  0
 19 20  1  0  0  0  0
 19 21  1  0  0  0  0
 21 22  1  0  0  0  0
 21 23  1  0  0  0  0
 21 24  1  0  0  0  0
M  CHG  1  15  -1
M  END
$$$$

  -OEChem-01062216073D

 24 23  0     1  0  0  0  0  0999 V2000
   -2.8932   -3.4497    1.2527 H   0  0  0  0  0  0  0  0  0  0  0  0
   -2.8296   -2.3880    0.9985 C   0  0  0  0  0  0  0  0  0  0  0  0
   -3.0843   -1.8002    1.8843 H   0  0  0  0  0  0  0  0  0  0  0  0
   -3.5477   -2.1712    0.2044 H   0  0  0  0  0  0  0  0  0  0  0  0
   -1.4243   -2.0411    0.5390 C   0  0  0  0  0  0  0  0  0  0  0  0
   -0.5921   -2.9304    0.4801 O   0  0  0  0  0  0  0  0  0  0  0  0
   -1.1681   -0.7410    0.1472 N   0  0  0  0  0  0  0  0  0  0  0  0
   -1.9384   -0.1168    0.3621 H   0  0  0  0  0  0  0  0  0  0  0  0
    0.1495   -0.0816    0.1939 C   0  0  1  0  0  0  0  0  0  0  0  0
   -0.0862    0.9856    0.1816 H   0  0  0  0  0  0  0  0  0  0  0  0
    0.9197   -0.3300    1.5108 C   0  0  0  0  0  0  0  0  0  0  0  0
    1.0196   -1.3985    1.7134 H   0  0  0  0  0  0  0  0  0  0  0  0
    1.9285    0.0775    1.4122 H   0  0  0  0  0  0  0  0  0  0  0  0
    0.2612    0.3685    2.7023 C   0  0  0  0  0  0  0  0  0  0  0  0
   -0.3890    1.4267    2.4901 O   0  5  0  0  0  0  0  0  0  0  0  0
    0.4259   -0.1422    3.8347 O   0  0  0  0  0  0  0  0  0  0  0  0
    1.0177   -0.2302   -1.0800 C   0  0  0  0  0  0  0  0  0  0  0  0
    1.3360   -1.3083   -1.5660 O   0  0  0  0  0  0  0  0  0  0  0  0
    1.4023    0.9187   -1.7529 N   0  0  0  0  0  0  0  0  0  0  0  0
    1.2010    1.8021   -1.2941 H   0  0  0  0  0  0  0  0  0  0  0  0
    2.2570    0.9146   -2.9313 C   0  0  0  0  0  0  0  0  0  0  0  0
    1.7906    0.3433   -3.7403 H   0  0  0  0  0  0  0  0  0  0  0  0
    2.4193    1.9385   -3.2805 H   0  0  0  0  0  0  0  0  0  0  0  0
    3.2291    0.4689   -2.6969 H   0  0  0  0  0  0  0  0  0  0  0  0
  1  2  1  0  0  0  0
  2  3  1  0  0  0  0
  2  4  1  0  0  0  0
  2  5  1  0  0  0  0
  5  6  2  0  0  0  0
  5  7  1  0  0  0  0
  7  8  1  0  0  0  0
  7  9  1  0  0  0  0
  9 10  1  0  0  0  0
  9 11  1  0  0  0  0
  9 17  1  0  0  0  0
 11 12  1  0  0  0  0
 11 13  1  0  0  0  0
 11 14  1  0  0  0  0
 14 15  1  0  0  0  0
 14 16  2  0  0  0  0
 17 18  2  0  0  0  0
 17 19  1  0  0  0  0
 19 20  1  0  0  0  0
 19 21  1  0  0  0  0
 21 22  1  0  0  0  0
 21 23  1  0  0  0  0
 21 24  1  0  0  0  0
M  CHG  1  15  -1
M  END
$$$$

  -OEChem-01062216073D

 24 23  0     1  0  0  0  0  0999 V2000
   -2.9054   -3.4461    1.2284 H   0  0  0  0  0  0  0  0  0  0  0  0
   -2.8431   -2.3937    0.9376 C   0  0  0  0  0  0  0  0  0  0  0  0
   -3.1639   -1.7772    1.7814 H   0  0  0  0  0  0  0  0  0  0  0  0
   -3.5117   -2.2207    0.0910 H   0  0  0  0  0  0  0  0  0  0  0  0
   -1.4174   -2.0385    0.5544 C   0  0  0  0  0  0  0  0  0  0  0  0
   -0.5723   -2.9185    0.5631 O   0  0  0  0  0  0  0  0  0  0  0  0
   -1.1508   -0.7411    0.1611 N   0  0  0  0  0  0  0  0  0  0  0  0
   -1.9284   -0.1108    0.3231 H   0  0  0  0  0  0  0  0  0  0  0  0
    0.1705   -0.0908    0.2110 C   0  0  1  0  0  0  0  0  0  0  0  0
   -0.0653    0.9765    0.1840 H   0  0  0  0  0  0  0  0  0  0  0  0
    0.9403   -0.3221    1.5327 C   0  0  0  0  0  0  0  0  0  0  0  0
    1.0357   -1.3874    1.7523 H   0  0  0  0  0  0  0  0  0  0  0  0
    1.9511    0.0789    1.4286 H   0  0  0  0  0  0  0  0  0  0  0  0
    0.2880    0.3951    2.7164 C   0  0  0  0  0  0  0  0  0  0  0  0
   -0.3577    1.4529    2.4916 O   0  5  0  0  0  0  0  0  0  0  0  0
    0.4690   -0.0917    3.8569 O   0  0  0  0  0  0  0  0  0  0  0  0
    1.0465   -0.2444   -1.0564 C   0  0  0  0  0  0  0  0  0  0  0  0
    1.0448   -1.2448   -1.7647 O   0  0  0  0  0  0  0  0  0  0  0  0
    1.6992    0.8795   -1.5371 N   0  0  0  0  0  0  0  0  0  0  0  0
    1.7113    1.6923   -0.9276 H   0  0  0  0  0  0  0  0  0  0  0  0
    2.5128    0.8887   -2.7442 C   0  0  0  0  0  0  0  0  0  0  0  0
    1.9052    0.6290   -3.6171 H   0  0  0  0  0  0  0  0  0  0  0  0
    2.9376    1.8843   -2.9029 H   0  0  0  0  0  0  0  0  0  0  0  0
    3.3344    0.1704   -2.6566 H   0  0  0  0  0  0  0  0  0  0  0  0
  1  2  1  0  0  0  0
  2  3  1  0  0  0  0
  2  4  1  0  0  0  0
  2  5  1  0  0  0  0
  5  6  2  0  0  0  0
  5  7  1  0  0  0  0
  7  8  1  0  0  0  0
  7  9  1  0  0  0  0
  9 10  1  0  0  0  0
  9 11  1  0  0  0  0
  9 17  1  0  0  0  0
 11 12  1  0  0  0  0
 11 13  1  0  0  0  0
 11 14  1  0  0  0  0
 14 15  1  0  0  0  0
 14 16  2  0  0  0  0
 17 18  2  0  0  0  0
 17 19  1  0  0  0  0
 19 20  1  0  0  0  0
 19 21  1  0  0  0  0
 21 22  1  0  0  0  0
 21 23  1  0  0  0  0
 21 24  1  0  0  0  0
M  CHG  1  15  -1
M  END
$$$$

  -OEChem-01062216073D

 24 23  0     1  0  0  0  0  0999 V2000
   -2.9046   -3.4410    1.2119 H   0  0  0  0  0  0  0  0  0  0  0  0
   -2.8400   -2.3860    0.9313 C   0  0  0  0  0  0  0  0  0  0  0  0
   -3.1604   -1.7768    1.7804 H   0  0  0  0  0  0  0  0  0  0  0  0
   -3.5073   -2.2035    0.0857 H   0  0  0  0  0  0  0  0  0  0  0  0
   -1.4132   -2.0299    0.5530 C   0  0  0  0  0  0  0  0  0  0  0  0
   -0.5652   -2.9083    0.5618 O   0  0  0  0  0  0  0  0  0  0  0  0
   -1.1444   -0.7349    0.1553 N   0  0  0  0  0  0  0  0  0  0  0  0
   -1.9224   -0.1022    0.3042 H   0  0  0  0  0  0  0  0  0  0  0  0
    0.1783   -0.0886    0.2118 C   0  0  1  0  0  0  0  0  0  0  0  0
   -0.0473    0.9811    0.1779 H   0  0  0  0  0  0  0  0  0  0  0  0
    0.9405   -0.3240    1.5385 C   0  0  0  0  0  0  0  0  0  0  0  0
    1.0315   -1.3895    1.7583 H   0  0  0  0  0  0  0  0  0  0  0  0
    1.9536    0.0733    1.4433 H   0  0  0  0  0  0  0  0  0  0  0  0
    0.2854    0.3933    2.7197 C   0  0  0  0  0  0  0  0  0  0  0  0
   -0.3555    1.4535    2.4942 O   0  5  0  0  0  0  0  0  0  0  0  0
    0.4641   -0.0946    3.8602 O   0  0  0  0  0  0  0  0  0  0  0  0
    1.0576   -0.2541   -1.0510 C   0  0  0  0  0  0  0  0  0  0  0  0
    0.8448   -1.1004   -1.9134 O   0  0  0  0  0  0  0  0  0  0  0  0
    1.9558    0.7561   -1.3535 N   0  0  0  0  0  0  0  0  0  0  0  0
    2.1099    1.4573   -0.6343 H   0  0  0  0  0  0  0  0  0  0  0  0
    2.7792    0.7772   -2.5536 C   0  0  0  0  0  0  0  0  0  0  0  0
    2.1498    0.8136   -3.4486 H   0  0  0  0  0  0  0  0  0  0  0  0
    3.4257    1.6597   -2.5492 H   0  0  0  0  0  0  0  0  0  0  0  0
    3.4110   -0.1157   -2.5997 H   0  0  0  0  0  0  0  0  0  0  0  0
  1  2  1  0  0  0  0
  2  3  1  0  0  0  0
  2  4  1  0  0  0  0
  2  5  1  0  0  0  0
  5  6  2  0  0  0  0
  5  7  1  0  0  0  0
  7  8  1  0  0  0  0
  7  9  1  0  0  0  0
  9 10  1  0  0  0  0
  9 11  1  0  0  0  0
  9 17  1  0  0  0  0
 11 12  1  0  0  0  0
 11 13  1  0  0  0  0
 11 14  1  0  0  0  0
 14 15  1  0  0  0  0
 14 16  2  0  0  0  0
 17 18  2  0  0  0  0
 17 19  1  0  0  0  0
 19 20  1  0  0  0  0
 19 21  1  0  0  0  0
 21 22  1  0  0  0  0
 21 23  1  0  0  0  0
 21 24  1  0  0  0  0
M  CHG  1  15  -1
M  END
$$$$

  -OEChem-01062216073D

 24 23  0     1  0  0  0  0  0999 V2000
   -2.8921   -3.4324    1.2138 H   0  0  0  0  0  0  0  0  0  0  0  0
   -2.8329   -2.3763    0.9360 C   0  0  0  0  0  0  0  0  0  0  0  0
   -3.1451   -1.7710    1.7910 H   0  0  0  0  0  0  0  0  0  0  0  0
   -3.5103   -2.1923    0.0988 H   0  0  0  0  0  0  0  0  0  0  0  0
   -1.4113   -2.0158    0.5432 C   0  0  0  0  0  0  0  0  0  0  0  0
   -0.5626   -2.8939    0.5237 O   0  0  0  0  0  0  0  0  0  0  0  0
   -1.1442   -0.7196    0.1499 N   0  0  0  0  0  0  0  0  0  0  0  0
   -1.9226   -0.0867    0.2971 H   0  0  0  0  0  0  0  0  0  0  0  0
    0.1792   -0.0745    0.2133 C   0  0  1  0  0  0  0  0  0  0  0  0
   -0.0344    0.9980    0.1858 H   0  0  0  0  0  0  0  0  0  0  0  0
    0.9355   -0.3302    1.5423 C   0  0  0  0  0  0  0  0  0  0  0  0
    1.0234   -1.3984    1.7488 H   0  0  0  0  0  0  0  0  0  0  0  0
    1.9501    0.0651    1.4629 H   0  0  0  0  0  0  0  0  0  0  0  0
    0.2768    0.3726    2.7298 C   0  0  0  0  0  0  0  0  0  0  0  0
   -0.3602    1.4370    2.5171 O   0  5  0  0  0  0  0  0  0  0  0  0
    0.4529   -0.1309    3.8638 O   0  0  0  0  0  0  0  0  0  0  0  0
    1.0536   -0.2445   -1.0528 C   0  0  0  0  0  0  0  0  0  0  0  0
    0.6945   -0.8968   -2.0289 O   0  0  0  0  0  0  0  0  0  0  0  0
    2.1592    0.5763   -1.2009 N   0  0  0  0  0  0  0  0  0  0  0  0
    2.4291    1.1235   -0.3884 H   0  0  0  0  0  0  0  0  0  0  0  0
    3.0168    0.5809   -2.3766 C   0  0  0  0  0  0  0  0  0  0  0  0
    2.4502    0.8867   -3.2618 H   0  0  0  0  0  0  0  0  0  0  0  0
    3.8434    1.2833   -2.2346 H   0  0  0  0  0  0  0  0  0  0  0  0
    3.4346   -0.4163   -2.5487 H   0  0  0  0  0  0  0  0  0  0  0  0
  1  2  1  0  0  0  0
  2  3  1  0  0  0  0
  2  4  1  0  0  0  0
  2  5  1  0  0  0  0
  5  6  2  0  0  0  0
  5  7  1  0  0  0  0
  7  8  1  0  0  0  0
  7  9  1  0  0  0  0
  9 10  1  0  0  0  0
  9 11  1  0  0  0  0
  9 17  1  0  0  0  0
 11 12  1  0  0  0  0
 11 13  1  0  0  0  0
 11 14  1  0  0  0  0
 14 15  1  0  0  0  0
 14 16  2  0  0  0  0
 17 18  2  0  0  0  0
 17 19  1  0  0  0  0
 19 20  1  0  0  0  0
 19 21  1  0  0  0  0
 21 22  1  0  0  0  0
 21 23  1  0  0  0  0
 21 24  1  0  0  0  0
M  CHG  1  15  -1
M  END
$$$$

  -OEChem-01062216073D

 24 23  0     1  0  0  0  0  0999 V2000
   -2.8547   -3.4499    1.2022 H   0  0  0  0  0  0  0  0  0  0  0  0
   -2.7953   -2.3837    0.9675 C   0  0  0  0  0  0  0  0  0  0  0  0
   -3.0086   -1.8131    1.8752 H   0  0  0  0  0  0  0  0  0  0  0  0
   -3.5446   -2.1454    0.2091 H   0  0  0  0  0  0  0  0  0  0  0  0
   -1.4084   -2.0361    0.4573 C   0  0  0  0  0  0  0  0  0  0  0  0
   -0.6043   -2.9349    0.2637 O   0  0  0  0  0  0  0  0  0  0  0  0
   -1.1446   -0.7328    0.0890 N   0  0  0  0  0  0  0  0  0  0  0  0
   -1.9248   -0.1120    0.2694 H   0  0  0  0  0  0  0  0  0  0  0  0
    0.1693   -0.0663    0.1813 C   0  0  1  0  0  0  0  0  0  0  0  0
   -0.0622    0.9750    0.4236 H   0  0  0  0  0  0  0  0  0  0  0  0
    1.0802   -0.5684    1.3356 C   0  0  0  0  0  0  0  0  0  0  0  0
    1.2308   -1.6480    1.2849 H   0  0  0  0  0  0  0  0  0  0  0  0
    2.0654   -0.1074    1.2506 H   0  0  0  0  0  0  0  0  0  0  0  0
    0.5431   -0.1795    2.7137 C   0  0  0  0  0  0  0  0  0  0  0  0
   -0.1431    0.8705    2.8148 O   0  5  0  0  0  0  0  0  0  0  0  0
    0.8814   -0.8982    3.6829 O   0  0  0  0  0  0  0  0  0  0  0  0
    0.8806    0.0928   -1.1855 C   0  0  0  0  0  0  0  0  0  0  0  0
    0.3067   -0.1241   -2.2497 O   0  0  0  0  0  0  0  0  0  0  0  0
    2.1231    0.7011   -1.2386 N   0  0  0  0  0  0  0  0  0  0  0  0
    2.5827    0.8680   -0.3480 H   0  0  0  0  0  0  0  0  0  0  0  0
    2.8586    0.9382   -2.4718 C   0  0  0  0  0  0  0  0  0  0  0  0
    2.2968    1.6094   -3.1293 H   0  0  0  0  0  0  0  0  0  0  0  0
    3.8248    1.4006   -2.2494 H   0  0  0  0  0  0  0  0  0  0  0  0
    3.0383   -0.0055   -2.9970 H   0  0  0  0  0  0  0  0  0  0  0  0
  1  2  1  0  0  0  0
  2  3  1  0  0  0  0
  2  4  1  0  0  0  0
  2  5  1  0  0  0  0
  5  6  2  0  0  0  0
  5  7  1  0  0  0  0
  7  8  1  0  0  0  0
  7  9  1  0  0  0  0
  9 10  1  0  0  0  0
  9 11  1  0  0  0  0
  9 17  1  0  0  0  0
 11 12  1  0  0  0  0
 11 13  1  0  0  0  0
 11 14  1  0  0  0  0
 14 15  1  0  0  0  0
 14 16  2  0  0  0  0
 17 18  2  0  0  0  0
 17 19  1  0  0  0  0
 19 20  1  0  0  0  0
 19 21  1  0  0  0  0
 21 22  1  0  0  0  0
 21 23  1  0  0  0  0
 21 24  1  0  0  0  0
M  CHG  1  15  -1
M  END
$$$$

  -OEChem-01062216073D

 24 23  0     1  0  0  0  0  0999 V2000
   -2.8339   -3.4416    1.1971 H   0  0  0  0  0  0  0  0  0  0  0  0
   -2.7775   -2.3728    0.9729 C   0  0  0  0  0  0  0  0  0  0  0  0
   -2.9717   -1.8118    1.8912 H   0  0  0  0  0  0  0  0  0  0  0  0
   -3.5411   -2.1248    0.2319 H   0  0  0  0  0  0  0  0  0  0  0  0
   -1.4001   -2.0210    0.4403 C   0  0  0  0  0  0  0  0  0  0  0  0
   -0.6012   -2.9169    0.2122 O   0  0  0  0  0  0  0  0  0  0  0  0
   -1.1364   -0.7145    0.0846 N   0  0  0  0  0  0  0  0  0  0  0  0
   -1.9160   -0.0953    0.2732 H   0  0  0  0  0  0  0  0  0  0  0  0
    0.1760   -0.0485    0.1997 C   0  0  1  0  0  0  0  0  0  0  0  0
   -0.0490    0.9924    0.4506 H   0  0  0  0  0  0  0  0  0  0  0  0
    1.0701   -0.5729    1.3584 C   0  0  0  0  0  0  0  0  0  0  0  0
    1.2241   -1.6513    1.2902 H   0  0  0  0  0  0  0  0  0  0  0  0
    2.0543   -0.1059    1.3017 H   0  0  0  0  0  0  0  0  0  0  0  0
    0.5132   -0.2061    2.7347 C   0  0  0  0  0  0  0  0  0  0  0  0
   -0.1728    0.8426    2.8464 O   0  5  0  0  0  0  0  0  0  0  0  0
    0.8292   -0.9494    3.6930 O   0  0  0  0  0  0  0  0  0  0  0  0
    0.8868    0.1105   -1.1684 C   0  0  0  0  0  0  0  0  0  0  0  0
    0.2532    0.1372   -2.2208 O   0  0  0  0  0  0  0  0  0  0  0  0
    2.2352    0.4207   -1.2226 N   0  0  0  0  0  0  0  0  0  0  0  0
    2.7460    0.3585   -0.3468 H   0  0  0  0  0  0  0  0  0  0  0  0
    2.9767    0.6003   -2.4617 C   0  0  0  0  0  0  0  0  0  0  0  0
    2.5716    1.4424   -3.0319 H   0  0  0  0  0  0  0  0  0  0  0  0
    4.0286    0.8057   -2.2422 H   0  0  0  0  0  0  0  0  0  0  0  0
    2.9203   -0.3046   -3.0753 H   0  0  0  0  0  0  0  0  0  0  0  0
  1  2  1  0  0  0  0
  2  3  1  0  0  0  0
  2  4  1  0  0  0  0
  2  5  1  0  0  0  0
  5  6  2  0  0  0  0
  5  7  1  0  0  0  0
  7  8  1  0  0  0  0
  7  9  1  0  0  0  0
  9 10  1  0  0  0  0
  9 11  1  0  0  0  0
  9 17  1  0  0  0  0
 11 12  1  0  0  0  0
 11 13  1  0  0  0  0
 11 14  1  0  0  0  0
 14 15  1  0  0  0  0
 14 16  2  0  0  0  0
 17 18  2  0  0  0  0
 17 19  1  0  0  0  0
 19 20  1  0  0  0  0
 19 21  1  0  0  0  0
 21 22  1  0  0  0  0
 21 23  1  0  0  0  0
 21 24  1  0  0  0  0
M  CHG  1  15  -1
M  END
$$$$

  -OEChem-01062216073D

 24 23  0     1  0  0  0  0  0999 V2000
   -2.8297   -3.4343    1.1609 H   0  0  0  0  0  0  0  0  0  0  0  0
   -2.7655   -2.3600    0.9675 C   0  0  0  0  0  0  0  0  0  0  0  0
   -2.9431   -1.8242    1.9039 H   0  0  0  0  0  0  0  0  0  0  0  0
   -3.5355   -2.0830    0.2437 H   0  0  0  0  0  0  0  0  0  0  0  0
   -1.3914   -2.0048    0.4290 C   0  0  0  0  0  0  0  0  0  0  0  0
   -0.5945   -2.8972    0.1797 O   0  0  0  0  0  0  0  0  0  0  0  0
   -1.1278   -0.6966    0.0819 N   0  0  0  0  0  0  0  0  0  0  0  0
   -1.9066   -0.0780    0.2776 H   0  0  0  0  0  0  0  0  0  0  0  0
    0.1832   -0.0344    0.2195 C   0  0  1  0  0  0  0  0  0  0  0  0
   -0.0367    1.0065    0.4755 H   0  0  0  0  0  0  0  0  0  0  0  0
    1.0646   -0.5724    1.3815 C   0  0  0  0  0  0  0  0  0  0  0  0
    1.2218   -1.6495    1.3033 H   0  0  0  0  0  0  0  0  0  0  0  0
    2.0468   -0.0988    1.3401 H   0  0  0  0  0  0  0  0  0  0  0  0
    0.4926   -0.2208    2.7553 C   0  0  0  0  0  0  0  0  0  0  0  0
   -0.1944    0.8263    2.8728 O   0  5  0  0  0  0  0  0  0  0  0  0
    0.7891   -0.9824    3.7054 O   0  0  0  0  0  0  0  0  0  0  0  0
    0.8952    0.1194   -1.1477 C   0  0  0  0  0  0  0  0  0  0  0  0
    0.2580    0.3830   -2.1649 O   0  0  0  0  0  0  0  0  0  0  0  0
    2.2771    0.1153   -1.2304 N   0  0  0  0  0  0  0  0  0  0  0  0
    2.7715   -0.1843   -0.3947 H   0  0  0  0  0  0  0  0  0  0  0  0
    3.0122    0.2359   -2.4804 C   0  0  0  0  0  0  0  0  0  0  0  0
    2.7858    1.1898   -2.9674 H   0  0  0  0  0  0  0  0  0  0  0  0
    4.0882    0.1938   -2.2878 H   0  0  0  0  0  0  0  0  0  0  0  0
    2.7482   -0.5811   -3.1595 H   0  0  0  0  0  0  0  0  0  0  0  0
  1  2  1  0  0  0  0
  2  3  1  0  0  0  0
  2  4  1  0  0  0  0
  2  5  1  0  0  0  0
  5  6  2  0  0  0  0
  5  7  1  0  0  0  0
  7  8  1  0  0  0  0
  7  9  1  0  0  0  0
  9 10  1  0  0  0  0
  9 11  1  0  0  0  0
  9 17  1  0  0  0  0
 11 12  1  0  0  0  0
 11 13  1  0  0  0  0
 11 14  1  0  0  0  0
 14 15  1  0  0  0  0
 14 16  2  0  0  0  0
 17 18  2  0  0  0  0
 17 19  1  0  0  0  0
 19 20  1  0  0  0  0
 19 21  1  0  0  0  0
 21 22  1  0  0  0  0
 21 23  1  0  0  0  0
 21 24  1  0  0  0  0
M  CHG  1  15  -1
M  END
$$$$

  -OEChem-01062216073D

 24 23  0     1  0  0  0  0  0999 V2000
   -2.8036   -3.4189    1.1765 H   0  0  0  0  0  0  0  0  0  0  0  0
   -2.7549   -2.3474    0.9636 C   0  0  0  0  0  0  0  0  0  0  0  0
   -2.9365   -1.7978    1.8912 H   0  0  0  0  0  0  0  0  0  0  0  0
   -3.5310   -2.0942    0.2375 H   0  0  0  0  0  0  0  0  0  0  0  0
   -1.3875   -1.9836    0.4144 C   0  0  0  0  0  0  0  0  0  0  0  0
   -0.5949   -2.8715    0.1364 O   0  0  0  0  0  0  0  0  0  0  0  0
   -1.1242   -0.6729    0.0767 N   0  0  0  0  0  0  0  0  0  0  0  0
   -1.9002   -0.0551    0.2876 H   0  0  0  0  0  0  0  0  0  0  0  0
    0.1873   -0.0178    0.2356 C   0  0  1  0  0  0  0  0  0  0  0  0
   -0.0269    1.0224    0.5007 H   0  0  0  0  0  0  0  0  0  0  0  0
    1.0624   -0.5729    1.3934 C   0  0  0  0  0  0  0  0  0  0  0  0
    1.2196   -1.6491    1.3019 H   0  0  0  0  0  0  0  0  0  0  0  0
    2.0448   -0.0969    1.3578 H   0  0  0  0  0  0  0  0  0  0  0  0
    0.4841   -0.2414    2.7693 C   0  0  0  0  0  0  0  0  0  0  0  0
   -0.2033    0.8037    2.9002 O   0  5  0  0  0  0  0  0  0  0  0  0
    0.7675   -1.0240    3.7064 O   0  0  0  0  0  0  0  0  0  0  0  0
    0.9042    0.1348   -1.1267 C   0  0  0  0  0  0  0  0  0  0  0  0
    0.3187    0.6181   -2.0929 O   0  0  0  0  0  0  0  0  0  0  0  0
    2.2452   -0.1802   -1.2581 N   0  0  0  0  0  0  0  0  0  0  0  0
    2.6564   -0.6848   -0.4773 H   0  0  0  0  0  0  0  0  0  0  0  0
    2.9624   -0.1333   -2.5230 C   0  0  0  0  0  0  0  0  0  0  0  0
    2.9457    0.8807   -2.9350 H   0  0  0  0  0  0  0  0  0  0  0  0
    4.0052   -0.4278   -2.3734 H   0  0  0  0  0  0  0  0  0  0  0  0
    2.5074   -0.8182   -3.2456 H   0  0  0  0  0  0  0  0  0  0  0  0
  1  2  1  0  0  0  0
  2  3  1  0  0  0  0
  2  4  1  0  0  0  0
  2  5  1  0  0  0  0
  5  6  2  0  0  0  0
  5  7  1  0  0  0  0
  7  8  1  0  0  0  0
  7  9  1  0  0  0  0
  9 10  1  0  0  0  0
  9 11  1  0  0  0  0
  9 17  1  0  0  0  0
 11 12  1  0  0  0  0
 11 13  1  0  0  0  0
 11 14  1  0  0  0  0
 14 15  1  0  0  0  0
 14 16  2  0  0  0  0
 17 18  2  0  0  0  0
 17 19  1  0  0  0  0
 19 20  1  0  0  0  0
 19 21  1  0  0  0  0
 21 22  1  0  0  0  0
 21 23  1  0  0  0  0
 21 24  1  0  0  0  0
M  CHG  1  15  -1
M  END
$$$$

  -OEChem-01062216073D

 24 23  0     1  0  0  0  0  0999 V2000
   -2.7837   -3.4038    1.1880 H   0  0  0  0  0  0  0  0  0  0  0  0
   -2.7362   -2.3308    0.9829 C   0  0  0  0  0  0  0  0  0  0  0  0
   -2.8903   -1.7886    1.9199 H   0  0  0  0  0  0  0  0  0  0  0  0
   -3.5307   -2.0675    0.2810 H   0  0  0  0  0  0  0  0  0  0  0  0
   -1.3830   -1.9684    0.3993 C   0  0  0  0  0  0  0  0  0  0  0  0
   -0.5989   -2.8542    0.0905 O   0  0  0  0  0  0  0  0  0  0  0  0
   -1.1227   -0.6582    0.0590 N   0  0  0  0  0  0  0  0  0  0  0  0
   -1.8958   -0.0427    0.2872 H   0  0  0  0  0  0  0  0  0  0  0  0
    0.1872   -0.0066    0.2374 C   0  0  1  0  0  0  0  0  0  0  0  0
   -0.0245    1.0335    0.5051 H   0  0  0  0  0  0  0  0  0  0  0  0
    1.0508   -0.5735    1.3963 C   0  0  0  0  0  0  0  0  0  0  0  0
    1.2065   -1.6493    1.2970 H   0  0  0  0  0  0  0  0  0  0  0  0
    2.0345   -0.0989    1.3671 H   0  0  0  0  0  0  0  0  0  0  0  0
    0.4589   -0.2550    2.7694 C   0  0  0  0  0  0  0  0  0  0  0  0
   -0.2294    0.7890    2.9041 O   0  5  0  0  0  0  0  0  0  0  0  0
    0.7179   -1.0567    3.6974 O   0  0  0  0  0  0  0  0  0  0  0  0
    0.9187    0.1365   -1.1156 C   0  0  0  0  0  0  0  0  0  0  0  0
    0.4346    0.8108   -2.0213 O   0  0  0  0  0  0  0  0  0  0  0  0
    2.1499   -0.4628   -1.3125 N   0  0  0  0  0  0  0  0  0  0  0  0
    2.4290   -1.1287   -0.5960 H   0  0  0  0  0  0  0  0  0  0  0  0
    2.8433   -0.4728   -2.5912 C   0  0  0  0  0  0  0  0  0  0  0  0
    3.0411    0.5499   -2.9275 H   0  0  0  0  0  0  0  0  0  0  0  0
    3.7998   -0.9947   -2.4945 H   0  0  0  0  0  0  0  0  0  0  0  0
    2.2411   -0.9854   -3.3480 H   0  0  0  0  0  0  0  0  0  0  0  0
  1  2  1  0  0  0  0
  2  3  1  0  0  0  0
  2  4  1  0  0  0  0
  2  5  1  0  0  0  0
  5  6  2  0  0  0  0
  5  7  1  0  0  0  0
  7  8  1  0  0  0  0
  7  9  1  0  0  0  0
  9 10  1  0  0  0  0
  9 11  1  0  0  0  0
  9 17  1  0  0  0  0
 11 12  1  0  0  0  0
 11 13  1  0  0  0  0
 11 14  1  0  0  0  0
 14 15  1  0  0  0  0
 14 16  2  0  0  0  0
 17 18  2  0  0  0  0
 17 19  1  0  0  0  0
 19 20  1  0  0  0  0
 19 21  1  0  0  0  0
 21 22  1  0  0  0  0
 21 23  1  0  0  0  0
 21 24  1  0  0  0  0
M  CHG  1  15  -1
M  END
$$$$

  -OEChem-01062216073D

 24 23  0     1  0  0  0  0  0999 V2000
   -2.7515   -3.3872    1.2135 H   0  0  0  0  0  0  0  0  0  0  0  0
   -2.7164   -2.3160    0.9971 C   0  0  0  0  0  0  0  0  0  0  0  0
   -2.8548   -1.7659    1.9320 H   0  0  0  0  0  0  0  0  0  0  0  0
   -3.5272   -2.0651    0.3091 H   0  0  0  0  0  0  0  0  0  0  0  0
   -1.3777   -1.9496    0.3835 C   0  0  0  0  0  0  0  0  0  0  0  0
   -0.5998   -2.8308    0.0454 O   0  0  0  0  0  0  0  0  0  0  0  0
   -1.1207   -0.6392    0.0422 N   0  0  0  0  0  0  0  0  0  0  0  0
   -1.8901   -0.0256    0.2896 H   0  0  0  0  0  0  0  0  0  0  0  0
    0.1891    0.0055    0.2414 C   0  0  1  0  0  0  0  0  0  0  0  0
   -0.0185    1.0453    0.5142 H   0  0  0  0  0  0  0  0  0  0  0  0
    1.0452   -0.5752    1.3976 C   0  0  0  0  0  0  0  0  0  0  0  0
    1.2010   -1.6500    1.2885 H   0  0  0  0  0  0  0  0  0  0  0  0
    2.0298   -0.1016    1.3732 H   0  0  0  0  0  0  0  0  0  0  0  0
    0.4448   -0.2730    2.7706 C   0  0  0  0  0  0  0  0  0  0  0  0
   -0.2441    0.7692    2.9138 O   0  5  0  0  0  0  0  0  0  0  0  0
    0.6847   -1.0944    3.6865 O   0  0  0  0  0  0  0  0  0  0  0  0
    0.9327    0.1385   -1.1032 C   0  0  0  0  0  0  0  0  0  0  0  0
    0.5976    0.9827   -1.9301 O   0  0  0  0  0  0  0  0  0  0  0  0
    1.9872   -0.7089   -1.3882 N   0  0  0  0  0  0  0  0  0  0  0  0
    2.0817   -1.5019   -0.7567 H   0  0  0  0  0  0  0  0  0  0  0  0
    2.6398   -0.7659   -2.6865 C   0  0  0  0  0  0  0  0  0  0  0  0
    3.0579    0.2114   -2.9477 H   0  0  0  0  0  0  0  0  0  0  0  0
    3.4553   -1.4948   -2.6640 H   0  0  0  0  0  0  0  0  0  0  0  0
    1.9252   -1.0653   -3.4598 H   0  0  0  0  0  0  0  0  0  0  0  0
  1  2  1  0  0  0  0
  2  3  1  0  0  0  0
  2  4  1  0  0  0  0
  2  5  1  0  0  0  0
  5  6  2  0  0  0  0
  5  7  1  0  0  0  0
  7  8  1  0  0  0  0
  7  9  1  0  0  0  0
  9 10  1  0  0  0  0
  9 11  1  0  0  0  0
  9 17  1  0  0  0  0
 11 12  1  0  0  0  0
 11 13  1  0  0  0  0
 11 14  1  0  0  0  0
 14 15  1  0  0  0  0
 14 16  2  0  0  0  0
 17 18  2  0  0  0  0
 17 19  1  0  0  0  0
 19 20  1  0  0  0  0
 19 21  1  0  0  0  0
 21 22  1  0  0  0  0
 21 23  1  0  0  0  0
 21 24  1  0  0  0  0
M  CHG  1  15  -1
M  END
$$$$

  -OEChem-01062216073D

 24 23  0     1  0  0  0  0  0999 V2000
   -2.7337   -3.3839    1.2033 H   0  0  0  0  0  0  0  0  0  0  0  0
   -2.6876   -2.3055    1.0291 C   0  0  0  0  0  0  0  0  0  0  0  0
   -2.7743   -1.7918    1.9907 H   0  0  0  0  0  0  0  0  0  0  0  0
   -3.5229   -2.0124    0.3890 H   0  0  0  0  0  0  0  0  0  0  0  0
   -1.3703   -1.9368    0.3725 C   0  0  0  0  0  0  0  0  0  0  0  0
   -0.6027   -2.8131   -0.0031 O   0  0  0  0  0  0  0  0  0  0  0  0
   -1.1213   -0.6279    0.0207 N   0  0  0  0  0  0  0  0  0  0  0  0
   -1.8878   -0.0178    0.2859 H   0  0  0  0  0  0  0  0  0  0  0  0
    0.1873    0.0131    0.2371 C   0  0  1  0  0  0  0  0  0  0  0  0
   -0.0165    1.0546    0.5071 H   0  0  0  0  0  0  0  0  0  0  0  0
    1.0330   -0.5755    1.3957 C   0  0  0  0  0  0  0  0  0  0  0  0
    1.1903   -1.6496    1.2818 H   0  0  0  0  0  0  0  0  0  0  0  0
    2.0181   -0.1026    1.3800 H   0  0  0  0  0  0  0  0  0  0  0  0
    0.4182   -0.2808    2.7639 C   0  0  0  0  0  0  0  0  0  0  0  0
   -0.2719    0.7609    2.9054 O   0  5  0  0  0  0  0  0  0  0  0  0
    0.6302   -1.1177    3.6727 O   0  0  0  0  0  0  0  0  0  0  0  0
    0.9395    0.1266   -1.1022 C   0  0  0  0  0  0  0  0  0  0  0  0
    0.8022    1.1037   -1.8332 O   0  0  0  0  0  0  0  0  0  0  0  0
    1.7634   -0.9118   -1.4926 N   0  0  0  0  0  0  0  0  0  0  0  0
    1.6456   -1.7700   -0.9541 H   0  0  0  0  0  0  0  0  0  0  0  0
    2.3874   -0.9879   -2.8036 C   0  0  0  0  0  0  0  0  0  0  0  0
    3.0240   -0.1143   -2.9754 H   0  0  0  0  0  0  0  0  0  0  0  0
    3.0090   -1.8857   -2.8701 H   0  0  0  0  0  0  0  0  0  0  0  0
    1.6250   -1.0318   -3.5878 H   0  0  0  0  0  0  0  0  0  0  0  0
  1  2  1  0  0  0  0
  2  3  1  0  0  0  0
  2  4  1  0  0  0  0
  2  5  1  0  0  0  0
  5  6  2  0  0  0  0
  5  7  1  0  0  0  0
  7  8  1  0  0  0  0
  7  9  1  0  0  0  0
  9 10  1  0  0  0  0
  9 11  1  0  0  0  0
  9 17  1  0  0  0  0
 11 12  1  0  0  0  0
 11 13  1  0  0  0  0
 11 14  1  0  0  0  0
 14 15  1  0  0  0  0
 14 16  2  0  0  0  0
 17 18  2  0  0  0  0
 17 19  1  0  0  0  0
 19 20  1  0  0  0  0
 19 21  1  0  0  0  0
 21 22  1  0  0  0  0
 21 23  1  0  0  0  0
 21 24  1  0  0  0  0
M  CHG  1  15  -1
M  END
$$$$

  -OEChem-01062216073D

 24 23  0     1  0  0  0  0  0999 V2000
   -2.6998   -3.3756    1.2371 H   0  0  0  0  0  0  0  0  0  0  0  0
   -2.6529   -2.2949    1.0785 C   0  0  0  0  0  0  0  0  0  0  0  0
   -2.6806   -1.7972    2.0522 H   0  0  0  0  0  0  0  0  0  0  0  0
   -3.5198   -1.9830    0.4914 H   0  0  0  0  0  0  0  0  0  0  0  0
   -1.3701   -1.9273    0.3564 C   0  0  0  0  0  0  0  0  0  0  0  0
   -0.6245   -2.7997   -0.0712 O   0  0  0  0  0  0  0  0  0  0  0  0
   -1.1280   -0.6203   -0.0050 N   0  0  0  0  0  0  0  0  0  0  0  0
   -1.8898   -0.0147    0.2843 H   0  0  0  0  0  0  0  0  0  0  0  0
    0.1797    0.0185    0.2274 C   0  0  1  0  0  0  0  0  0  0  0  0
   -0.0210    1.0611    0.4959 H   0  0  0  0  0  0  0  0  0  0  0  0
    1.0134   -0.5813    1.3873 C   0  0  0  0  0  0  0  0  0  0  0  0
    1.1705   -1.6548    1.2648 H   0  0  0  0  0  0  0  0  0  0  0  0
    1.9995   -0.1104    1.3840 H   0  0  0  0  0  0  0  0  0  0  0  0
    0.3820   -0.2955    2.7501 C   0  0  0  0  0  0  0  0  0  0  0  0
   -0.3085    0.7462    2.8904 O   0  5  0  0  0  0  0  0  0  0  0  0
    0.5635   -1.1498    3.6492 O   0  0  0  0  0  0  0  0  0  0  0  0
    0.9433    0.1158   -1.1052 C   0  0  0  0  0  0  0  0  0  0  0  0
    1.0371    1.1715   -1.7248 O   0  0  0  0  0  0  0  0  0  0  0  0
    1.5021   -1.0387   -1.6180 N   0  0  0  0  0  0  0  0  0  0  0  0
    1.1930   -1.8981   -1.1580 H   0  0  0  0  0  0  0  0  0  0  0  0
    2.0994   -1.1231   -2.9405 C   0  0  0  0  0  0  0  0  0  0  0  0
    2.9280   -0.4137   -3.0322 H   0  0  0  0  0  0  0  0  0  0  0  0
    2.4880   -2.1314   -3.1112 H   0  0  0  0  0  0  0  0  0  0  0  0
    1.3539   -0.9010   -3.7105 H   0  0  0  0  0  0  0  0  0  0  0  0
  1  2  1  0  0  0  0
  2  3  1  0  0  0  0
  2  4  1  0  0  0  0
  2  5  1  0  0  0  0
  5  6  2  0  0  0  0
  5  7  1  0  0  0  0
  7  8  1  0  0  0  0
  7  9  1  0  0  0  0
  9 10  1  0  0  0  0
  9 11  1  0  0  0  0
  9 17  1  0  0  0  0
 11 12  1  0  0  0  0
 11 13  1  0  0  0  0
 11 14  1  0  0  0  0
 14 15  1  0  0  0  0
 14 16  2  0  0  0  0
 17 18  2  0  0  0  0
 17 19  1  0  0  0  0
 19 20  1  0  0  0  0
 19 21  1  0  0  0  0
 21 22  1  0  0  0  0
 21 23  1  0  0  0  0
 21 24  1  0  0  0  0
M  CHG  1  15  -1
M  END
$$$$

  -OEChem-01062216073D

 24 23  0     1  0  0  0  0  0999 V2000
   -2.6889   -3.3602    1.3221 H   0  0  0  0  0  0  0  0  0  0  0  0
   -2.6430   -2.2807    1.1543 C   0  0  0  0  0  0  0  0  0  0  0  0
   -2.6160   -1.7773    2.1252 H   0  0  0  0  0  0  0  0  0  0  0  0
   -3.5375   -1.9659    0.6120 H   0  0  0  0  0  0  0  0  0  0  0  0
   -1.3975   -1.9267    0.3633 C   0  0  0  0  0  0  0  0  0  0  0  0
   -0.6917   -2.8042   -0.1183 O   0  0  0  0  0  0  0  0  0  0  0  0
   -1.1575   -0.6238   -0.0130 N   0  0  0  0  0  0  0  0  0  0  0  0
   -1.9112   -0.0181    0.2973 H   0  0  0  0  0  0  0  0  0  0  0  0
    0.1532    0.0161    0.2092 C   0  0  1  0  0  0  0  0  0  0  0  0
   -0.0419    1.0600    0.4774 H   0  0  0  0  0  0  0  0  0  0  0  0
    0.9893   -0.5939    1.3604 C   0  0  0  0  0  0  0  0  0  0  0  0
    1.1399   -1.6675    1.2279 H   0  0  0  0  0  0  0  0  0  0  0  0
    1.9775   -0.1277    1.3556 H   0  0  0  0  0  0  0  0  0  0  0  0
    0.3633   -0.3132    2.7267 C   0  0  0  0  0  0  0  0  0  0  0  0
   -0.3224    0.7306    2.8746 O   0  5  0  0  0  0  0  0  0  0  0  0
    0.5289   -1.1818    3.6150 O   0  0  0  0  0  0  0  0  0  0  0  0
    0.9186    0.1018   -1.1240 C   0  0  0  0  0  0  0  0  0  0  0  0
    1.2487    1.1756   -1.6184 O   0  0  0  0  0  0  0  0  0  0  0  0
    1.2032   -1.0775   -1.7846 N   0  0  0  0  0  0  0  0  0  0  0  0
    0.7860   -1.9179   -1.3740 H   0  0  0  0  0  0  0  0  0  0  0  0
    1.8296   -1.1512   -3.0938 C   0  0  0  0  0  0  0  0  0  0  0  0
    2.8075   -0.6597   -3.0774 H   0  0  0  0  0  0  0  0  0  0  0  0
    1.9729   -2.1970   -3.3810 H   0  0  0  0  0  0  0  0  0  0  0  0
    1.2006   -0.6657   -3.8464 H   0  0  0  0  0  0  0  0  0  0  0  0
  1  2  1  0  0  0  0
  2  3  1  0  0  0  0
  2  4  1  0  0  0  0
  2  5  1  0  0  0  0
  5  6  2  0  0  0  0
  5  7  1  0  0  0  0
  7  8  1  0  0  0  0
  7  9  1  0  0  0  0
  9 10  1  0  0  0  0
  9 11  1  0  0  0  0
  9 17  1  0  0  0  0
 11 12  1  0  0  0  0
 11 13  1  0  0  0  0
 11 14  1  0  0  0  0
 14 15  1  0  0  0  0
 14 16  2  0  0  0  0
 17 18  2  0  0  0  0
 17 19  1  0  0  0  0
 19 20  1  0  0  0  0
 19 21  1  0  0  0  0
 21 22  1  0  0  0  0
 21 23  1  0  0  0  0
 21 24  1  0  0  0  0
M  CHG  1  15  -1
M  END
$$$$

  -OEChem-01062216073D

 24 23  0     1  0  0  0  0  0999 V2000
   -2.6717   -3.3607    1.4142 H   0  0  0  0  0  0  0  0  0  0  0  0
   -2.6385   -2.2819    1.2391 C   0  0  0  0  0  0  0  0  0  0  0  0
   -2.5628   -1.7738    2.2050 H   0  0  0  0  0  0  0  0  0  0  0  0
   -3.5607   -1.9722    0.7422 H   0  0  0  0  0  0  0  0  0  0  0  0
   -1.4370   -1.9285    0.3828 C   0  0  0  0  0  0  0  0  0  0  0  0
   -0.7743   -2.8036   -0.1596 O   0  0  0  0  0  0  0  0  0  0  0  0
   -1.2089   -0.6256    0.0001 N   0  0  0  0  0  0  0  0  0  0  0  0
   -1.9493   -0.0235    0.3475 H   0  0  0  0  0  0  0  0  0  0  0  0
    0.1076    0.0173    0.1871 C   0  0  1  0  0  0  0  0  0  0  0  0
   -0.0817    1.0602    0.4626 H   0  0  0  0  0  0  0  0  0  0  0  0
    0.9677   -0.6006    1.3148 C   0  0  0  0  0  0  0  0  0  0  0  0
    1.1112   -1.6741    1.1714 H   0  0  0  0  0  0  0  0  0  0  0  0
    1.9573   -0.1370    1.2909 H   0  0  0  0  0  0  0  0  0  0  0  0
    0.3718   -0.3242    2.6957 C   0  0  0  0  0  0  0  0  0  0  0  0
   -0.3080    0.7207    2.8634 O   0  5  0  0  0  0  0  0  0  0  0  0
    0.5445   -1.2028    3.5728 O   0  0  0  0  0  0  0  0  0  0  0  0
    0.8490    0.1103   -1.1609 C   0  0  0  0  0  0  0  0  0  0  0  0
    1.4183    1.1362   -1.5202 O   0  0  0  0  0  0  0  0  0  0  0  0
    0.8559   -1.0001   -1.9832 N   0  0  0  0  0  0  0  0  0  0  0  0
    0.3990   -1.8325   -1.5988 H   0  0  0  0  0  0  0  0  0  0  0  0
    1.5794   -1.0878   -3.2404 C   0  0  0  0  0  0  0  0  0  0  0  0
    2.6501   -0.9300   -3.0763 H   0  0  0  0  0  0  0  0  0  0  0  0
    1.4383   -2.0775   -3.6846 H   0  0  0  0  0  0  0  0  0  0  0  0
    1.2131   -0.3354   -3.9458 H   0  0  0  0  0  0  0  0  0  0  0  0
  1  2  1  0  0  0  0
  2  3  1  0  0  0  0
  2  4  1  0  0  0  0
  2  5  1  0  0  0  0
  5  6  2  0  0  0  0
  5  7  1  0  0  0  0
  7  8  1  0  0  0  0
  7  9  1  0  0  0  0
  9 10  1  0  0  0  0
  9 11  1  0  0  0  0
  9 17  1  0  0  0  0
 11 12  1  0  0  0  0
 11 13  1  0  0  0  0
 11 14  1  0  0  0  0
 14 15  1  0  0  0  0
 14 16  2  0  0  0  0
 17 18  2  0  0  0  0
 17 19  1  0  0  0  0
 19 20  1  0  0  0  0
 19 21  1  0  0  0  0
 21 22  1  0  0  0  0
 21 23  1  0  0  0  0
 21 24  1  0  0  0  0
M  CHG  1  15  -1
M  END
$$$$

  -OEChem-01062216073D

 24 23  0     1  0  0  0  0  0999 V2000
   -2.6292   -3.3700    1.4803 H   0  0  0  0  0  0  0  0  0  0  0  0
   -2.6168   -2.2924    1.2961 C   0  0  0  0  0  0  0  0  0  0  0  0
   -2.5086   -1.7764    2.2547 H   0  0  0  0  0  0  0  0  0  0  0  0
   -3.5620   -1.9976    0.8348 H   0  0  0  0  0  0  0  0  0  0  0  0
   -1.4550   -1.9315    0.3896 C   0  0  0  0  0  0  0  0  0  0  0  0
   -0.8318   -2.7980   -0.2091 O   0  0  0  0  0  0  0  0  0  0  0  0
   -1.2405   -0.6271    0.0069 N   0  0  0  0  0  0  0  0  0  0  0  0
   -1.9738   -0.0324    0.3815 H   0  0  0  0  0  0  0  0  0  0  0  0
    0.0760    0.0234    0.1773 C   0  0  1  0  0  0  0  0  0  0  0  0
   -0.1149    1.0643    0.4589 H   0  0  0  0  0  0  0  0  0  0  0  0
    0.9475   -0.6003    1.2926 C   0  0  0  0  0  0  0  0  0  0  0  0
    1.0904   -1.6728    1.1403 H   0  0  0  0  0  0  0  0  0  0  0  0
    1.9366   -0.1361    1.2630 H   0  0  0  0  0  0  0  0  0  0  0  0
    0.3633   -0.3320    2.6799 C   0  0  0  0  0  0  0  0  0  0  0  0
   -0.3159    0.7115    2.8588 O   0  5  0  0  0  0  0  0  0  0  0  0
    0.5324   -1.2214    3.5467 O   0  0  0  0  0  0  0  0  0  0  0  0
    0.8094    0.1295   -1.1760 C   0  0  0  0  0  0  0  0  0  0  0  0
    1.5740    1.0563   -1.4246 O   0  0  0  0  0  0  0  0  0  0  0  0
    0.5711   -0.8340   -2.1383 N   0  0  0  0  0  0  0  0  0  0  0  0
    0.0537   -1.6495   -1.7989 H   0  0  0  0  0  0  0  0  0  0  0  0
    1.3189   -0.9367   -3.3809 C   0  0  0  0  0  0  0  0  0  0  0  0
    2.3736   -1.1446   -3.1750 H   0  0  0  0  0  0  0  0  0  0  0  0
    0.9162   -1.7490   -3.9929 H   0  0  0  0  0  0  0  0  0  0  0  0
    1.2447   -0.0055   -3.9515 H   0  0  0  0  0  0  0  0  0  0  0  0
  1  2  1  0  0  0  0
  2  3  1  0  0  0  0
  2  4  1  0  0  0  0
  2  5  1  0  0  0  0
  5  6  2  0  0  0  0
  5  7  1  0  0  0  0
  7  8  1  0  0  0  0
  7  9  1  0  0  0  0
  9 10  1  0  0  0  0
  9 11  1  0  0  0  0
  9 17  1  0  0  0  0
 11 12  1  0  0  0  0
 11 13  1  0  0  0  0
 11 14  1  0  0  0  0
 14 15  1  0  0  0  0
 14 16  2  0  0  0  0
 17 18  2  0  0  0  0
 17 19  1  0  0  0  0
 19 20  1  0  0  0  0
 19 21  1  0  0  0  0
 21 22  1  0  0  0  0
 21 23  1  0  0  0  0
 21 24  1  0  0  0  0
M  CHG  1  15  -1
M  END
$$$$

  -OEChem-01062216073D

 24 23  0     1  0  0  0  0  0999 V2000
   -2.5895   -3.3724    1.5379 H   0  0  0  0  0  0  0  0  0  0  0  0
   -2.5946   -2.2978    1.3368 C   0  0  0  0  0  0  0  0  0  0  0  0
   -2.4653   -1.7659    2.2842 H   0  0  0  0  0  0  0  0  0  0  0  0
   -3.5559   -2.0206    0.8983 H   0  0  0  0  0  0  0  0  0  0  0  0
   -1.4625   -1.9387    0.3926 C   0  0  0  0  0  0  0  0  0  0  0  0
   -0.8730   -2.8037   -0.2398 O   0  0  0  0  0  0  0  0  0  0  0  0
   -1.2499   -0.6338    0.0113 N   0  0  0  0  0  0  0  0  0  0  0  0
   -1.9748   -0.0415    0.4061 H   0  0  0  0  0  0  0  0  0  0  0  0
    0.0690    0.0159    0.1754 C   0  0  1  0  0  0  0  0  0  0  0  0
   -0.1206    1.0574    0.4550 H   0  0  0  0  0  0  0  0  0  0  0  0
    0.9308   -0.6110    1.2972 C   0  0  0  0  0  0  0  0  0  0  0  0
    1.0649   -1.6854    1.1487 H   0  0  0  0  0  0  0  0  0  0  0  0
    1.9241   -0.1557    1.2722 H   0  0  0  0  0  0  0  0  0  0  0  0
    0.3402   -0.3319    2.6801 C   0  0  0  0  0  0  0  0  0  0  0  0
   -0.3318    0.7178    2.8505 O   0  5  0  0  0  0  0  0  0  0  0  0
    0.4858   -1.2247    3.5477 O   0  0  0  0  0  0  0  0  0  0  0  0
    0.8074    0.1315   -1.1769 C   0  0  0  0  0  0  0  0  0  0  0  0
    1.7370    0.9164   -1.3354 O   0  0  0  0  0  0  0  0  0  0  0  0
    0.3643   -0.6157   -2.2530 N   0  0  0  0  0  0  0  0  0  0  0  0
   -0.2558   -1.3842   -1.9915 H   0  0  0  0  0  0  0  0  0  0  0  0
    1.0745   -0.6898   -3.5199 C   0  0  0  0  0  0  0  0  0  0  0  0
    2.0630   -1.1377   -3.3770 H   0  0  0  0  0  0  0  0  0  0  0  0
    0.5116   -1.3039   -4.2289 H   0  0  0  0  0  0  0  0  0  0  0  0
    1.1962    0.3091   -3.9508 H   0  0  0  0  0  0  0  0  0  0  0  0
  1  2  1  0  0  0  0
  2  3  1  0  0  0  0
  2  4  1  0  0  0  0
  2  5  1  0  0  0  0
  5  6  2  0  0  0  0
  5  7  1  0  0  0  0
  7  8  1  0  0  0  0
  7  9  1  0  0  0  0
  9 10  1  0  0  0  0
  9 11  1  0  0  0  0
  9 17  1  0  0  0  0
 11 12  1  0  0  0  0
 11 13  1  0  0  0  0
 11 14  1  0  0  0  0
 14 15  1  0  0  0  0
 14 16  2  0  0  0  0
 17 18  2  0  0  0  0
 17 19  1  0  0  0  0
 19 20  1  0  0  0  0
 19 21  1  0  0  0  0
 21 22  1  0  0  0  0
 21 23  1  0  0  0  0
 21 24  1  0  0  0  0
M  CHG  1  15  -1
M  END
$$$$

  -OEChem-01062216073D

 24 23  0     1  0  0  0  0  0999 V2000
   -2.5875   -3.3955    1.5303 H   0  0  0  0  0  0  0  0  0  0  0  0
   -2.5826   -2.3178    1.3458 C   0  0  0  0  0  0  0  0  0  0  0  0
   -2.4392   -1.8022    2.3001 H   0  0  0  0  0  0  0  0  0  0  0  0
   -3.5446   -2.0237    0.9204 H   0  0  0  0  0  0  0  0  0  0  0  0
   -1.4557   -1.9560    0.3963 C   0  0  0  0  0  0  0  0  0  0  0  0
   -0.8688   -2.8221   -0.2353 O   0  0  0  0  0  0  0  0  0  0  0  0
   -1.2466   -0.6475    0.0227 N   0  0  0  0  0  0  0  0  0  0  0  0
   -1.9657   -0.0601    0.4355 H   0  0  0  0  0  0  0  0  0  0  0  0
    0.0737    0.0023    0.1781 C   0  0  1  0  0  0  0  0  0  0  0  0
   -0.1184    1.0434    0.4557 H   0  0  0  0  0  0  0  0  0  0  0  0
    0.9311   -0.6188    1.3084 C   0  0  0  0  0  0  0  0  0  0  0  0
    1.0614   -1.6950    1.1702 H   0  0  0  0  0  0  0  0  0  0  0  0
    1.9268   -0.1690    1.2844 H   0  0  0  0  0  0  0  0  0  0  0  0
    0.3372   -0.3230    2.6868 C   0  0  0  0  0  0  0  0  0  0  0  0
   -0.3305    0.7320    2.8436 O   0  5  0  0  0  0  0  0  0  0  0  0
    0.4728   -1.2080    3.5641 O   0  0  0  0  0  0  0  0  0  0  0  0
    0.8081    0.1349   -1.1769 C   0  0  0  0  0  0  0  0  0  0  0  0
    1.8728    0.7367   -1.2753 O   0  0  0  0  0  0  0  0  0  0  0  0
    0.2021   -0.3385   -2.3266 N   0  0  0  0  0  0  0  0  0  0  0  0
   -0.5490   -1.0035   -2.1480 H   0  0  0  0  0  0  0  0  0  0  0  0
    0.8673   -0.3711   -3.6202 C   0  0  0  0  0  0  0  0  0  0  0  0
    1.7576   -1.0065   -3.5762 H   0  0  0  0  0  0  0  0  0  0  0  0
    0.1899   -0.7723   -4.3794 H   0  0  0  0  0  0  0  0  0  0  0  0
    1.1658    0.6375   -3.9237 H   0  0  0  0  0  0  0  0  0  0  0  0
  1  2  1  0  0  0  0
  2  3  1  0  0  0  0
  2  4  1  0  0  0  0
  2  5  1  0  0  0  0
  5  6  2  0  0  0  0
  5  7  1  0  0  0  0
  7  8  1  0  0  0  0
  7  9  1  0  0  0  0
  9 10  1  0  0  0  0
  9 11  1  0  0  0  0
  9 17  1  0  0  0  0
 11 12  1  0  0  0  0
 11 13  1  0  0  0  0
 11 14  1  0  0  0  0
 14 15  1  0  0  0  0
 14 16  2  0  0  0  0
 17 18  2  0  0  0  0
 17 19  1  0  0  0  0
 19 20  1  0  0  0  0
 19 21  1  0  0  0  0
 21 22  1  0  0  0  0
 21 23  1  0  0  0  0
 21 24  1  0  0  0  0
M  CHG  1  15  -1
M  END
$$$$

  -OEChem-01062216073D

 24 23  0     1  0  0  0  0  0999 V2000
   -2.5974   -3.4206    1.4863 H   0  0  0  0  0  0  0  0  0  0  0  0
   -2.5702   -2.3387    1.3307 C   0  0  0  0  0  0  0  0  0  0  0  0
   -2.4169   -1.8517    2.2983 H   0  0  0  0  0  0  0  0  0  0  0  0
   -3.5260   -2.0141    0.9136 H   0  0  0  0  0  0  0  0  0  0  0  0
   -1.4352   -1.9741    0.3917 C   0  0  0  0  0  0  0  0  0  0  0  0
   -0.8308   -2.8422   -0.2191 O   0  0  0  0  0  0  0  0  0  0  0  0
   -1.2312   -0.6618    0.0256 N   0  0  0  0  0  0  0  0  0  0  0  0
   -1.9512   -0.0811    0.4463 H   0  0  0  0  0  0  0  0  0  0  0  0
    0.0868   -0.0070    0.1804 C   0  0  1  0  0  0  0  0  0  0  0  0
   -0.1107    1.0336    0.4560 H   0  0  0  0  0  0  0  0  0  0  0  0
    0.9382   -0.6199    1.3207 C   0  0  0  0  0  0  0  0  0  0  0  0
    1.0717   -1.6966    1.1910 H   0  0  0  0  0  0  0  0  0  0  0  0
    1.9335   -0.1695    1.3026 H   0  0  0  0  0  0  0  0  0  0  0  0
    0.3340   -0.3137    2.6926 C   0  0  0  0  0  0  0  0  0  0  0  0
   -0.3354    0.7426    2.8361 O   0  5  0  0  0  0  0  0  0  0  0  0
    0.4607   -1.1927    3.5772 O   0  0  0  0  0  0  0  0  0  0  0  0
    0.8163    0.1376   -1.1770 C   0  0  0  0  0  0  0  0  0  0  0  0
    1.9761    0.5309   -1.2531 O   0  0  0  0  0  0  0  0  0  0  0  0
    0.1004   -0.0358   -2.3483 N   0  0  0  0  0  0  0  0  0  0  0  0
   -0.7690   -0.5492   -2.2264 H   0  0  0  0  0  0  0  0  0  0  0  0
    0.7168   -0.0148   -3.6662 C   0  0  0  0  0  0  0  0  0  0  0  0
    1.4570   -0.8165   -3.7541 H   0  0  0  0  0  0  0  0  0  0  0  0
   -0.0450   -0.1569   -4.4382 H   0  0  0  0  0  0  0  0  0  0  0  0
    1.2111    0.9458   -3.8432 H   0  0  0  0  0  0  0  0  0  0  0  0
  1  2  1  0  0  0  0
  2  3  1  0  0  0  0
  2  4  1  0  0  0  0
  2  5  1  0  0  0  0
  5  6  2  0  0  0  0
  5  7  1  0  0  0  0
  7  8  1  0  0  0  0
  7  9  1  0  0  0  0
  9 10  1  0  0  0  0
  9 11  1  0  0  0  0
  9 17  1  0  0  0  0
 11 12  1  0  0  0  0
 11 13  1  0  0  0  0
 11 14  1  0  0  0  0
 14 15  1  0  0  0  0
 14 16  2  0  0  0  0
 17 18  2  0  0  0  0
 17 19  1  0  0  0  0
 19 20  1  0  0  0  0
 19 21  1  0  0  0  0
 21 22  1  0  0  0  0
 21 23  1  0  0  0  0
 21 24  1  0  0  0  0
M  CHG  1  15  -1
M  END
$$$$

  -OEChem-01062216073D

 24 23  0     1  0  0  0  0  0999 V2000
   -2.5840   -3.4387    1.4544 H   0  0  0  0  0  0  0  0  0  0  0  0
   -2.5595   -2.3564    1.3010 C   0  0  0  0  0  0  0  0  0  0  0  0
   -2.4171   -1.8706    2.2710 H   0  0  0  0  0  0  0  0  0  0  0  0
   -3.5125   -2.0345    0.8750 H   0  0  0  0  0  0  0  0  0  0  0  0
   -1.4166   -1.9857    0.3740 C   0  0  0  0  0  0  0  0  0  0  0  0
   -0.7936   -2.8536   -0.2176 O   0  0  0  0  0  0  0  0  0  0  0  0
   -1.2148   -0.6697    0.0179 N   0  0  0  0  0  0  0  0  0  0  0  0
   -1.9359   -0.0958    0.4465 H   0  0  0  0  0  0  0  0  0  0  0  0
    0.1016   -0.0151    0.1804 C   0  0  1  0  0  0  0  0  0  0  0  0
   -0.0994    1.0251    0.4533 H   0  0  0  0  0  0  0  0  0  0  0  0
    0.9419   -0.6211    1.3340 C   0  0  0  0  0  0  0  0  0  0  0  0
    1.0756   -1.6987    1.2134 H   0  0  0  0  0  0  0  0  0  0  0  0
    1.9378   -0.1716    1.3241 H   0  0  0  0  0  0  0  0  0  0  0  0
    0.3238   -0.3040    2.6975 C   0  0  0  0  0  0  0  0  0  0  0  0
   -0.3459    0.7544    2.8247 O   0  5  0  0  0  0  0  0  0  0  0  0
    0.4410   -1.1740    3.5920 O   0  0  0  0  0  0  0  0  0  0  0  0
    0.8295    0.1386   -1.1771 C   0  0  0  0  0  0  0  0  0  0  0  0
    2.0449    0.2843   -1.2608 O   0  0  0  0  0  0  0  0  0  0  0  0
    0.0713    0.2853   -2.3257 N   0  0  0  0  0  0  0  0  0  0  0  0
   -0.8917   -0.0234   -2.2323 H   0  0  0  0  0  0  0  0  0  0  0  0
    0.6541    0.3523   -3.6577 C   0  0  0  0  0  0  0  0  0  0  0  0
    1.2021   -0.5688   -3.8812 H   0  0  0  0  0  0  0  0  0  0  0  0
   -0.1341    0.4795   -4.4055 H   0  0  0  0  0  0  0  0  0  0  0  0
    1.3413    1.2012   -3.7340 H   0  0  0  0  0  0  0  0  0  0  0  0
  1  2  1  0  0  0  0
  2  3  1  0  0  0  0
  2  4  1  0  0  0  0
  2  5  1  0  0  0  0
  5  6  2  0  0  0  0
  5  7  1  0  0  0  0
  7  8  1  0  0  0  0
  7  9  1  0  0  0  0
  9 10  1  0  0  0  0
  9 11  1  0  0  0  0
  9 17  1  0  0  0  0
 11 12  1  0  0  0  0
 11 13  1  0  0  0  0
 11 14  1  0  0  0  0
 14 15  1  0  0  0  0
 14 16  2  0  0  0  0
 17 18  2  0  0  0  0
 17 19  1  0  0  0  0
 19 20  1  0  0  0  0
 19 21  1  0  0  0  0
 21 22  1  0  0  0  0
 21 23  1  0  0  0  0
 21 24  1  0  0  0  0
M  CHG  1  15  -1
M  END
$$$$

  -OEChem-01062216073D

 24 23  0     1  0  0  0  0  0999 V2000
   -2.5671   -3.4433    1.4673 H   0  0  0  0  0  0  0  0  0  0  0  0
   -2.5594   -2.3659    1.2819 C   0  0  0  0  0  0  0  0  0  0  0  0
   -2.4433   -1.8491    2.2392 H   0  0  0  0  0  0  0  0  0  0  0  0
   -3.5100   -2.0748    0.8296 H   0  0  0  0  0  0  0  0  0  0  0  0
   -1.4069   -2.0018    0.3641 C   0  0  0  0  0  0  0  0  0  0  0  0
   -0.7718   -2.8762   -0.2041 O   0  0  0  0  0  0  0  0  0  0  0  0
   -1.2024   -0.6858    0.0073 N   0  0  0  0  0  0  0  0  0  0  0  0
   -1.9257   -0.1122    0.4317 H   0  0  0  0  0  0  0  0  0  0  0  0
    0.1133   -0.0327    0.1714 C   0  0  1  0  0  0  0  0  0  0  0  0
   -0.0888    1.0094    0.4367 H   0  0  0  0  0  0  0  0  0  0  0  0
    0.9458   -0.6252    1.3374 C   0  0  0  0  0  0  0  0  0  0  0  0
    1.0791   -1.7044    1.2309 H   0  0  0  0  0  0  0  0  0  0  0  0
    1.9420   -0.1762    1.3265 H   0  0  0  0  0  0  0  0  0  0  0  0
    0.3190   -0.2899    2.6928 C   0  0  0  0  0  0  0  0  0  0  0  0
   -0.3501    0.7715    2.8009 O   0  5  0  0  0  0  0  0  0  0  0  0
    0.4334   -1.1446    3.6023 O   0  0  0  0  0  0  0  0  0  0  0  0
    0.8426    0.1192   -1.1848 C   0  0  0  0  0  0  0  0  0  0  0  0
    2.0591    0.0129   -1.3029 O   0  0  0  0  0  0  0  0  0  0  0  0
    0.1184    0.5755   -2.2728 N   0  0  0  0  0  0  0  0  0  0  0  0
   -0.8896    0.5096   -2.1767 H   0  0  0  0  0  0  0  0  0  0  0  0
    0.6869    0.7241   -3.6044 C   0  0  0  0  0  0  0  0  0  0  0  0
    1.0378   -0.2425   -3.9803 H   0  0  0  0  0  0  0  0  0  0  0  0
   -0.0690    1.1125   -4.2932 H   0  0  0  0  0  0  0  0  0  0  0  0
    1.5282    1.4244   -3.5862 H   0  0  0  0  0  0  0  0  0  0  0  0
  1  2  1  0  0  0  0
  2  3  1  0  0  0  0
  2  4  1  0  0  0  0
  2  5  1  0  0  0  0
  5  6  2  0  0  0  0
  5  7  1  0  0  0  0
  7  8  1  0  0  0  0
  7  9  1  0  0  0  0
  9 10  1  0  0  0  0
  9 11  1  0  0  0  0
  9 17  1  0  0  0  0
 11 12  1  0  0  0  0
 11 13  1  0  0  0  0
 11 14  1  0  0  0  0
 14 15  1  0  0  0  0
 14 16  2  0  0  0  0
 17 18  2  0  0  0  0
 17 19  1  0  0  0  0
 19 20  1  0  0  0  0
 19 21  1  0  0  0  0
 21 22  1  0  0  0  0
 21 23  1  0  0  0  0
 21 24  1  0  0  0  0
M  CHG  1  15  -1
M  END
$$$$

  -OEChem-01062216073D

 24 23  0     1  0  0  0  0  0999 V2000
   -2.5888   -3.4529    1.4399 H   0  0  0  0  0  0  0  0  0  0  0  0
   -2.5717   -2.3748    1.2586 C   0  0  0  0  0  0  0  0  0  0  0  0
   -2.4675   -1.8619    2.2192 H   0  0  0  0  0  0  0  0  0  0  0  0
   -3.5134   -2.0771    0.7924 H   0  0  0  0  0  0  0  0  0  0  0  0
   -1.4030   -2.0145    0.3600 C   0  0  0  0  0  0  0  0  0  0  0  0
   -0.7553   -2.8946   -0.1842 O   0  0  0  0  0  0  0  0  0  0  0  0
   -1.1970   -0.6991    0.0007 N   0  0  0  0  0  0  0  0  0  0  0  0
   -1.9252   -0.1249    0.4149 H   0  0  0  0  0  0  0  0  0  0  0  0
    0.1164   -0.0427    0.1615 C   0  0  1  0  0  0  0  0  0  0  0  0
   -0.0891    0.9995    0.4232 H   0  0  0  0  0  0  0  0  0  0  0  0
    0.9508   -0.6213    1.3329 C   0  0  0  0  0  0  0  0  0  0  0  0
    1.0855   -1.7014    1.2371 H   0  0  0  0  0  0  0  0  0  0  0  0
    1.9461   -0.1707    1.3144 H   0  0  0  0  0  0  0  0  0  0  0  0
    0.3241   -0.2752    2.6861 C   0  0  0  0  0  0  0  0  0  0  0  0
   -0.3478    0.7858    2.7833 O   0  5  0  0  0  0  0  0  0  0  0  0
    0.4521   -1.1131    3.6091 O   0  0  0  0  0  0  0  0  0  0  0  0
    0.8464    0.1087   -1.1941 C   0  0  0  0  0  0  0  0  0  0  0  0
    2.0068   -0.2465   -1.3724 O   0  0  0  0  0  0  0  0  0  0  0  0
    0.2316    0.8455   -2.1927 N   0  0  0  0  0  0  0  0  0  0  0  0
   -0.7533    1.0433   -2.0546 H   0  0  0  0  0  0  0  0  0  0  0  0
    0.8137    1.0513   -3.5109 C   0  0  0  0  0  0  0  0  0  0  0  0
    0.9721    0.0911   -4.0123 H   0  0  0  0  0  0  0  0  0  0  0  0
    0.1438    1.6592   -4.1260 H   0  0  0  0  0  0  0  0  0  0  0  0
    1.7734    1.5717   -3.4292 H   0  0  0  0  0  0  0  0  0  0  0  0
  1  2  1  0  0  0  0
  2  3  1  0  0  0  0
  2  4  1  0  0  0  0
  2  5  1  0  0  0  0
  5  6  2  0  0  0  0
  5  7  1  0  0  0  0
  7  8  1  0  0  0  0
  7  9  1  0  0  0  0
  9 10  1  0  0  0  0
  9 11  1  0  0  0  0
  9 17  1  0  0  0  0
 11 12  1  0  0  0  0
 11 13  1  0  0  0  0
 11 14  1  0  0  0  0
 14 15  1  0  0  0  0
 14 16  2  0  0  0  0
 17 18  2  0  0  0  0
 17 19  1  0  0  0  0
 19 20  1  0  0  0  0
 19 21  1  0  0  0  0
 21 22  1  0  0  0  0
 21 23  1  0  0  0  0
 21 24  1  0  0  0  0
M  CHG  1  15  -1
M  END
$$$$

  -OEChem-01062216073D

 24 23  0     1  0  0  0  0  0999 V2000
   -2.6245   -3.4654    1.4318 H   0  0  0  0  0  0  0  0  0  0  0  0
   -2.6006   -2.3890    1.2415 C   0  0  0  0  0  0  0  0  0  0  0  0
   -2.5209   -1.8679    2.2000 H   0  0  0  0  0  0  0  0  0  0  0  0
   -3.5291   -2.0936    0.7479 H   0  0  0  0  0  0  0  0  0  0  0  0
   -1.4077   -2.0382    0.3709 C   0  0  0  0  0  0  0  0  0  0  0  0
   -0.7357   -2.9276   -0.1256 O   0  0  0  0  0  0  0  0  0  0  0  0
   -1.2021   -0.7258   -0.0015 N   0  0  0  0  0  0  0  0  0  0  0  0
   -1.9397   -0.1466    0.3869 H   0  0  0  0  0  0  0  0  0  0  0  0
    0.1080   -0.0602    0.1415 C   0  0  1  0  0  0  0  0  0  0  0  0
   -0.1073    0.9811    0.3972 H   0  0  0  0  0  0  0  0  0  0  0  0
    0.9581   -0.6119    1.3135 C   0  0  0  0  0  0  0  0  0  0  0  0
    1.0982   -1.6926    1.2344 H   0  0  0  0  0  0  0  0  0  0  0  0
    1.9500   -0.1553    1.2746 H   0  0  0  0  0  0  0  0  0  0  0  0
    0.3439   -0.2496    2.6683 C   0  0  0  0  0  0  0  0  0  0  0  0
   -0.3357    0.8078    2.7552 O   0  5  0  0  0  0  0  0  0  0  0  0
    0.5044   -1.0613    3.6094 O   0  0  0  0  0  0  0  0  0  0  0  0
    0.8373    0.0883   -1.2147 C   0  0  0  0  0  0  0  0  0  0  0  0
    1.8837   -0.4932   -1.4803 O   0  0  0  0  0  0  0  0  0  0  0  0
    0.3907    1.0553   -2.1008 N   0  0  0  0  0  0  0  0  0  0  0  0
   -0.4757    1.5261   -1.8641 H   0  0  0  0  0  0  0  0  0  0  0  0
    1.0277    1.3385   -3.3786 C   0  0  0  0  0  0  0  0  0  0  0  0
    1.0312    0.4444   -4.0104 H   0  0  0  0  0  0  0  0  0  0  0  0
    0.4843    2.1310   -3.9012 H   0  0  0  0  0  0  0  0  0  0  0  0
    2.0597    1.6701   -3.2262 H   0  0  0  0  0  0  0  0  0  0  0  0
  1  2  1  0  0  0  0
  2  3  1  0  0  0  0
  2  4  1  0  0  0  0
  2  5  1  0  0  0  0
  5  6  2  0  0  0  0
  5  7  1  0  0  0  0
  7  8  1  0  0  0  0
  7  9  1  0  0  0  0
  9 10  1  0  0  0  0
  9 11  1  0  0  0  0
  9 17  1  0  0  0  0
 11 12  1  0  0  0  0
 11 13  1  0  0  0  0
 11 14  1  0  0  0  0
 14 15  1  0  0  0  0
 14 16  2  0  0  0  0
 17 18  2  0  0  0  0
 17 19  1  0  0  0  0
 19 20  1  0  0  0  0
 19 21  1  0  0  0  0
 21 22  1  0  0  0  0
 21 23  1  0  0  0  0
 21 24  1  0  0  0  0
M  CHG  1  15  -1
M  END
$$$$

  -OEChem-01062216073D

 24 23  0     1  0  0  0  0  0999 V2000
   -2.6856   -3.4745    1.4090 H   0  0  0  0  0  0  0  0  0  0  0  0
   -2.6641   -2.4029    1.1919 C   0  0  0  0  0  0  0  0  0  0  0  0
   -2.6601   -1.8554    2.1387 H   0  0  0  0  0  0  0  0  0  0  0  0
   -3.5598   -2.1368    0.6263 H   0  0  0  0  0  0  0  0  0  0  0  0
   -1.4190   -2.0556    0.3962 C   0  0  0  0  0  0  0  0  0  0  0  0
   -0.7082   -2.9524   -0.0265 O   0  0  0  0  0  0  0  0  0  0  0  0
   -1.2086   -0.7450    0.0175 N   0  0  0  0  0  0  0  0  0  0  0  0
   -1.9542   -0.1578    0.3759 H   0  0  0  0  0  0  0  0  0  0  0  0
    0.1011   -0.0733    0.1289 C   0  0  1  0  0  0  0  0  0  0  0  0
   -0.1261    0.9651    0.3849 H   0  0  0  0  0  0  0  0  0  0  0  0
    0.9843   -0.5978    1.2875 C   0  0  0  0  0  0  0  0  0  0  0  0
    1.1300   -1.6785    1.2218 H   0  0  0  0  0  0  0  0  0  0  0  0
    1.9715   -0.1352    1.2136 H   0  0  0  0  0  0  0  0  0  0  0  0
    0.4048   -0.2211    2.6539 C   0  0  0  0  0  0  0  0  0  0  0  0
   -0.2817    0.8320    2.7431 O   0  5  0  0  0  0  0  0  0  0  0  0
    0.6259   -0.9994    3.6108 O   0  0  0  0  0  0  0  0  0  0  0  0
    0.8173    0.0820   -1.2337 C   0  0  0  0  0  0  0  0  0  0  0  0
    1.6764   -0.6965   -1.6314 O   0  0  0  0  0  0  0  0  0  0  0  0
    0.5849    1.2262   -1.9808 N   0  0  0  0  0  0  0  0  0  0  0  0
   -0.0628    1.9039   -1.5932 H   0  0  0  0  0  0  0  0  0  0  0  0
    1.2928    1.5449   -3.2123 C   0  0  0  0  0  0  0  0  0  0  0  0
    1.1441    0.7543   -3.9549 H   0  0  0  0  0  0  0  0  0  0  0  0
    0.9178    2.4845   -3.6282 H   0  0  0  0  0  0  0  0  0  0  0  0
    2.3650    1.6537   -3.0197 H   0  0  0  0  0  0  0  0  0  0  0  0
  1  2  1  0  0  0  0
  2  3  1  0  0  0  0
  2  4  1  0  0  0  0
  2  5  1  0  0  0  0
  5  6  2  0  0  0  0
  5  7  1  0  0  0  0
  7  8  1  0  0  0  0
  7  9  1  0  0  0  0
  9 10  1  0  0  0  0
  9 11  1  0  0  0  0
  9 17  1  0  0  0  0
 11 12  1  0  0  0  0
 11 13  1  0  0  0  0
 11 14  1  0  0  0  0
 14 15  1  0  0  0  0
 14 16  2  0  0  0  0
 17 18  2  0  0  0  0
 17 19  1  0  0  0  0
 19 20  1  0  0  0  0
 19 21  1  0  0  0  0
 21 22  1  0  0  0  0
 21 23  1  0  0  0  0
 21 24  1  0  0  0  0
M  CHG  1  15  -1
M  END
$$$$

  -OEChem-01062216073D

 24 23  0     1  0  0  0  0  0999 V2000
   -2.7473   -3.4784    1.3573 H   0  0  0  0  0  0  0  0  0  0  0  0
   -2.7210   -2.4115    1.1189 C   0  0  0  0  0  0  0  0  0  0  0  0
   -2.7975   -1.8443    2.0507 H   0  0  0  0  0  0  0  0  0  0  0  0
   -3.5726   -2.1694    0.4791 H   0  0  0  0  0  0  0  0  0  0  0  0
   -1.4219   -2.0649    0.4137 C   0  0  0  0  0  0  0  0  0  0  0  0
   -0.6669   -2.9650    0.0860 O   0  0  0  0  0  0  0  0  0  0  0  0
   -1.2006   -0.7545    0.0380 N   0  0  0  0  0  0  0  0  0  0  0  0
   -1.9582   -0.1595    0.3548 H   0  0  0  0  0  0  0  0  0  0  0  0
    0.1084   -0.0791    0.1308 C   0  0  1  0  0  0  0  0  0  0  0  0
   -0.1371    0.9550    0.3852 H   0  0  0  0  0  0  0  0  0  0  0  0
    1.0153   -0.5769    1.2818 C   0  0  0  0  0  0  0  0  0  0  0  0
    1.1692   -1.6568    1.2295 H   0  0  0  0  0  0  0  0  0  0  0  0
    1.9968   -0.1074    1.1832 H   0  0  0  0  0  0  0  0  0  0  0  0
    0.4607   -0.1864    2.6546 C   0  0  0  0  0  0  0  0  0  0  0  0
   -0.2329    0.8622    2.7421 O   0  5  0  0  0  0  0  0  0  0  0  0
    0.7353   -0.9311    3.6241 O   0  0  0  0  0  0  0  0  0  0  0  0
    0.8251    0.0927   -1.2296 C   0  0  0  0  0  0  0  0  0  0  0  0
    1.4049   -0.8210   -1.8036 O   0  0  0  0  0  0  0  0  0  0  0  0
    0.8494    1.3478   -1.8172 N   0  0  0  0  0  0  0  0  0  0  0  0
    0.4587    2.1124   -1.2758 H   0  0  0  0  0  0  0  0  0  0  0  0
    1.5707    1.6485   -3.0454 C   0  0  0  0  0  0  0  0  0  0  0  0
    1.2021    1.0267   -3.8676 H   0  0  0  0  0  0  0  0  0  0  0  0
    1.4283    2.6986   -3.3164 H   0  0  0  0  0  0  0  0  0  0  0  0
    2.6422    1.4659   -2.9143 H   0  0  0  0  0  0  0  0  0  0  0  0
  1  2  1  0  0  0  0
  2  3  1  0  0  0  0
  2  4  1  0  0  0  0
  2  5  1  0  0  0  0
  5  6  2  0  0  0  0
  5  7  1  0  0  0  0
  7  8  1  0  0  0  0
  7  9  1  0  0  0  0
  9 10  1  0  0  0  0
  9 11  1  0  0  0  0
  9 17  1  0  0  0  0
 11 12  1  0  0  0  0
 11 13  1  0  0  0  0
 11 14  1  0  0  0  0
 14 15  1  0  0  0  0
 14 16  2  0  0  0  0
 17 18  2  0  0  0  0
 17 19  1  0  0  0  0
 19 20  1  0  0  0  0
 19 21  1  0  0  0  0
 21 22  1  0  0  0  0
 21 23  1  0  0  0  0
 21 24  1  0  0  0  0
M  CHG  1  15  -1
M  END
$$$$

  -OEChem-01062216073D

 24 23  0     1  0  0  0  0  0999 V2000
   -2.8292   -3.4800    1.2779 H   0  0  0  0  0  0  0  0  0  0  0  0
   -2.7890   -2.4198    1.0126 C   0  0  0  0  0  0  0  0  0  0  0  0
   -2.9811   -1.8277    1.9113 H   0  0  0  0  0  0  0  0  0  0  0  0
   -3.5634   -2.2105    0.2710 H   0  0  0  0  0  0  0  0  0  0  0  0
   -1.4217   -2.0713    0.4514 C   0  0  0  0  0  0  0  0  0  0  0  0
   -0.6234   -2.9709    0.2482 O   0  0  0  0  0  0  0  0  0  0  0  0
   -1.1801   -0.7637    0.0773 N   0  0  0  0  0  0  0  0  0  0  0  0
   -1.9523   -0.1565    0.3264 H   0  0  0  0  0  0  0  0  0  0  0  0
    0.1305   -0.0892    0.1508 C   0  0  1  0  0  0  0  0  0  0  0  0
   -0.1294    0.9433    0.3974 H   0  0  0  0  0  0  0  0  0  0  0  0
    1.0645   -0.5546    1.2938 C   0  0  0  0  0  0  0  0  0  0  0  0
    1.2263   -1.6337    1.2603 H   0  0  0  0  0  0  0  0  0  0  0  0
    2.0401   -0.0799    1.1654 H   0  0  0  0  0  0  0  0  0  0  0  0
    0.5420   -0.1437    2.6728 C   0  0  0  0  0  0  0  0  0  0  0  0
   -0.1578    0.9008    2.7581 O   0  5  0  0  0  0  0  0  0  0  0  0
    0.8818   -0.8456    3.6537 O   0  0  0  0  0  0  0  0  0  0  0  0
    0.8430    0.0900   -1.2107 C   0  0  0  0  0  0  0  0  0  0  0  0
    1.0768   -0.8394   -1.9742 O   0  0  0  0  0  0  0  0  0  0  0  0
    1.1439    1.3731   -1.6391 N   0  0  0  0  0  0  0  0  0  0  0  0
    1.0104    2.1196   -0.9634 H   0  0  0  0  0  0  0  0  0  0  0  0
    1.8443    1.6635   -2.8818 C   0  0  0  0  0  0  0  0  0  0  0  0
    1.2674    1.3035   -3.7399 H   0  0  0  0  0  0  0  0  0  0  0  0
    1.9857    2.7429   -2.9887 H   0  0  0  0  0  0  0  0  0  0  0  0
    2.8278    1.1822   -2.8883 H   0  0  0  0  0  0  0  0  0  0  0  0
  1  2  1  0  0  0  0
  2  3  1  0  0  0  0
  2  4  1  0  0  0  0
  2  5  1  0  0  0  0
  5  6  2  0  0  0  0
  5  7  1  0  0  0  0
  7  8  1  0  0  0  0
  7  9  1  0  0  0  0
  9 10  1  0  0  0  0
  9 11  1  0  0  0  0
  9 17  1  0  0  0  0
 11 12  1  0  0  0  0
 11 13  1  0  0  0  0
 11 14  1  0  0  0  0
 14 15  1  0  0  0  0
 14 16  2  0  0  0  0
 17 18  2  0  0  0  0
 17 19  1  0  0  0  0
 19 20  1  0  0  0  0
 19 21  1  0  0  0  0
 21 22  1  0  0  0  0
 21 23  1  0  0  0  0
 21 24  1  0  0  0  0
M  CHG  1  15  -1
M  END
$$$$

  -OEChem-01062216073D

 24 23  0     1  0  0  0  0  0999 V2000
   -2.8673   -3.4770    1.2246 H   0  0  0  0  0  0  0  0  0  0  0  0
   -2.8087   -2.4136    0.9770 C   0  0  0  0  0  0  0  0  0  0  0  0
   -3.0238   -1.8322    1.8775 H   0  0  0  0  0  0  0  0  0  0  0  0
   -3.5571   -2.1858    0.2146 H   0  0  0  0  0  0  0  0  0  0  0  0
   -1.4214   -2.0703    0.4642 C   0  0  0  0  0  0  0  0  0  0  0  0
   -0.6112   -2.9701    0.3135 O   0  0  0  0  0  0  0  0  0  0  0  0
   -1.1677   -0.7671    0.0841 N   0  0  0  0  0  0  0  0  0  0  0  0
   -1.9452   -0.1511    0.2902 H   0  0  0  0  0  0  0  0  0  0  0  0
    0.1459   -0.0987    0.1525 C   0  0  1  0  0  0  0  0  0  0  0  0
   -0.1155    0.9367    0.3867 H   0  0  0  0  0  0  0  0  0  0  0  0
    1.0814   -0.5512    1.3003 C   0  0  0  0  0  0  0  0  0  0  0  0
    1.2404   -1.6308    1.2805 H   0  0  0  0  0  0  0  0  0  0  0  0
    2.0580   -0.0808    1.1644 H   0  0  0  0  0  0  0  0  0  0  0  0
    0.5671   -0.1231    2.6766 C   0  0  0  0  0  0  0  0  0  0  0  0
   -0.1291    0.9239    2.7532 O   0  5  0  0  0  0  0  0  0  0  0  0
    0.9234   -0.8063    3.6649 O   0  0  0  0  0  0  0  0  0  0  0  0
    0.8665    0.0746   -1.2051 C   0  0  0  0  0  0  0  0  0  0  0  0
    0.7986   -0.7482   -2.1116 O   0  0  0  0  0  0  0  0  0  0  0  0
    1.4509    1.2992   -1.4846 N   0  0  0  0  0  0  0  0  0  0  0  0
    1.5286    1.9508   -0.7087 H   0  0  0  0  0  0  0  0  0  0  0  0
    2.1365    1.6019   -2.7323 C   0  0  0  0  0  0  0  0  0  0  0  0
    1.4466    1.5190   -3.5782 H   0  0  0  0  0  0  0  0  0  0  0  0
    2.5300    2.6223   -2.7059 H   0  0  0  0  0  0  0  0  0  0  0  0
    2.9722    0.9115   -2.8860 H   0  0  0  0  0  0  0  0  0  0  0  0
  1  2  1  0  0  0  0
  2  3  1  0  0  0  0
  2  4  1  0  0  0  0
  2  5  1  0  0  0  0
  5  6  2  0  0  0  0
  5  7  1  0  0  0  0
  7  8  1  0  0  0  0
  7  9  1  0  0  0  0
  9 10  1  0  0  0  0
  9 11  1  0  0  0  0
  9 17  1  0  0  0  0
 11 12  1  0  0  0  0
 11 13  1  0  0  0  0
 11 14  1  0  0  0  0
 14 15  1  0  0  0  0
 14 16  2  0  0  0  0
 17 18  2  0  0  0  0
 17 19  1  0  0  0  0
 19 20  1  0  0  0  0
 19 21  1  0  0  0  0
 21 22  1  0  0  0  0
 21 23  1  0  0  0  0
 21 24  1  0  0  0  0
M  CHG  1  15  -1
M  END
$$$$

  -OEChem-01062216073D

 24 23  0     1  0  0  0  0  0999 V2000
   -2.8836   -3.4723    1.1998 H   0  0  0  0  0  0  0  0  0  0  0  0
   -2.8189   -2.4067    0.9627 C   0  0  0  0  0  0  0  0  0  0  0  0
   -3.0455   -1.8329    1.8652 H   0  0  0  0  0  0  0  0  0  0  0  0
   -3.5558   -2.1701    0.1914 H   0  0  0  0  0  0  0  0  0  0  0  0
   -1.4233   -2.0626    0.4729 C   0  0  0  0  0  0  0  0  0  0  0  0
   -0.6097   -2.9619    0.3345 O   0  0  0  0  0  0  0  0  0  0  0  0
   -1.1627   -0.7619    0.0896 N   0  0  0  0  0  0  0  0  0  0  0  0
   -1.9419   -0.1413    0.2729 H   0  0  0  0  0  0  0  0  0  0  0  0
    0.1528   -0.0961    0.1552 C   0  0  1  0  0  0  0  0  0  0  0  0
   -0.1009    0.9424    0.3846 H   0  0  0  0  0  0  0  0  0  0  0  0
    1.0900   -0.5528    1.3019 C   0  0  0  0  0  0  0  0  0  0  0  0
    1.2465   -1.6328    1.2812 H   0  0  0  0  0  0  0  0  0  0  0  0
    2.0687   -0.0867    1.1677 H   0  0  0  0  0  0  0  0  0  0  0  0
    0.5809   -0.1259    2.6797 C   0  0  0  0  0  0  0  0  0  0  0  0
   -0.1121    0.9225    2.7602 O   0  5  0  0  0  0  0  0  0  0  0  0
    0.9475   -0.8069    3.6658 O   0  0  0  0  0  0  0  0  0  0  0  0
    0.8725    0.0701   -1.2033 C   0  0  0  0  0  0  0  0  0  0  0  0
    0.5792   -0.5824   -2.2002 O   0  0  0  0  0  0  0  0  0  0  0  0
    1.7190    1.1543   -1.3651 N   0  0  0  0  0  0  0  0  0  0  0  0
    1.9568    1.6716   -0.5232 H   0  0  0  0  0  0  0  0  0  0  0  0
    2.4235    1.4544   -2.6027 C   0  0  0  0  0  0  0  0  0  0  0  0
    1.7114    1.6438   -3.4123 H   0  0  0  0  0  0  0  0  0  0  0  0
    3.0450    2.3452   -2.4733 H   0  0  0  0  0  0  0  0  0  0  0  0
    3.0705    0.6182   -2.8871 H   0  0  0  0  0  0  0  0  0  0  0  0
  1  2  1  0  0  0  0
  2  3  1  0  0  0  0
  2  4  1  0  0  0  0
  2  5  1  0  0  0  0
  5  6  2  0  0  0  0
  5  7  1  0  0  0  0
  7  8  1  0  0  0  0
  7  9  1  0  0  0  0
  9 10  1  0  0  0  0
  9 11  1  0  0  0  0
  9 17  1  0  0  0  0
 11 12  1  0  0  0  0
 11 13  1  0  0  0  0
 11 14  1  0  0  0  0
 14 15  1  0  0  0  0
 14 16  2  0  0  0  0
 17 18  2  0  0  0  0
 17 19  1  0  0  0  0
 19 20  1  0  0  0  0
 19 21  1  0  0  0  0
 21 22  1  0  0  0  0
 21 23  1  0  0  0  0
 21 24  1  0  0  0  0
M  CHG  1  15  -1
M  END
$$$$

  -OEChem-01062216073D

 24 23  0     1  0  0  0  0  0999 V2000
   -2.8761   -3.4534    1.2141 H   0  0  0  0  0  0  0  0  0  0  0  0
   -2.8111   -2.3897    0.9689 C   0  0  0  0  0  0  0  0  0  0  0  0
   -3.0312   -1.8092    1.8688 H   0  0  0  0  0  0  0  0  0  0  0  0
   -3.5521   -2.1574    0.2005 H   0  0  0  0  0  0  0  0  0  0  0  0
   -1.4185   -2.0508    0.4679 C   0  0  0  0  0  0  0  0  0  0  0  0
   -0.6118   -2.9534    0.3082 O   0  0  0  0  0  0  0  0  0  0  0  0
   -1.1534   -0.7511    0.0862 N   0  0  0  0  0  0  0  0  0  0  0  0
   -1.9334   -0.1286    0.2602 H   0  0  0  0  0  0  0  0  0  0  0  0
    0.1618   -0.0854    0.1623 C   0  0  1  0  0  0  0  0  0  0  0  0
   -0.0788    0.9560    0.3952 H   0  0  0  0  0  0  0  0  0  0  0  0
    1.0867   -0.5650    1.3123 C   0  0  0  0  0  0  0  0  0  0  0  0
    1.2384   -1.6449    1.2770 H   0  0  0  0  0  0  0  0  0  0  0  0
    2.0697   -0.1035    1.2004 H   0  0  0  0  0  0  0  0  0  0  0  0
    0.5661   -0.1560    2.6910 C   0  0  0  0  0  0  0  0  0  0  0  0
   -0.1222    0.8940    2.7817 O   0  5  0  0  0  0  0  0  0  0  0  0
    0.9205   -0.8545    3.6692 O   0  0  0  0  0  0  0  0  0  0  0  0
    0.8814    0.0724   -1.1985 C   0  0  0  0  0  0  0  0  0  0  0  0
    0.4254   -0.3762   -2.2464 O   0  0  0  0  0  0  0  0  0  0  0  0
    1.9530    0.9454   -1.2828 N   0  0  0  0  0  0  0  0  0  0  0  0
    2.3078    1.3131   -0.4043 H   0  0  0  0  0  0  0  0  0  0  0  0
    2.6707    1.2345   -2.5153 C   0  0  0  0  0  0  0  0  0  0  0  0
    2.0003    1.6910   -3.2504 H   0  0  0  0  0  0  0  0  0  0  0  0
    3.4916    1.9298   -2.3166 H   0  0  0  0  0  0  0  0  0  0  0  0
    3.0891    0.3157   -2.9386 H   0  0  0  0  0  0  0  0  0  0  0  0
  1  2  1  0  0  0  0
  2  3  1  0  0  0  0
  2  4  1  0  0  0  0
  2  5  1  0  0  0  0
  5  6  2  0  0  0  0
  5  7  1  0  0  0  0
  7  8  1  0  0  0  0
  7  9  1  0  0  0  0
  9 10  1  0  0  0  0
  9 11  1  0  0  0  0
  9 17  1  0  0  0  0
 11 12  1  0  0  0  0
 11 13  1  0  0  0  0
 11 14  1  0  0  0  0
 14 15  1  0  0  0  0
 14 16  2  0  0  0  0
 17 18  2  0  0  0  0
 17 19  1  0  0  0  0
 19 20  1  0  0  0  0
 19 21  1  0  0  0  0
 21 22  1  0  0  0  0
 21 23  1  0  0  0  0
 21 24  1  0  0  0  0
M  CHG  1  15  -1
M  END
$$$$

  -OEChem-01062216073D

 24 23  0     1  0  0  0  0  0999 V2000
   -2.8736   -3.4533    1.1897 H   0  0  0  0  0  0  0  0  0  0  0  0
   -2.8014   -2.3877    0.9552 C   0  0  0  0  0  0  0  0  0  0  0  0
   -2.9849   -1.8158    1.8686 H   0  0  0  0  0  0  0  0  0  0  0  0
   -3.5624   -2.1350    0.2133 H   0  0  0  0  0  0  0  0  0  0  0  0
   -1.4197   -2.0624    0.4169 C   0  0  0  0  0  0  0  0  0  0  0  0
   -0.6497   -2.9785    0.1768 O   0  0  0  0  0  0  0  0  0  0  0  0
   -1.1459   -0.7626    0.0428 N   0  0  0  0  0  0  0  0  0  0  0  0
   -1.9391   -0.1471    0.1728 H   0  0  0  0  0  0  0  0  0  0  0  0
    0.1560   -0.0692    0.1488 C   0  0  1  0  0  0  0  0  0  0  0  0
   -0.0754    0.8820    0.6367 H   0  0  0  0  0  0  0  0  0  0  0  0
    1.2269   -0.7425    1.0519 C   0  0  0  0  0  0  0  0  0  0  0  0
    1.4130   -1.7724    0.7425 H   0  0  0  0  0  0  0  0  0  0  0  0
    2.1740   -0.2091    0.9580 H   0  0  0  0  0  0  0  0  0  0  0  0
    0.8615   -0.6944    2.5368 C   0  0  0  0  0  0  0  0  0  0  0  0
    0.1528    0.2630    2.9440 O   0  5  0  0  0  0  0  0  0  0  0  0
    1.3944   -1.5463    3.2860 O   0  0  0  0  0  0  0  0  0  0  0  0
    0.6981    0.4044   -1.2229 C   0  0  0  0  0  0  0  0  0  0  0  0
    0.0058    0.3788   -2.2374 O   0  0  0  0  0  0  0  0  0  0  0  0
    1.9104    1.0699   -1.2886 N   0  0  0  0  0  0  0  0  0  0  0  0
    2.4668    1.0810   -0.4382 H   0  0  0  0  0  0  0  0  0  0  0  0
    2.4800    1.6047   -2.5164 C   0  0  0  0  0  0  0  0  0  0  0  0
    1.8263    2.3756   -2.9371 H   0  0  0  0  0  0  0  0  0  0  0  0
    3.4567    2.0532   -2.3123 H   0  0  0  0  0  0  0  0  0  0  0  0
    2.6116    0.8080   -3.2557 H   0  0  0  0  0  0  0  0  0  0  0  0
  1  2  1  0  0  0  0
  2  3  1  0  0  0  0
  2  4  1  0  0  0  0
  2  5  1  0  0  0  0
  5  6  2  0  0  0  0
  5  7  1  0  0  0  0
  7  8  1  0  0  0  0
  7  9  1  0  0  0  0
  9 10  1  0  0  0  0
  9 11  1  0  0  0  0
  9 17  1  0  0  0  0
 11 12  1  0  0  0  0
 11 13  1  0  0  0  0
 11 14  1  0  0  0  0
 14 15  1  0  0  0  0
 14 16  2  0  0  0  0
 17 18  2  0  0  0  0
 17 19  1  0  0  0  0
 19 20  1  0  0  0  0
 19 21  1  0  0  0  0
 21 22  1  0  0  0  0
 21 23  1  0  0  0  0
 21 24  1  0  0  0  0
M  CHG  1  15  -1
M  END
$$$$

  -OEChem-01062216073D

 24 23  0     1  0  0  0  0  0999 V2000
   -2.8642   -3.4426    1.1892 H   0  0  0  0  0  0  0  0  0  0  0  0
   -2.8003   -2.3797    0.9396 C   0  0  0  0  0  0  0  0  0  0  0  0
   -3.0009   -1.7963    1.8420 H   0  0  0  0  0  0  0  0  0  0  0  0
   -3.5548   -2.1461    0.1849 H   0  0  0  0  0  0  0  0  0  0  0  0
   -1.4155   -2.0481    0.4132 C   0  0  0  0  0  0  0  0  0  0  0  0
   -0.6487   -2.9615    0.1528 O   0  0  0  0  0  0  0  0  0  0  0  0
   -1.1356   -0.7452    0.0556 N   0  0  0  0  0  0  0  0  0  0  0  0
   -1.9271   -0.1276    0.1873 H   0  0  0  0  0  0  0  0  0  0  0  0
    0.1669   -0.0562    0.1797 C   0  0  1  0  0  0  0  0  0  0  0  0
   -0.0565    0.8920    0.6777 H   0  0  0  0  0  0  0  0  0  0  0  0
    1.2294   -0.7484    1.0795 C   0  0  0  0  0  0  0  0  0  0  0  0
    1.4170   -1.7729    0.7532 H   0  0  0  0  0  0  0  0  0  0  0  0
    2.1766   -0.2119    1.0081 H   0  0  0  0  0  0  0  0  0  0  0  0
    0.8541   -0.7240    2.5622 C   0  0  0  0  0  0  0  0  0  0  0  0
    0.1458    0.2274    2.9831 O   0  5  0  0  0  0  0  0  0  0  0  0
    1.3791   -1.5928    3.2976 O   0  0  0  0  0  0  0  0  0  0  0  0
    0.6985    0.4203   -1.1964 C   0  0  0  0  0  0  0  0  0  0  0  0
   -0.0656    0.6215   -2.1378 O   0  0  0  0  0  0  0  0  0  0  0  0
    2.0206    0.8029   -1.3485 N   0  0  0  0  0  0  0  0  0  0  0  0
    2.6406    0.5991   -0.5697 H   0  0  0  0  0  0  0  0  0  0  0  0
    2.5913    1.2727   -2.6022 C   0  0  0  0  0  0  0  0  0  0  0  0
    2.1003    2.1966   -2.9239 H   0  0  0  0  0  0  0  0  0  0  0  0
    3.6589    1.4746   -2.4752 H   0  0  0  0  0  0  0  0  0  0  0  0
    2.4720    0.5158   -3.3840 H   0  0  0  0  0  0  0  0  0  0  0  0
  1  2  1  0  0  0  0
  2  3  1  0  0  0  0
  2  4  1  0  0  0  0
  2  5  1  0  0  0  0
  5  6  2  0  0  0  0
  5  7  1  0  0  0  0
  7  8  1  0  0  0  0
  7  9  1  0  0  0  0
  9 10  1  0  0  0  0
  9 11  1  0  0  0  0
  9 17  1  0  0  0  0
 11 12  1  0  0  0  0
 11 13  1  0  0  0  0
 11 14  1  0  0  0  0
 14 15  1  0  0  0  0
 14 16  2  0  0  0  0
 17 18  2  0  0  0  0
 17 19  1  0  0  0  0
 19 20  1  0  0  0  0
 19 21  1  0  0  0  0
 21 22  1  0  0  0  0
 21 23  1  0  0  0  0
 21 24  1  0  0  0  0
M  CHG  1  15  -1
M  END
$$$$

  -OEChem-01062216073D

 24 23  0     1  0  0  0  0  0999 V2000
   -2.8684   -3.4316    1.1657 H   0  0  0  0  0  0  0  0  0  0  0  0
   -2.7976   -2.3648    0.9360 C   0  0  0  0  0  0  0  0  0  0  0  0
   -2.9873   -1.7972    1.8508 H   0  0  0  0  0  0  0  0  0  0  0  0
   -3.5556   -2.1112    0.1913 H   0  0  0  0  0  0  0  0  0  0  0  0
   -1.4141   -2.0337    0.4059 C   0  0  0  0  0  0  0  0  0  0  0  0
   -0.6542   -2.9458    0.1211 O   0  0  0  0  0  0  0  0  0  0  0  0
   -1.1291   -0.7298    0.0577 N   0  0  0  0  0  0  0  0  0  0  0  0
   -1.9160   -0.1081    0.2003 H   0  0  0  0  0  0  0  0  0  0  0  0
    0.1754   -0.0503    0.1994 C   0  0  1  0  0  0  0  0  0  0  0  0
   -0.0419    0.8973    0.7015 H   0  0  0  0  0  0  0  0  0  0  0  0
    1.2291   -0.7547    1.0999 C   0  0  0  0  0  0  0  0  0  0  0  0
    1.4178   -1.7766    0.7659 H   0  0  0  0  0  0  0  0  0  0  0  0
    2.1758   -0.2150    1.0409 H   0  0  0  0  0  0  0  0  0  0  0  0
    0.8429   -0.7430    2.5798 C   0  0  0  0  0  0  0  0  0  0  0  0
    0.1349    0.2060    3.0062 O   0  5  0  0  0  0  0  0  0  0  0  0
    1.3507   -1.6285    3.3075 O   0  0  0  0  0  0  0  0  0  0  0  0
    0.7047    0.4227   -1.1773 C   0  0  0  0  0  0  0  0  0  0  0  0
   -0.0687    0.8479   -2.0328 O   0  0  0  0  0  0  0  0  0  0  0  0
    2.0630    0.5065   -1.4304 N   0  0  0  0  0  0  0  0  0  0  0  0
    2.6734    0.0834   -0.7366 H   0  0  0  0  0  0  0  0  0  0  0  0
    2.6258    0.9265   -2.7050 C   0  0  0  0  0  0  0  0  0  0  0  0
    2.2905    1.9377   -2.9570 H   0  0  0  0  0  0  0  0  0  0  0  0
    3.7184    0.9293   -2.6497 H   0  0  0  0  0  0  0  0  0  0  0  0
    2.3192    0.2415   -3.5019 H   0  0  0  0  0  0  0  0  0  0  0  0
  1  2  1  0  0  0  0
  2  3  1  0  0  0  0
  2  4  1  0  0  0  0
  2  5  1  0  0  0  0
  5  6  2  0  0  0  0
  5  7  1  0  0  0  0
  7  8  1  0  0  0  0
  7  9  1  0  0  0  0
  9 10  1  0  0  0  0
  9 11  1  0  0  0  0
  9 17  1  0  0  0  0
 11 12  1  0  0  0  0
 11 13  1  0  0  0  0
 11 14  1  0  0  0  0
 14 15  1  0  0  0  0
 14 16  2  0  0  0  0
 17 18  2  0  0  0  0
 17 19  1  0  0  0  0
 19 20  1  0  0  0  0
 19 21  1  0  0  0  0
 21 22  1  0  0  0  0
 21 23  1  0  0  0  0
 21 24  1  0  0  0  0
M  CHG  1  15  -1
M  END
$$$$

  -OEChem-01062216073D

 24 23  0     1  0  0  0  0  0999 V2000
   -2.8399   -3.4265    1.1759 H   0  0  0  0  0  0  0  0  0  0  0  0
   -2.7679   -2.3529    0.9810 C   0  0  0  0  0  0  0  0  0  0  0  0
   -2.8928   -1.8172    1.9261 H   0  0  0  0  0  0  0  0  0  0  0  0
   -3.5662   -2.0620    0.2941 H   0  0  0  0  0  0  0  0  0  0  0  0
   -1.4141   -2.0197    0.3807 C   0  0  0  0  0  0  0  0  0  0  0  0
   -0.6725   -2.9270    0.0364 O   0  0  0  0  0  0  0  0  0  0  0  0
   -1.1382   -0.7141    0.0333 N   0  0  0  0  0  0  0  0  0  0  0  0
   -1.9195   -0.0956    0.2174 H   0  0  0  0  0  0  0  0  0  0  0  0
    0.1657   -0.0401    0.1960 C   0  0  1  0  0  0  0  0  0  0  0  0
   -0.0504    0.9057    0.7025 H   0  0  0  0  0  0  0  0  0  0  0  0
    1.2090   -0.7587    1.0959 C   0  0  0  0  0  0  0  0  0  0  0  0
    1.3978   -1.7771    0.7511 H   0  0  0  0  0  0  0  0  0  0  0  0
    2.1563   -0.2176    1.0476 H   0  0  0  0  0  0  0  0  0  0  0  0
    0.8086   -0.7658    2.5719 C   0  0  0  0  0  0  0  0  0  0  0  0
    0.0988    0.1782    3.0054 O   0  5  0  0  0  0  0  0  0  0  0  0
    1.2925   -1.6735    3.2883 O   0  0  0  0  0  0  0  0  0  0  0  0
    0.7090    0.4292   -1.1743 C   0  0  0  0  0  0  0  0  0  0  0  0
   -0.0126    1.0514   -1.9504 O   0  0  0  0  0  0  0  0  0  0  0  0
    2.0315    0.2227   -1.5254 N   0  0  0  0  0  0  0  0  0  0  0  0
    2.5669   -0.3783   -0.9041 H   0  0  0  0  0  0  0  0  0  0  0  0
    2.5939    0.5873   -2.8166 C   0  0  0  0  0  0  0  0  0  0  0  0
    2.4816    1.6618   -2.9933 H   0  0  0  0  0  0  0  0  0  0  0  0
    3.6600    0.3431   -2.8434 H   0  0  0  0  0  0  0  0  0  0  0  0
    2.0910    0.0403   -3.6205 H   0  0  0  0  0  0  0  0  0  0  0  0
  1  2  1  0  0  0  0
  2  3  1  0  0  0  0
  2  4  1  0  0  0  0
  2  5  1  0  0  0  0
  5  6  2  0  0  0  0
  5  7  1  0  0  0  0
  7  8  1  0  0  0  0
  7  9  1  0  0  0  0
  9 10  1  0  0  0  0
  9 11  1  0  0  0  0
  9 17  1  0  0  0  0
 11 12  1  0  0  0  0
 11 13  1  0  0  0  0
 11 14  1  0  0  0  0
 14 15  1  0  0  0  0
 14 16  2  0  0  0  0
 17 18  2  0  0  0  0
 17 19  1  0  0  0  0
 19 20  1  0  0  0  0
 19 21  1  0  0  0  0
 21 22  1  0  0  0  0
 21 23  1  0  0  0  0
 21 24  1  0  0  0  0
M  CHG  1  15  -1
M  END
$$$$

  -OEChem-01062216073D

 24 23  0     1  0  0  0  0  0999 V2000
   -2.8030   -3.4173    1.2011 H   0  0  0  0  0  0  0  0  0  0  0  0
   -2.7364   -2.3408    1.0203 C   0  0  0  0  0  0  0  0  0  0  0  0
   -2.8090   -1.8202    1.9793 H   0  0  0  0  0  0  0  0  0  0  0  0
   -3.5681   -2.0352    0.3812 H   0  0  0  0  0  0  0  0  0  0  0  0
   -1.4139   -2.0030    0.3565 C   0  0  0  0  0  0  0  0  0  0  0  0
   -0.6901   -2.9041   -0.0396 O   0  0  0  0  0  0  0  0  0  0  0  0
   -1.1482   -0.6959    0.0076 N   0  0  0  0  0  0  0  0  0  0  0  0
   -1.9254   -0.0825    0.2252 H   0  0  0  0  0  0  0  0  0  0  0  0
    0.1544   -0.0270    0.1931 C   0  0  1  0  0  0  0  0  0  0  0  0
   -0.0623    0.9163    0.7045 H   0  0  0  0  0  0  0  0  0  0  0  0
    1.1889   -0.7581    1.0913 C   0  0  0  0  0  0  0  0  0  0  0  0
    1.3793   -1.7727    0.7359 H   0  0  0  0  0  0  0  0  0  0  0  0
    2.1364   -0.2152    1.0509 H   0  0  0  0  0  0  0  0  0  0  0  0
    0.7750   -0.7859    2.5629 C   0  0  0  0  0  0  0  0  0  0  0  0
    0.0614    0.1516    3.0037 O   0  5  0  0  0  0  0  0  0  0  0  0
    1.2350   -1.7158    3.2662 O   0  0  0  0  0  0  0  0  0  0  0  0
    0.7155    0.4371   -1.1690 C   0  0  0  0  0  0  0  0  0  0  0  0
    0.0932    1.2413   -1.8583 O   0  0  0  0  0  0  0  0  0  0  0  0
    1.9320   -0.0366   -1.6269 N   0  0  0  0  0  0  0  0  0  0  0  0
    2.3418   -0.7936   -1.0848 H   0  0  0  0  0  0  0  0  0  0  0  0
    2.4770    0.2697   -2.9402 C   0  0  0  0  0  0  0  0  0  0  0  0
    2.5987    1.3508   -3.0615 H   0  0  0  0  0  0  0  0  0  0  0  0
    3.4564   -0.2030   -3.0582 H   0  0  0  0  0  0  0  0  0  0  0  0
    1.8129   -0.1037   -3.7260 H   0  0  0  0  0  0  0  0  0  0  0  0
  1  2  1  0  0  0  0
  2  3  1  0  0  0  0
  2  4  1  0  0  0  0
  2  5  1  0  0  0  0
  5  6  2  0  0  0  0
  5  7  1  0  0  0  0
  7  8  1  0  0  0  0
  7  9  1  0  0  0  0
  9 10  1  0  0  0  0
  9 11  1  0  0  0  0
  9 17  1  0  0  0  0
 11 12  1  0  0  0  0
 11 13  1  0  0  0  0
 11 14  1  0  0  0  0
 14 15  1  0  0  0  0
 14 16  2  0  0  0  0
 17 18  2  0  0  0  0
 17 19  1  0  0  0  0
 19 20  1  0  0  0  0
 19 21  1  0  0  0  0
 21 22  1  0  0  0  0
 21 23  1  0  0  0  0
 21 24  1  0  0  0  0
M  CHG  1  15  -1
M  END
$$$$

  -OEChem-01062216073D

 24 23  0     1  0  0  0  0  0999 V2000
   -2.7533   -3.3997    1.2593 H   0  0  0  0  0  0  0  0  0  0  0  0
   -2.7063   -2.3262    1.0564 C   0  0  0  0  0  0  0  0  0  0  0  0
   -2.7504   -1.7891    2.0081 H   0  0  0  0  0  0  0  0  0  0  0  0
   -3.5637   -2.0414    0.4425 H   0  0  0  0  0  0  0  0  0  0  0  0
   -1.4128   -1.9865    0.3392 C   0  0  0  0  0  0  0  0  0  0  0  0
   -0.7098   -2.8830   -0.1033 O   0  0  0  0  0  0  0  0  0  0  0  0
   -1.1536   -0.6794   -0.0133 N   0  0  0  0  0  0  0  0  0  0  0  0
   -1.9265   -0.0700    0.2306 H   0  0  0  0  0  0  0  0  0  0  0  0
    0.1483   -0.0155    0.1919 C   0  0  1  0  0  0  0  0  0  0  0  0
   -0.0674    0.9265    0.7066 H   0  0  0  0  0  0  0  0  0  0  0  0
    1.1720   -0.7601    1.0895 C   0  0  0  0  0  0  0  0  0  0  0  0
    1.3596   -1.7726    0.7263 H   0  0  0  0  0  0  0  0  0  0  0  0
    2.1227   -0.2222    1.0568 H   0  0  0  0  0  0  0  0  0  0  0  0
    0.7418   -0.8037    2.5562 C   0  0  0  0  0  0  0  0  0  0  0  0
    0.0262    0.1305    3.0005 O   0  5  0  0  0  0  0  0  0  0  0  0
    1.1735   -1.7551    3.2486 O   0  0  0  0  0  0  0  0  0  0  0  0
    0.7268    0.4410   -1.1629 C   0  0  0  0  0  0  0  0  0  0  0  0
    0.2444    1.3997   -1.7601 O   0  0  0  0  0  0  0  0  0  0  0  0
    1.7714   -0.2585   -1.7388 N   0  0  0  0  0  0  0  0  0  0  0  0
    2.0184   -1.1317   -1.2781 H   0  0  0  0  0  0  0  0  0  0  0  0
    2.2785    0.0035   -3.0767 C   0  0  0  0  0  0  0  0  0  0  0  0
    2.6230    1.0392   -3.1601 H   0  0  0  0  0  0  0  0  0  0  0  0
    3.1220   -0.6587   -3.2936 H   0  0  0  0  0  0  0  0  0  0  0  0
    1.4966   -0.1720   -3.8225 H   0  0  0  0  0  0  0  0  0  0  0  0
  1  2  1  0  0  0  0
  2  3  1  0  0  0  0
  2  4  1  0  0  0  0
  2  5  1  0  0  0  0
  5  6  2  0  0  0  0
  5  7  1  0  0  0  0
  7  8  1  0  0  0  0
  7  9  1  0  0  0  0
  9 10  1  0  0  0  0
  9 11  1  0  0  0  0
  9 17  1  0  0  0  0
 11 12  1  0  0  0  0
 11 13  1  0  0  0  0
 11 14  1  0  0  0  0
 14 15  1  0  0  0  0
 14 16  2  0  0  0  0
 17 18  2  0  0  0  0
 17 19  1  0  0  0  0
 19 20  1  0  0  0  0
 19 21  1  0  0  0  0
 21 22  1  0  0  0  0
 21 23  1  0  0  0  0
 21 24  1  0  0  0  0
M  CHG  1  15  -1
M  END
$$$$

  -OEChem-01062216073D

 24 23  0     1  0  0  0  0  0999 V2000
   -2.7171   -3.3948    1.2841 H   0  0  0  0  0  0  0  0  0  0  0  0
   -2.6697   -2.3177    1.1020 C   0  0  0  0  0  0  0  0  0  0  0  0
   -2.6549   -1.8011    2.0659 H   0  0  0  0  0  0  0  0  0  0  0  0
   -3.5568   -2.0111    0.5432 H   0  0  0  0  0  0  0  0  0  0  0  0
   -1.4135   -1.9742    0.3230 C   0  0  0  0  0  0  0  0  0  0  0  0
   -0.7343   -2.8636   -0.1697 O   0  0  0  0  0  0  0  0  0  0  0  0
   -1.1648   -0.6679   -0.0380 N   0  0  0  0  0  0  0  0  0  0  0  0
   -1.9333   -0.0644    0.2336 H   0  0  0  0  0  0  0  0  0  0  0  0
    0.1355   -0.0075    0.1853 C   0  0  1  0  0  0  0  0  0  0  0  0
   -0.0809    0.9346    0.7003 H   0  0  0  0  0  0  0  0  0  0  0  0
    1.1511   -0.7602    1.0835 C   0  0  0  0  0  0  0  0  0  0  0  0
    1.3406   -1.7698    0.7135 H   0  0  0  0  0  0  0  0  0  0  0  0
    2.1025   -0.2228    1.0596 H   0  0  0  0  0  0  0  0  0  0  0  0
    0.7070   -0.8167    2.5457 C   0  0  0  0  0  0  0  0  0  0  0  0
   -0.0127    0.1134    2.9915 O   0  5  0  0  0  0  0  0  0  0  0  0
    1.1143   -1.7856    3.2285 O   0  0  0  0  0  0  0  0  0  0  0  0
    0.7281    0.4361   -1.1654 C   0  0  0  0  0  0  0  0  0  0  0  0
    0.4392    1.5218   -1.6607 O   0  0  0  0  0  0  0  0  0  0  0  0
    1.5451   -0.4355   -1.8606 N   0  0  0  0  0  0  0  0  0  0  0  0
    1.5942   -1.3800   -1.4815 H   0  0  0  0  0  0  0  0  0  0  0  0
    2.0268   -0.1878   -3.2101 C   0  0  0  0  0  0  0  0  0  0  0  0
    2.5940    0.7478   -3.2479 H   0  0  0  0  0  0  0  0  0  0  0  0
    2.6841   -1.0025   -3.5280 H   0  0  0  0  0  0  0  0  0  0  0  0
    1.1875   -0.1233   -3.9099 H   0  0  0  0  0  0  0  0  0  0  0  0
  1  2  1  0  0  0  0
  2  3  1  0  0  0  0
  2  4  1  0  0  0  0
  2  5  1  0  0  0  0
  5  6  2  0  0  0  0
  5  7  1  0  0  0  0
  7  8  1  0  0  0  0
  7  9  1  0  0  0  0
  9 10  1  0  0  0  0
  9 11  1  0  0  0  0
  9 17  1  0  0  0  0
 11 12  1  0  0  0  0
 11 13  1  0  0  0  0
 11 14  1  0  0  0  0
 14 15  1  0  0  0  0
 14 16  2  0  0  0  0
 17 18  2  0  0  0  0
 17 19  1  0  0  0  0
 19 20  1  0  0  0  0
 19 21  1  0  0  0  0
 21 22  1  0  0  0  0
 21 23  1  0  0  0  0
 21 24  1  0  0  0  0
M  CHG  1  15  -1
M  END
$$$$

  -OEChem-01062216073D

 24 23  0     1  0  0  0  0  0999 V2000
   -2.6588   -3.3859    1.3443 H   0  0  0  0  0  0  0  0  0  0  0  0
   -2.6322   -2.3103    1.1492 C   0  0  0  0  0  0  0  0  0  0  0  0
   -2.5829   -1.7842    2.1069 H   0  0  0  0  0  0  0  0  0  0  0  0
   -3.5457   -2.0195    0.6257 H   0  0  0  0  0  0  0  0  0  0  0  0
   -1.4144   -1.9615    0.3139 C   0  0  0  0  0  0  0  0  0  0  0  0
   -0.7649   -2.8418   -0.2330 O   0  0  0  0  0  0  0  0  0  0  0  0
   -1.1761   -0.6565   -0.0554 N   0  0  0  0  0  0  0  0  0  0  0  0
   -1.9409   -0.0593    0.2396 H   0  0  0  0  0  0  0  0  0  0  0  0
    0.1229    0.0021    0.1820 C   0  0  1  0  0  0  0  0  0  0  0  0
   -0.0922    0.9441    0.6979 H   0  0  0  0  0  0  0  0  0  0  0  0
    1.1342   -0.7597    1.0753 C   0  0  0  0  0  0  0  0  0  0  0  0
    1.3261   -1.7648    0.6936 H   0  0  0  0  0  0  0  0  0  0  0  0
    2.0852   -0.2214    1.0619 H   0  0  0  0  0  0  0  0  0  0  0  0
    0.6792   -0.8319    2.5335 C   0  0  0  0  0  0  0  0  0  0  0  0
   -0.0443    0.0934    2.9834 O   0  5  0  0  0  0  0  0  0  0  0  0
    1.0626   -1.8191    3.2037 O   0  0  0  0  0  0  0  0  0  0  0  0
    0.7218    0.4321   -1.1684 C   0  0  0  0  0  0  0  0  0  0  0  0
    0.6659    1.5943   -1.5591 O   0  0  0  0  0  0  0  0  0  0  0  0
    1.2675   -0.5421   -1.9821 N   0  0  0  0  0  0  0  0  0  0  0  0
    1.1208   -1.5016   -1.6676 H   0  0  0  0  0  0  0  0  0  0  0  0
    1.7252   -0.3002   -3.3408 C   0  0  0  0  0  0  0  0  0  0  0  0
    2.4926    0.4803   -3.3529 H   0  0  0  0  0  0  0  0  0  0  0  0
    2.1571   -1.2146   -3.7582 H   0  0  0  0  0  0  0  0  0  0  0  0
    0.8901    0.0130   -3.9753 H   0  0  0  0  0  0  0  0  0  0  0  0
  1  2  1  0  0  0  0
  2  3  1  0  0  0  0
  2  4  1  0  0  0  0
  2  5  1  0  0  0  0
  5  6  2  0  0  0  0
  5  7  1  0  0  0  0
  7  8  1  0  0  0  0
  7  9  1  0  0  0  0
  9 10  1  0  0  0  0
  9 11  1  0  0  0  0
  9 17  1  0  0  0  0
 11 12  1  0  0  0  0
 11 13  1  0  0  0  0
 11 14  1  0  0  0  0
 14 15  1  0  0  0  0
 14 16  2  0  0  0  0
 17 18  2  0  0  0  0
 17 19  1  0  0  0  0
 19 20  1  0  0  0  0
 19 21  1  0  0  0  0
 21 22  1  0  0  0  0
 21 23  1  0  0  0  0
 21 24  1  0  0  0  0
M  CHG  1  15  -1
M  END
$$$$

  -OEChem-01062216073D

 24 23  0     1  0  0  0  0  0999 V2000
   -2.6190   -3.3929    1.3885 H   0  0  0  0  0  0  0  0  0  0  0  0
   -2.5942   -2.3141    1.2116 C   0  0  0  0  0  0  0  0  0  0  0  0
   -2.4833   -1.8062    2.1742 H   0  0  0  0  0  0  0  0  0  0  0  0
   -3.5342   -2.0062    0.7486 H   0  0  0  0  0  0  0  0  0  0  0  0
   -1.4242   -1.9600    0.3130 C   0  0  0  0  0  0  0  0  0  0  0  0
   -0.8141   -2.8315   -0.2913 O   0  0  0  0  0  0  0  0  0  0  0  0
   -1.1998   -0.6561   -0.0664 N   0  0  0  0  0  0  0  0  0  0  0  0
   -1.9609   -0.0660    0.2526 H   0  0  0  0  0  0  0  0  0  0  0  0
    0.0978    0.0073    0.1721 C   0  0  1  0  0  0  0  0  0  0  0  0
   -0.1170    0.9505    0.6860 H   0  0  0  0  0  0  0  0  0  0  0  0
    1.1072   -0.7587    1.0618 C   0  0  0  0  0  0  0  0  0  0  0  0
    1.2961   -1.7625    0.6740 H   0  0  0  0  0  0  0  0  0  0  0  0
    2.0595   -0.2227    1.0517 H   0  0  0  0  0  0  0  0  0  0  0  0
    0.6470   -0.8363    2.5183 C   0  0  0  0  0  0  0  0  0  0  0  0
   -0.0774    0.0880    2.9690 O   0  5  0  0  0  0  0  0  0  0  0  0
    1.0111   -1.8359    3.1807 O   0  0  0  0  0  0  0  0  0  0  0  0
    0.6969    0.4292   -1.1804 C   0  0  0  0  0  0  0  0  0  0  0  0
    0.8960    1.6056   -1.4671 O   0  0  0  0  0  0  0  0  0  0  0  0
    0.9530   -0.5606   -2.1096 N   0  0  0  0  0  0  0  0  0  0  0  0
    0.6588   -1.5013   -1.8408 H   0  0  0  0  0  0  0  0  0  0  0  0
    1.4240   -0.3115   -3.4618 C   0  0  0  0  0  0  0  0  0  0  0  0
    2.3680    0.2423   -3.4411 H   0  0  0  0  0  0  0  0  0  0  0  0
    1.5913   -1.2601   -3.9803 H   0  0  0  0  0  0  0  0  0  0  0  0
    0.6842    0.2673   -4.0237 H   0  0  0  0  0  0  0  0  0  0  0  0
  1  2  1  0  0  0  0
  2  3  1  0  0  0  0
  2  4  1  0  0  0  0
  2  5  1  0  0  0  0
  5  6  2  0  0  0  0
  5  7  1  0  0  0  0
  7  8  1  0  0  0  0
  7  9  1  0  0  0  0
  9 10  1  0  0  0  0
  9 11  1  0  0  0  0
  9 17  1  0  0  0  0
 11 12  1  0  0  0  0
 11 13  1  0  0  0  0
 11 14  1  0  0  0  0
 14 15  1  0  0  0  0
 14 16  2  0  0  0  0
 17 18  2  0  0  0  0
 17 19  1  0  0  0  0
 19 20  1  0  0  0  0
 19 21  1  0  0  0  0
 21 22  1  0  0  0  0
 21 23  1  0  0  0  0
 21 24  1  0  0  0  0
M  CHG  1  15  -1
M  END
$$$$

  -OEChem-01062216073D

 24 23  0     1  0  0  0  0  0999 V2000
   -2.5768   -3.4090    1.4665 H   0  0  0  0  0  0  0  0  0  0  0  0
   -2.5795   -2.3327    1.2734 C   0  0  0  0  0  0  0  0  0  0  0  0
   -2.4505   -1.8087    2.2249 H   0  0  0  0  0  0  0  0  0  0  0  0
   -3.5393   -2.0506    0.8349 H   0  0  0  0  0  0  0  0  0  0  0  0
   -1.4441   -1.9697    0.3346 C   0  0  0  0  0  0  0  0  0  0  0  0
   -0.8703   -2.8322   -0.3158 O   0  0  0  0  0  0  0  0  0  0  0  0
   -1.2377   -0.6645   -0.0491 N   0  0  0  0  0  0  0  0  0  0  0  0
   -1.9936   -0.0834    0.2975 H   0  0  0  0  0  0  0  0  0  0  0  0
    0.0596    0.0112    0.1644 C   0  0  1  0  0  0  0  0  0  0  0  0
   -0.1533    0.9522    0.6829 H   0  0  0  0  0  0  0  0  0  0  0  0
    1.0873   -0.7525    1.0333 C   0  0  0  0  0  0  0  0  0  0  0  0
    1.2726   -1.7541    0.6378 H   0  0  0  0  0  0  0  0  0  0  0  0
    2.0370   -0.2123    1.0085 H   0  0  0  0  0  0  0  0  0  0  0  0
    0.6509   -0.8357    2.4969 C   0  0  0  0  0  0  0  0  0  0  0  0
   -0.0704    0.0845    2.9615 O   0  5  0  0  0  0  0  0  0  0  0  0
    1.0198   -1.8411    3.1478 O   0  0  0  0  0  0  0  0  0  0  0  0
    0.6373    0.4414   -1.1963 C   0  0  0  0  0  0  0  0  0  0  0  0
    1.0893    1.5658   -1.3869 O   0  0  0  0  0  0  0  0  0  0  0  0
    0.5993   -0.4684   -2.2357 N   0  0  0  0  0  0  0  0  0  0  0  0
    0.2310   -1.3916   -1.9987 H   0  0  0  0  0  0  0  0  0  0  0  0
    1.1397   -0.2225   -3.5623 C   0  0  0  0  0  0  0  0  0  0  0  0
    2.2138   -0.0199   -3.5051 H   0  0  0  0  0  0  0  0  0  0  0  0
    0.9853   -1.0995   -4.1976 H   0  0  0  0  0  0  0  0  0  0  0  0
    0.6398    0.6337   -4.0260 H   0  0  0  0  0  0  0  0  0  0  0  0
  1  2  1  0  0  0  0
  2  3  1  0  0  0  0
  2  4  1  0  0  0  0
  2  5  1  0  0  0  0
  5  6  2  0  0  0  0
  5  7  1  0  0  0  0
  7  8  1  0  0  0  0
  7  9  1  0  0  0  0
  9 10  1  0  0  0  0
  9 11  1  0  0  0  0
  9 17  1  0  0  0  0
 11 12  1  0  0  0  0
 11 13  1  0  0  0  0
 11 14  1  0  0  0  0
 14 15  1  0  0  0  0
 14 16  2  0  0  0  0
 17 18  2  0  0  0  0
 17 19  1  0  0  0  0
 19 20  1  0  0  0  0
 19 21  1  0  0  0  0
 21 22  1  0  0  0  0
 21 23  1  0  0  0  0
 21 24  1  0  0  0  0
M  CHG  1  15  -1
M  END
$$$$

  -OEChem-01062216073D

 24 23  0     1  0  0  0  0  0999 V2000
   -2.5365   -3.4322    1.5153 H   0  0  0  0  0  0  0  0  0  0  0  0
   -2.5419   -2.3529    1.3410 C   0  0  0  0  0  0  0  0  0  0  0  0
   -2.3524   -1.8465    2.2921 H   0  0  0  0  0  0  0  0  0  0  0  0
   -3.5236   -2.0560    0.9656 H   0  0  0  0  0  0  0  0  0  0  0  0
   -1.4619   -1.9817    0.3420 C   0  0  0  0  0  0  0  0  0  0  0  0
   -0.9330   -2.8355   -0.3553 O   0  0  0  0  0  0  0  0  0  0  0  0
   -1.2763   -0.6735   -0.0417 N   0  0  0  0  0  0  0  0  0  0  0  0
   -2.0268   -0.1046    0.3358 H   0  0  0  0  0  0  0  0  0  0  0  0
    0.0180    0.0165    0.1536 C   0  0  1  0  0  0  0  0  0  0  0  0
   -0.1987    0.9540    0.6764 H   0  0  0  0  0  0  0  0  0  0  0  0
    1.0559   -0.7451    1.0121 C   0  0  0  0  0  0  0  0  0  0  0  0
    1.2388   -1.7458    0.6123 H   0  0  0  0  0  0  0  0  0  0  0  0
    2.0045   -0.2028    0.9798 H   0  0  0  0  0  0  0  0  0  0  0  0
    0.6324   -0.8310    2.4796 C   0  0  0  0  0  0  0  0  0  0  0  0
   -0.0875    0.0867    2.9516 O   0  5  0  0  0  0  0  0  0  0  0  0
    0.9961   -1.8439    3.1216 O   0  0  0  0  0  0  0  0  0  0  0  0
    0.5878    0.4655   -1.2074 C   0  0  0  0  0  0  0  0  0  0  0  0
    1.2699    1.4786   -1.3207 O   0  0  0  0  0  0  0  0  0  0  0  0
    0.2882   -0.2826   -2.3308 N   0  0  0  0  0  0  0  0  0  0  0  0
   -0.1696   -1.1750   -2.1391 H   0  0  0  0  0  0  0  0  0  0  0  0
    0.8821   -0.0527   -3.6378 C   0  0  0  0  0  0  0  0  0  0  0  0
    1.9652   -0.2059   -3.5964 H   0  0  0  0  0  0  0  0  0  0  0  0
    0.4591   -0.7480   -4.3688 H   0  0  0  0  0  0  0  0  0  0  0  0
    0.6806    0.9687   -3.9760 H   0  0  0  0  0  0  0  0  0  0  0  0
  1  2  1  0  0  0  0
  2  3  1  0  0  0  0
  2  4  1  0  0  0  0
  2  5  1  0  0  0  0
  5  6  2  0  0  0  0
  5  7  1  0  0  0  0
  7  8  1  0  0  0  0
  7  9  1  0  0  0  0
  9 10  1  0  0  0  0
  9 11  1  0  0  0  0
  9 17  1  0  0  0  0
 11 12  1  0  0  0  0
 11 13  1  0  0  0  0
 11 14  1  0  0  0  0
 14 15  1  0  0  0  0
 14 16  2  0  0  0  0
 17 18  2  0  0  0  0
 17 19  1  0  0  0  0
 19 20  1  0  0  0  0
 19 21  1  0  0  0  0
 21 22  1  0  0  0  0
 21 23  1  0  0  0  0
 21 24  1  0  0  0  0
M  CHG  1  15  -1
M  END
$$$$

  -OEChem-01062216073D

 24 23  0     1  0  0  0  0  0999 V2000
   -2.4856   -3.4412    1.5712 H   0  0  0  0  0  0  0  0  0  0  0  0
   -2.5177   -2.3663    1.3737 C   0  0  0  0  0  0  0  0  0  0  0  0
   -2.3200   -1.8363    2.3101 H   0  0  0  0  0  0  0  0  0  0  0  0
   -3.5130   -2.0979    1.0128 H   0  0  0  0  0  0  0  0  0  0  0  0
   -1.4662   -1.9951    0.3444 C   0  0  0  0  0  0  0  0  0  0  0  0
   -0.9681   -2.8488   -0.3743 O   0  0  0  0  0  0  0  0  0  0  0  0
   -1.2846   -0.6844   -0.0352 N   0  0  0  0  0  0  0  0  0  0  0  0
   -2.0290   -0.1201    0.3614 H   0  0  0  0  0  0  0  0  0  0  0  0
    0.0106    0.0089    0.1533 C   0  0  1  0  0  0  0  0  0  0  0  0
   -0.2078    0.9452    0.6771 H   0  0  0  0  0  0  0  0  0  0  0  0
    1.0426   -0.7569    1.0163 C   0  0  0  0  0  0  0  0  0  0  0  0
    1.2198   -1.7595    0.6188 H   0  0  0  0  0  0  0  0  0  0  0  0
    1.9952   -0.2219    0.9862 H   0  0  0  0  0  0  0  0  0  0  0  0
    0.6142   -0.8347    2.4830 C   0  0  0  0  0  0  0  0  0  0  0  0
   -0.1012    0.0893    2.9499 O   0  5  0  0  0  0  0  0  0  0  0  0
    0.9593   -1.8532    3.1264 O   0  0  0  0  0  0  0  0  0  0  0  0
    0.5857    0.4738   -1.2030 C   0  0  0  0  0  0  0  0  0  0  0  0
    1.4500    1.3414   -1.2717 O   0  0  0  0  0  0  0  0  0  0  0  0
    0.0636   -0.0480   -2.3726 N   0  0  0  0  0  0  0  0  0  0  0  0
   -0.5158   -0.8764   -2.2391 H   0  0  0  0  0  0  0  0  0  0  0  0
    0.6240    0.2166   -3.6886 C   0  0  0  0  0  0  0  0  0  0  0  0
    1.6478   -0.1658   -3.7506 H   0  0  0  0  0  0  0  0  0  0  0  0
    0.0205   -0.2740   -4.4579 H   0  0  0  0  0  0  0  0  0  0  0  0
    0.6340    1.2921   -3.8925 H   0  0  0  0  0  0  0  0  0  0  0  0
  1  2  1  0  0  0  0
  2  3  1  0  0  0  0
  2  4  1  0  0  0  0
  2  5  1  0  0  0  0
  5  6  2  0  0  0  0
  5  7  1  0  0  0  0
  7  8  1  0  0  0  0
  7  9  1  0  0  0  0
  9 10  1  0  0  0  0
  9 11  1  0  0  0  0
  9 17  1  0  0  0  0
 11 12  1  0  0  0  0
 11 13  1  0  0  0  0
 11 14  1  0  0  0  0
 14 15  1  0  0  0  0
 14 16  2  0  0  0  0
 17 18  2  0  0  0  0
 17 19  1  0  0  0  0
 19 20  1  0  0  0  0
 19 21  1  0  0  0  0
 21 22  1  0  0  0  0
 21 23  1  0  0  0  0
 21 24  1  0  0  0  0
M  CHG  1  15  -1
M  END
$$$$

  -OEChem-01062216073D

 24 23  0     1  0  0  0  0  0999 V2000
   -2.4770   -3.4715    1.5402 H   0  0  0  0  0  0  0  0  0  0  0  0
   -2.4912   -2.3906    1.3756 C   0  0  0  0  0  0  0  0  0  0  0  0
   -2.2647   -1.8931    2.3232 H   0  0  0  0  0  0  0  0  0  0  0  0
   -3.4878   -2.0922    1.0431 H   0  0  0  0  0  0  0  0  0  0  0  0
   -1.4523   -2.0091    0.3371 C   0  0  0  0  0  0  0  0  0  0  0  0
   -0.9561   -2.8591   -0.3865 O   0  0  0  0  0  0  0  0  0  0  0  0
   -1.2793   -0.6937   -0.0322 N   0  0  0  0  0  0  0  0  0  0  0  0
   -2.0197   -0.1386    0.3848 H   0  0  0  0  0  0  0  0  0  0  0  0
    0.0153    0.0030    0.1541 C   0  0  1  0  0  0  0  0  0  0  0  0
   -0.2079    0.9382    0.6777 H   0  0  0  0  0  0  0  0  0  0  0  0
    1.0419   -0.7606    1.0283 C   0  0  0  0  0  0  0  0  0  0  0  0
    1.2201   -1.7662    0.6388 H   0  0  0  0  0  0  0  0  0  0  0  0
    1.9966   -0.2295    1.0029 H   0  0  0  0  0  0  0  0  0  0  0  0
    0.6026   -0.8255    2.4927 C   0  0  0  0  0  0  0  0  0  0  0  0
   -0.1132    0.1050    2.9465 O   0  5  0  0  0  0  0  0  0  0  0  0
    0.9334   -1.8426    3.1456 O   0  0  0  0  0  0  0  0  0  0  0  0
    0.5878    0.4871   -1.1990 C   0  0  0  0  0  0  0  0  0  0  0  0
    1.6033    1.1722   -1.2626 O   0  0  0  0  0  0  0  0  0  0  0  0
   -0.1163    0.2348   -2.3630 N   0  0  0  0  0  0  0  0  0  0  0  0
   -0.8301   -0.4849   -2.2673 H   0  0  0  0  0  0  0  0  0  0  0  0
    0.4027    0.5331   -3.6891 C   0  0  0  0  0  0  0  0  0  0  0  0
    1.3137   -0.0430   -3.8802 H   0  0  0  0  0  0  0  0  0  0  0  0
   -0.3402    0.2737   -4.4490 H   0  0  0  0  0  0  0  0  0  0  0  0
    0.6314    1.5996   -3.7812 H   0  0  0  0  0  0  0  0  0  0  0  0
  1  2  1  0  0  0  0
  2  3  1  0  0  0  0
  2  4  1  0  0  0  0
  2  5  1  0  0  0  0
  5  6  2  0  0  0  0
  5  7  1  0  0  0  0
  7  8  1  0  0  0  0
  7  9  1  0  0  0  0
  9 10  1  0  0  0  0
  9 11  1  0  0  0  0
  9 17  1  0  0  0  0
 11 12  1  0  0  0  0
 11 13  1  0  0  0  0
 11 14  1  0  0  0  0
 14 15  1  0  0  0  0
 14 16  2  0  0  0  0
 17 18  2  0  0  0  0
 17 19  1  0  0  0  0
 19 20  1  0  0  0  0
 19 21  1  0  0  0  0
 21 22  1  0  0  0  0
 21 23  1  0  0  0  0
 21 24  1  0  0  0  0
M  CHG  1  15  -1
M  END
$$$$

  -OEChem-01062216073D

 24 23  0     1  0  0  0  0  0999 V2000
   -2.4761   -3.4848    1.5200 H   0  0  0  0  0  0  0  0  0  0  0  0
   -2.4901   -2.4046    1.3515 C   0  0  0  0  0  0  0  0  0  0  0  0
   -2.2818   -1.9035    2.3016 H   0  0  0  0  0  0  0  0  0  0  0  0
   -3.4813   -2.1102    0.9999 H   0  0  0  0  0  0  0  0  0  0  0  0
   -1.4345   -2.0230    0.3299 C   0  0  0  0  0  0  0  0  0  0  0  0
   -0.9224   -2.8769   -0.3772 O   0  0  0  0  0  0  0  0  0  0  0  0
   -1.2584   -0.7045   -0.0309 N   0  0  0  0  0  0  0  0  0  0  0  0
   -1.9936   -0.1528    0.3999 H   0  0  0  0  0  0  0  0  0  0  0  0
    0.0392   -0.0120    0.1518 C   0  0  1  0  0  0  0  0  0  0  0  0
   -0.1838    0.9252    0.6711 H   0  0  0  0  0  0  0  0  0  0  0  0
    1.0548   -0.7733    1.0424 C   0  0  0  0  0  0  0  0  0  0  0  0
    1.2285   -1.7847    0.6667 H   0  0  0  0  0  0  0  0  0  0  0  0
    2.0141   -0.2508    1.0196 H   0  0  0  0  0  0  0  0  0  0  0  0
    0.6041   -0.8152    2.5045 C   0  0  0  0  0  0  0  0  0  0  0  0
   -0.1074    0.1275    2.9407 O   0  5  0  0  0  0  0  0  0  0  0  0
    0.9180   -1.8275    3.1730 O   0  0  0  0  0  0  0  0  0  0  0  0
    0.6084    0.4827   -1.2005 C   0  0  0  0  0  0  0  0  0  0  0  0
    1.7345    0.9590   -1.2996 O   0  0  0  0  0  0  0  0  0  0  0  0
   -0.2223    0.5276   -2.3067 N   0  0  0  0  0  0  0  0  0  0  0  0
   -1.0579   -0.0453   -2.2231 H   0  0  0  0  0  0  0  0  0  0  0  0
    0.2419    0.8950   -3.6363 C   0  0  0  0  0  0  0  0  0  0  0  0
    1.0126    0.1967   -3.9781 H   0  0  0  0  0  0  0  0  0  0  0  0
   -0.5911    0.8692   -4.3447 H   0  0  0  0  0  0  0  0  0  0  0  0
    0.6580    1.9075   -3.6308 H   0  0  0  0  0  0  0  0  0  0  0  0
  1  2  1  0  0  0  0
  2  3  1  0  0  0  0
  2  4  1  0  0  0  0
  2  5  1  0  0  0  0
  5  6  2  0  0  0  0
  5  7  1  0  0  0  0
  7  8  1  0  0  0  0
  7  9  1  0  0  0  0
  9 10  1  0  0  0  0
  9 11  1  0  0  0  0
  9 17  1  0  0  0  0
 11 12  1  0  0  0  0
 11 13  1  0  0  0  0
 11 14  1  0  0  0  0
 14 15  1  0  0  0  0
 14 16  2  0  0  0  0
 17 18  2  0  0  0  0
 17 19  1  0  0  0  0
 19 20  1  0  0  0  0
 19 21  1  0  0  0  0
 21 22  1  0  0  0  0
 21 23  1  0  0  0  0
 21 24  1  0  0  0  0
M  CHG  1  15  -1
M  END
$$$$

  -OEChem-01062216073D

 24 23  0     1  0  0  0  0  0999 V2000
   -2.4690   -3.5008    1.4771 H   0  0  0  0  0  0  0  0  0  0  0  0
   -2.4785   -2.4191    1.3181 C   0  0  0  0  0  0  0  0  0  0  0  0
   -2.2730   -1.9268    2.2733 H   0  0  0  0  0  0  0  0  0  0  0  0
   -3.4671   -2.1184    0.9648 H   0  0  0  0  0  0  0  0  0  0  0  0
   -1.4164   -2.0323    0.3052 C   0  0  0  0  0  0  0  0  0  0  0  0
   -0.8899   -2.8863   -0.3909 O   0  0  0  0  0  0  0  0  0  0  0  0
   -1.2396   -0.7105   -0.0450 N   0  0  0  0  0  0  0  0  0  0  0  0
   -1.9743   -0.1646    0.3936 H   0  0  0  0  0  0  0  0  0  0  0  0
    0.0580   -0.0218    0.1465 C   0  0  1  0  0  0  0  0  0  0  0  0
   -0.1682    0.9161    0.6626 H   0  0  0  0  0  0  0  0  0  0  0  0
    1.0615   -0.7801    1.0548 C   0  0  0  0  0  0  0  0  0  0  0  0
    1.2374   -1.7949    0.6893 H   0  0  0  0  0  0  0  0  0  0  0  0
    2.0224   -0.2602    1.0407 H   0  0  0  0  0  0  0  0  0  0  0  0
    0.5925   -0.8078    2.5119 C   0  0  0  0  0  0  0  0  0  0  0  0
   -0.1208    0.1419    2.9306 O   0  5  0  0  0  0  0  0  0  0  0  0
    0.8950   -1.8142    3.1945 O   0  0  0  0  0  0  0  0  0  0  0  0
    0.6279    0.4818   -1.2023 C   0  0  0  0  0  0  0  0  0  0  0  0
    1.8193    0.7219   -1.3687 O   0  0  0  0  0  0  0  0  0  0  0  0
   -0.2546    0.8315   -2.2101 N   0  0  0  0  0  0  0  0  0  0  0  0
   -1.1909    0.4538   -2.1020 H   0  0  0  0  0  0  0  0  0  0  0  0
    0.1767    1.2590   -3.5330 C   0  0  0  0  0  0  0  0  0  0  0  0
    0.7597    0.4697   -4.0185 H   0  0  0  0  0  0  0  0  0  0  0  0
   -0.6934    1.4832   -4.1568 H   0  0  0  0  0  0  0  0  0  0  0  0
    0.7918    2.1619   -3.4621 H   0  0  0  0  0  0  0  0  0  0  0  0
  1  2  1  0  0  0  0
  2  3  1  0  0  0  0
  2  4  1  0  0  0  0
  2  5  1  0  0  0  0
  5  6  2  0  0  0  0
  5  7  1  0  0  0  0
  7  8  1  0  0  0  0
  7  9  1  0  0  0  0
  9 10  1  0  0  0  0
  9 11  1  0  0  0  0
  9 17  1  0  0  0  0
 11 12  1  0  0  0  0
 11 13  1  0  0  0  0
 11 14  1  0  0  0  0
 14 15  1  0  0  0  0
 14 16  2  0  0  0  0
 17 18  2  0  0  0  0
 17 19  1  0  0  0  0
 19 20  1  0  0  0  0
 19 21  1  0  0  0  0
 21 22  1  0  0  0  0
 21 23  1  0  0  0  0
 21 24  1  0  0  0  0
M  CHG  1  15  -1
M  END
$$$$

  -OEChem-01062216073D

 24 23  0     1  0  0  0  0  0999 V2000
   -2.4830   -3.5037    1.4421 H   0  0  0  0  0  0  0  0  0  0  0  0
   -2.4800   -2.4210    1.2890 C   0  0  0  0  0  0  0  0  0  0  0  0
   -2.2766   -1.9364    2.2485 H   0  0  0  0  0  0  0  0  0  0  0  0
   -3.4627   -2.1080    0.9296 H   0  0  0  0  0  0  0  0  0  0  0  0
   -1.4065   -2.0392    0.2861 C   0  0  0  0  0  0  0  0  0  0  0  0
   -0.8680   -2.8987   -0.3935 O   0  0  0  0  0  0  0  0  0  0  0  0
   -1.2247   -0.7170   -0.0606 N   0  0  0  0  0  0  0  0  0  0  0  0
   -1.9612   -0.1726    0.3759 H   0  0  0  0  0  0  0  0  0  0  0  0
    0.0725   -0.0316    0.1370 C   0  0  1  0  0  0  0  0  0  0  0  0
   -0.1554    0.9075    0.6499 H   0  0  0  0  0  0  0  0  0  0  0  0
    1.0685   -0.7845    1.0580 C   0  0  0  0  0  0  0  0  0  0  0  0
    1.2469   -1.8019    0.7012 H   0  0  0  0  0  0  0  0  0  0  0  0
    2.0295   -0.2645    1.0463 H   0  0  0  0  0  0  0  0  0  0  0  0
    0.5886   -0.8006    2.5121 C   0  0  0  0  0  0  0  0  0  0  0  0
   -0.1266    0.1540    2.9169 O   0  5  0  0  0  0  0  0  0  0  0  0
    0.8897   -1.7978    3.2084 O   0  0  0  0  0  0  0  0  0  0  0  0
    0.6448    0.4720   -1.2103 C   0  0  0  0  0  0  0  0  0  0  0  0
    1.8434    0.4652   -1.4709 O   0  0  0  0  0  0  0  0  0  0  0  0
   -0.2084    1.1136   -2.0926 N   0  0  0  0  0  0  0  0  0  0  0  0
   -1.1981    0.9727   -1.9204 H   0  0  0  0  0  0  0  0  0  0  0  0
    0.2132    1.6007   -3.3980 C   0  0  0  0  0  0  0  0  0  0  0  0
    0.6068    0.7787   -4.0046 H   0  0  0  0  0  0  0  0  0  0  0  0
   -0.6359    2.0462   -3.9246 H   0  0  0  0  0  0  0  0  0  0  0  0
    0.9901    2.3641   -3.2883 H   0  0  0  0  0  0  0  0  0  0  0  0
  1  2  1  0  0  0  0
  2  3  1  0  0  0  0
  2  4  1  0  0  0  0
  2  5  1  0  0  0  0
  5  6  2  0  0  0  0
  5  7  1  0  0  0  0
  7  8  1  0  0  0  0
  7  9  1  0  0  0  0
  9 10  1  0  0  0  0
  9 11  1  0  0  0  0
  9 17  1  0  0  0  0
 11 12  1  0  0  0  0
 11 13  1  0  0  0  0
 11 14  1  0  0  0  0
 14 15  1  0  0  0  0
 14 16  2  0  0  0  0
 17 18  2  0  0  0  0
 17 19  1  0  0  0  0
 19 20  1  0  0  0  0
 19 21  1  0  0  0  0
 21 22  1  0  0  0  0
 21 23  1  0  0  0  0
 21 24  1  0  0  0  0
M  CHG  1  15  -1
M  END
$$$$

  -OEChem-01062216073D

 24 23  0     1  0  0  0  0  0999 V2000
   -2.4832   -3.5065    1.4383 H   0  0  0  0  0  0  0  0  0  0  0  0
   -2.4937   -2.4276    1.2608 C   0  0  0  0  0  0  0  0  0  0  0  0
   -2.3208   -1.9180    2.2133 H   0  0  0  0  0  0  0  0  0  0  0  0
   -3.4725   -2.1396    0.8712 H   0  0  0  0  0  0  0  0  0  0  0  0
   -1.4027   -2.0511    0.2748 C   0  0  0  0  0  0  0  0  0  0  0  0
   -0.8421   -2.9179   -0.3766 O   0  0  0  0  0  0  0  0  0  0  0  0
   -1.2196   -0.7295   -0.0751 N   0  0  0  0  0  0  0  0  0  0  0  0
   -1.9644   -0.1833    0.3434 H   0  0  0  0  0  0  0  0  0  0  0  0
    0.0760   -0.0433    0.1224 C   0  0  1  0  0  0  0  0  0  0  0  0
   -0.1557    0.8968    0.6314 H   0  0  0  0  0  0  0  0  0  0  0  0
    1.0708   -0.7832    1.0541 C   0  0  0  0  0  0  0  0  0  0  0  0
    1.2519   -1.8040    0.7090 H   0  0  0  0  0  0  0  0  0  0  0  0
    2.0303   -0.2607    1.0357 H   0  0  0  0  0  0  0  0  0  0  0  0
    0.5878   -0.7854    2.5075 C   0  0  0  0  0  0  0  0  0  0  0  0
   -0.1307    0.1724    2.8998 O   0  5  0  0  0  0  0  0  0  0  0  0
    0.8999   -1.7675    3.2202 O   0  0  0  0  0  0  0  0  0  0  0  0
    0.6545    0.4592   -1.2219 C   0  0  0  0  0  0  0  0  0  0  0  0
    1.7929    0.2029   -1.5994 O   0  0  0  0  0  0  0  0  0  0  0  0
   -0.0869    1.3629   -1.9654 N   0  0  0  0  0  0  0  0  0  0  0  0
   -1.0474    1.5056   -1.6743 H   0  0  0  0  0  0  0  0  0  0  0  0
    0.3530    1.9055   -3.2427 C   0  0  0  0  0  0  0  0  0  0  0  0
    0.5328    1.0977   -3.9596 H   0  0  0  0  0  0  0  0  0  0  0  0
   -0.4135    2.5695   -3.6529 H   0  0  0  0  0  0  0  0  0  0  0  0
    1.2765    2.4797   -3.1164 H   0  0  0  0  0  0  0  0  0  0  0  0
  1  2  1  0  0  0  0
  2  3  1  0  0  0  0
  2  4  1  0  0  0  0
  2  5  1  0  0  0  0
  5  6  2  0  0  0  0
  5  7  1  0  0  0  0
  7  8  1  0  0  0  0
  7  9  1  0  0  0  0
  9 10  1  0  0  0  0
  9 11  1  0  0  0  0
  9 17  1  0  0  0  0
 11 12  1  0  0  0  0
 11 13  1  0  0  0  0
 11 14  1  0  0  0  0
 14 15  1  0  0  0  0
 14 16  2  0  0  0  0
 17 18  2  0  0  0  0
 17 19  1  0  0  0  0
 19 20  1  0  0  0  0
 19 21  1  0  0  0  0
 21 22  1  0  0  0  0
 21 23  1  0  0  0  0
 21 24  1  0  0  0  0
M  CHG  1  15  -1
M  END
$$$$

  -OEChem-01062216073D

 24 23  0     1  0  0  0  0  0999 V2000
   -2.5273   -3.5102    1.4230 H   0  0  0  0  0  0  0  0  0  0  0  0
   -2.5277   -2.4329    1.2357 C   0  0  0  0  0  0  0  0  0  0  0  0
   -2.3801   -1.9151    2.1879 H   0  0  0  0  0  0  0  0  0  0  0  0
   -3.4933   -2.1444    0.8149 H   0  0  0  0  0  0  0  0  0  0  0  0
   -1.4071   -2.0693    0.2790 C   0  0  0  0  0  0  0  0  0  0  0  0
   -0.8134   -2.9491   -0.3233 O   0  0  0  0  0  0  0  0  0  0  0  0
   -1.2226   -0.7511   -0.0834 N   0  0  0  0  0  0  0  0  0  0  0  0
   -1.9759   -0.1974    0.3081 H   0  0  0  0  0  0  0  0  0  0  0  0
    0.0706   -0.0583    0.1000 C   0  0  1  0  0  0  0  0  0  0  0  0
   -0.1680    0.8834    0.6022 H   0  0  0  0  0  0  0  0  0  0  0  0
    1.0768   -0.7736    1.0373 C   0  0  0  0  0  0  0  0  0  0  0  0
    1.2627   -1.7993    0.7091 H   0  0  0  0  0  0  0  0  0  0  0  0
    2.0319   -0.2443    0.9999 H   0  0  0  0  0  0  0  0  0  0  0  0
    0.6052   -0.7557    2.4945 C   0  0  0  0  0  0  0  0  0  0  0  0
   -0.1184    0.2034    2.8754 O   0  5  0  0  0  0  0  0  0  0  0  0
    0.9508   -1.7102    3.2289 O   0  0  0  0  0  0  0  0  0  0  0  0
    0.6495    0.4370   -1.2462 C   0  0  0  0  0  0  0  0  0  0  0  0
    1.6607   -0.0340   -1.7549 O   0  0  0  0  0  0  0  0  0  0  0  0
    0.0809    1.5511   -1.8427 N   0  0  0  0  0  0  0  0  0  0  0  0
   -0.7370    1.9467   -1.3927 H   0  0  0  0  0  0  0  0  0  0  0  0
    0.5783    2.1547   -3.0705 C   0  0  0  0  0  0  0  0  0  0  0  0
    0.5512    1.4304   -3.8911 H   0  0  0  0  0  0  0  0  0  0  0  0
   -0.0422    3.0129   -3.3451 H   0  0  0  0  0  0  0  0  0  0  0  0
    1.6081    2.5011   -2.9361 H   0  0  0  0  0  0  0  0  0  0  0  0
  1  2  1  0  0  0  0
  2  3  1  0  0  0  0
  2  4  1  0  0  0  0
  2  5  1  0  0  0  0
  5  6  2  0  0  0  0
  5  7  1  0  0  0  0
  7  8  1  0  0  0  0
  7  9  1  0  0  0  0
  9 10  1  0  0  0  0
  9 11  1  0  0  0  0
  9 17  1  0  0  0  0
 11 12  1  0  0  0  0
 11 13  1  0  0  0  0
 11 14  1  0  0  0  0
 14 15  1  0  0  0  0
 14 16  2  0  0  0  0
 17 18  2  0  0  0  0
 17 19  1  0  0  0  0
 19 20  1  0  0  0  0
 19 21  1  0  0  0  0
 21 22  1  0  0  0  0
 21 23  1  0  0  0  0
 21 24  1  0  0  0  0
M  CHG  1  15  -1
M  END
$$$$

  -OEChem-01062216073D

 24 23  0     1  0  0  0  0  0999 V2000
   -2.5869   -3.5088    1.3955 H   0  0  0  0  0  0  0  0  0  0  0  0
   -2.5827   -2.4342    1.1929 C   0  0  0  0  0  0  0  0  0  0  0  0
   -2.4900   -1.9013    2.1435 H   0  0  0  0  0  0  0  0  0  0  0  0
   -3.5251   -2.1574    0.7153 H   0  0  0  0  0  0  0  0  0  0  0  0
   -1.4136   -2.0773    0.2933 C   0  0  0  0  0  0  0  0  0  0  0  0
   -0.7767   -2.9663   -0.2476 O   0  0  0  0  0  0  0  0  0  0  0  0
   -1.2234   -0.7606   -0.0738 N   0  0  0  0  0  0  0  0  0  0  0  0
   -1.9850   -0.1989    0.2881 H   0  0  0  0  0  0  0  0  0  0  0  0
    0.0690   -0.0623    0.0893 C   0  0  1  0  0  0  0  0  0  0  0  0
   -0.1770    0.8764    0.5927 H   0  0  0  0  0  0  0  0  0  0  0  0
    1.0954   -0.7574    1.0181 C   0  0  0  0  0  0  0  0  0  0  0  0
    1.2844   -1.7850    0.6984 H   0  0  0  0  0  0  0  0  0  0  0  0
    2.0453   -0.2208    0.9575 H   0  0  0  0  0  0  0  0  0  0  0  0
    0.6491   -0.7288    2.4832 C   0  0  0  0  0  0  0  0  0  0  0  0
   -0.0768    0.2280    2.8656 O   0  5  0  0  0  0  0  0  0  0  0  0
    1.0369   -1.6582    3.2285 O   0  0  0  0  0  0  0  0  0  0  0  0
    0.6426    0.4355   -1.2579 C   0  0  0  0  0  0  0  0  0  0  0  0
    1.4502   -0.2070   -1.9191 O   0  0  0  0  0  0  0  0  0  0  0  0
    0.3024    1.7041   -1.7004 N   0  0  0  0  0  0  0  0  0  0  0  0
   -0.2998    2.2552   -1.0982 H   0  0  0  0  0  0  0  0  0  0  0  0
    0.8549    2.3156   -2.9003 C   0  0  0  0  0  0  0  0  0  0  0  0
    0.6327    1.7018   -3.7794 H   0  0  0  0  0  0  0  0  0  0  0  0
    0.4177    3.3068   -3.0518 H   0  0  0  0  0  0  0  0  0  0  0  0
    1.9403    2.4248   -2.8084 H   0  0  0  0  0  0  0  0  0  0  0  0
  1  2  1  0  0  0  0
  2  3  1  0  0  0  0
  2  4  1  0  0  0  0
  2  5  1  0  0  0  0
  5  6  2  0  0  0  0
  5  7  1  0  0  0  0
  7  8  1  0  0  0  0
  7  9  1  0  0  0  0
  9 10  1  0  0  0  0
  9 11  1  0  0  0  0
  9 17  1  0  0  0  0
 11 12  1  0  0  0  0
 11 13  1  0  0  0  0
 11 14  1  0  0  0  0
 14 15  1  0  0  0  0
 14 16  2  0  0  0  0
 17 18  2  0  0  0  0
 17 19  1  0  0  0  0
 19 20  1  0  0  0  0
 19 21  1  0  0  0  0
 21 22  1  0  0  0  0
 21 23  1  0  0  0  0
 21 24  1  0  0  0  0
M  CHG  1  15  -1
M  END
$$$$

  -OEChem-01062216073D

 24 23  0     1  0  0  0  0  0999 V2000
   -2.6943   -3.5036    1.3184 H   0  0  0  0  0  0  0  0  0  0  0  0
   -2.6732   -2.4323    1.1000 C   0  0  0  0  0  0  0  0  0  0  0  0
   -2.6875   -1.8839    2.0460 H   0  0  0  0  0  0  0  0  0  0  0  0
   -3.5592   -2.1703    0.5176 H   0  0  0  0  0  0  0  0  0  0  0  0
   -1.4155   -2.0813    0.3260 C   0  0  0  0  0  0  0  0  0  0  0  0
   -0.7094   -2.9803   -0.0996 O   0  0  0  0  0  0  0  0  0  0  0  0
   -1.2062   -0.7664   -0.0392 N   0  0  0  0  0  0  0  0  0  0  0  0
   -1.9801   -0.1906    0.2695 H   0  0  0  0  0  0  0  0  0  0  0  0
    0.0881   -0.0670    0.0999 C   0  0  1  0  0  0  0  0  0  0  0  0
   -0.1672    0.8690    0.6030 H   0  0  0  0  0  0  0  0  0  0  0  0
    1.1409   -0.7355    1.0174 C   0  0  0  0  0  0  0  0  0  0  0  0
    1.3362   -1.7648    0.7091 H   0  0  0  0  0  0  0  0  0  0  0  0
    2.0826   -0.1889    0.9275 H   0  0  0  0  0  0  0  0  0  0  0  0
    0.7317   -0.6924    2.4928 C   0  0  0  0  0  0  0  0  0  0  0  0
    0.0043    0.2617    2.8796 O   0  5  0  0  0  0  0  0  0  0  0  0
    1.1845   -1.5828    3.2493 O   0  0  0  0  0  0  0  0  0  0  0  0
    0.6533    0.4369   -1.2482 C   0  0  0  0  0  0  0  0  0  0  0  0
    1.1509   -0.3089   -2.0833 O   0  0  0  0  0  0  0  0  0  0  0  0
    0.5848    1.7901   -1.5404 N   0  0  0  0  0  0  0  0  0  0  0  0
    0.2592    2.4019   -0.7987 H   0  0  0  0  0  0  0  0  0  0  0  0
    1.1363    2.3808   -2.7514 C   0  0  0  0  0  0  0  0  0  0  0  0
    0.6703    1.9397   -3.6385 H   0  0  0  0  0  0  0  0  0  0  0  0
    0.9480    3.4584   -2.7627 H   0  0  0  0  0  0  0  0  0  0  0  0
    2.2176    2.2162   -2.7993 H   0  0  0  0  0  0  0  0  0  0  0  0
  1  2  1  0  0  0  0
  2  3  1  0  0  0  0
  2  4  1  0  0  0  0
  2  5  1  0  0  0  0
  5  6  2  0  0  0  0
  5  7  1  0  0  0  0
  7  8  1  0  0  0  0
  7  9  1  0  0  0  0
  9 10  1  0  0  0  0
  9 11  1  0  0  0  0
  9 17  1  0  0  0  0
 11 12  1  0  0  0  0
 11 13  1  0  0  0  0
 11 14  1  0  0  0  0
 14 15  1  0  0  0  0
 14 16  2  0  0  0  0
 17 18  2  0  0  0  0
 17 19  1  0  0  0  0
 19 20  1  0  0  0  0
 19 21  1  0  0  0  0
 21 22  1  0  0  0  0
 21 23  1  0  0  0  0
 21 24  1  0  0  0  0
M  CHG  1  15  -1
M  END
$$$$

  -OEChem-01062216073D

 24 23  0     1  0  0  0  0  0999 V2000
   -2.8075   -3.4935    1.2349 H   0  0  0  0  0  0  0  0  0  0  0  0
   -2.7628   -2.4266    0.9986 C   0  0  0  0  0  0  0  0  0  0  0  0
   -2.8947   -1.8583    1.9231 H   0  0  0  0  0  0  0  0  0  0  0  0
   -3.5720   -2.1820    0.3069 H   0  0  0  0  0  0  0  0  0  0  0  0
   -1.4214   -2.0845    0.3750 C   0  0  0  0  0  0  0  0  0  0  0  0
   -0.6594   -2.9916    0.0859 O   0  0  0  0  0  0  0  0  0  0  0  0
   -1.1829   -0.7747    0.0075 N   0  0  0  0  0  0  0  0  0  0  0  0
   -1.9674   -0.1798    0.2430 H   0  0  0  0  0  0  0  0  0  0  0  0
    0.1165   -0.0794    0.1168 C   0  0  1  0  0  0  0  0  0  0  0  0
   -0.1434    0.8591    0.6130 H   0  0  0  0  0  0  0  0  0  0  0  0
    1.1951   -0.7197    1.0240 C   0  0  0  0  0  0  0  0  0  0  0  0
    1.3934   -1.7528    0.7318 H   0  0  0  0  0  0  0  0  0  0  0  0
    2.1299   -0.1674    0.9013 H   0  0  0  0  0  0  0  0  0  0  0  0
    0.8271   -0.6511    2.5088 C   0  0  0  0  0  0  0  0  0  0  0  0
    0.1029    0.3049    2.8966 O   0  5  0  0  0  0  0  0  0  0  0  0
    1.3426   -1.4988    3.2745 O   0  0  0  0  0  0  0  0  0  0  0  0
    0.6716    0.4227   -1.2360 C   0  0  0  0  0  0  0  0  0  0  0  0
    0.8079   -0.3064   -2.2117 O   0  0  0  0  0  0  0  0  0  0  0  0
    0.9000    1.7795   -1.4001 N   0  0  0  0  0  0  0  0  0  0  0  0
    0.8506    2.3524   -0.5626 H   0  0  0  0  0  0  0  0  0  0  0  0
    1.4236    2.3656   -2.6255 C   0  0  0  0  0  0  0  0  0  0  0  0
    0.7480    2.1665   -3.4637 H   0  0  0  0  0  0  0  0  0  0  0  0
    1.5212    3.4491   -2.5111 H   0  0  0  0  0  0  0  0  0  0  0  0
    2.4096    1.9501   -2.8574 H   0  0  0  0  0  0  0  0  0  0  0  0
  1  2  1  0  0  0  0
  2  3  1  0  0  0  0
  2  4  1  0  0  0  0
  2  5  1  0  0  0  0
  5  6  2  0  0  0  0
  5  7  1  0  0  0  0
  7  8  1  0  0  0  0
  7  9  1  0  0  0  0
  9 10  1  0  0  0  0
  9 11  1  0  0  0  0
  9 17  1  0  0  0  0
 11 12  1  0  0  0  0
 11 13  1  0  0  0  0
 11 14  1  0  0  0  0
 14 15  1  0  0  0  0
 14 16  2  0  0  0  0
 17 18  2  0  0  0  0
 17 19  1  0  0  0  0
 19 20  1  0  0  0  0
 19 21  1  0  0  0  0
 21 22  1  0  0  0  0
 21 23  1  0  0  0  0
 21 24  1  0  0  0  0
M  CHG  1  15  -1
M  END
$$$$

  -OEChem-01062216073D

 24 23  0     1  0  0  0  0  0999 V2000
   -2.8656   -3.4779    1.2081 H   0  0  0  0  0  0  0  0  0  0  0  0
   -2.8108   -2.4183    0.9432 C   0  0  0  0  0  0  0  0  0  0  0  0
   -3.0164   -1.8235    1.8370 H   0  0  0  0  0  0  0  0  0  0  0  0
   -3.5667   -2.2028    0.1846 H   0  0  0  0  0  0  0  0  0  0  0  0
   -1.4287   -2.0825    0.4119 C   0  0  0  0  0  0  0  0  0  0  0  0
   -0.6436   -2.9930    0.2069 O   0  0  0  0  0  0  0  0  0  0  0  0
   -1.1698   -0.7791    0.0362 N   0  0  0  0  0  0  0  0  0  0  0  0
   -1.9605   -0.1708    0.2070 H   0  0  0  0  0  0  0  0  0  0  0  0
    0.1339   -0.0886    0.1244 C   0  0  1  0  0  0  0  0  0  0  0  0
   -0.1224    0.8558    0.6121 H   0  0  0  0  0  0  0  0  0  0  0  0
    1.2266   -0.7164    1.0246 C   0  0  0  0  0  0  0  0  0  0  0  0
    1.4214   -1.7527    0.7421 H   0  0  0  0  0  0  0  0  0  0  0  0
    2.1598   -0.1664    0.8817 H   0  0  0  0  0  0  0  0  0  0  0  0
    0.8859   -0.6315    2.5144 C   0  0  0  0  0  0  0  0  0  0  0  0
    0.1681    0.3284    2.9035 O   0  5  0  0  0  0  0  0  0  0  0  0
    1.4372   -1.4547    3.2819 O   0  0  0  0  0  0  0  0  0  0  0  0
    0.6842    0.4044   -1.2330 C   0  0  0  0  0  0  0  0  0  0  0  0
    0.5124   -0.2064   -2.2826 O   0  0  0  0  0  0  0  0  0  0  0  0
    1.2114    1.6832   -1.3034 N   0  0  0  0  0  0  0  0  0  0  0  0
    1.3788    2.1529   -0.4176 H   0  0  0  0  0  0  0  0  0  0  0  0
    1.7269    2.2785   -2.5273 C   0  0  0  0  0  0  0  0  0  0  0  0
    0.9327    2.3611   -3.2762 H   0  0  0  0  0  0  0  0  0  0  0  0
    2.1139    3.2809   -2.3220 H   0  0  0  0  0  0  0  0  0  0  0  0
    2.5394    1.6694   -2.9364 H   0  0  0  0  0  0  0  0  0  0  0  0
  1  2  1  0  0  0  0
  2  3  1  0  0  0  0
  2  4  1  0  0  0  0
  2  5  1  0  0  0  0
  5  6  2  0  0  0  0
  5  7  1  0  0  0  0
  7  8  1  0  0  0  0
  7  9  1  0  0  0  0
  9 10  1  0  0  0  0
  9 11  1  0  0  0  0
  9 17  1  0  0  0  0
 11 12  1  0  0  0  0
 11 13  1  0  0  0  0
 11 14  1  0  0  0  0
 14 15  1  0  0  0  0
 14 16  2  0  0  0  0
 17 18  2  0  0  0  0
 17 19  1  0  0  0  0
 19 20  1  0  0  0  0
 19 21  1  0  0  0  0
 21 22  1  0  0  0  0
 21 23  1  0  0  0  0
 21 24  1  0  0  0  0
M  CHG  1  15  -1
M  END
$$$$

  -OEChem-01062216073D

 24 23  0     1  0  0  0  0  0999 V2000
   -2.8927   -3.4684    1.1923 H   0  0  0  0  0  0  0  0  0  0  0  0
   -2.8280   -2.4088    0.9297 C   0  0  0  0  0  0  0  0  0  0  0  0
   -3.0541   -1.8146    1.8189 H   0  0  0  0  0  0  0  0  0  0  0  0
   -3.5654   -2.1905    0.1537 H   0  0  0  0  0  0  0  0  0  0  0  0
   -1.4326   -2.0764    0.4314 C   0  0  0  0  0  0  0  0  0  0  0  0
   -0.6434   -2.9886    0.2502 O   0  0  0  0  0  0  0  0  0  0  0  0
   -1.1646   -0.7766    0.0504 N   0  0  0  0  0  0  0  0  0  0  0  0
   -1.9589   -0.1640    0.1853 H   0  0  0  0  0  0  0  0  0  0  0  0
    0.1393   -0.0846    0.1308 C   0  0  1  0  0  0  0  0  0  0  0  0
   -0.1085    0.8633    0.6167 H   0  0  0  0  0  0  0  0  0  0  0  0
    1.2384   -0.7180    1.0220 C   0  0  0  0  0  0  0  0  0  0  0  0
    1.4308   -1.7528    0.7331 H   0  0  0  0  0  0  0  0  0  0  0  0
    2.1722   -0.1699    0.8784 H   0  0  0  0  0  0  0  0  0  0  0  0
    0.9104   -0.6408    2.5146 C   0  0  0  0  0  0  0  0  0  0  0  0
    0.1969    0.3172    2.9144 O   0  5  0  0  0  0  0  0  0  0  0  0
    1.4790   -1.4606    3.2733 O   0  0  0  0  0  0  0  0  0  0  0  0
    0.6842    0.4001   -1.2322 C   0  0  0  0  0  0  0  0  0  0  0  0
    0.2844   -0.0444   -2.3040 O   0  0  0  0  0  0  0  0  0  0  0  0
    1.4847    1.5296   -1.2551 N   0  0  0  0  0  0  0  0  0  0  0  0
    1.8155    1.8674   -0.3550 H   0  0  0  0  0  0  0  0  0  0  0  0
    2.0268    2.1132   -2.4731 C   0  0  0  0  0  0  0  0  0  0  0  0
    1.2175    2.4424   -3.1328 H   0  0  0  0  0  0  0  0  0  0  0  0
    2.6484    2.9798   -2.2294 H   0  0  0  0  0  0  0  0  0  0  0  0
    2.6441    1.3823   -3.0055 H   0  0  0  0  0  0  0  0  0  0  0  0
  1  2  1  0  0  0  0
  2  3  1  0  0  0  0
  2  4  1  0  0  0  0
  2  5  1  0  0  0  0
  5  6  2  0  0  0  0
  5  7  1  0  0  0  0
  7  8  1  0  0  0  0
  7  9  1  0  0  0  0
  9 10  1  0  0  0  0
  9 11  1  0  0  0  0
  9 17  1  0  0  0  0
 11 12  1  0  0  0  0
 11 13  1  0  0  0  0
 11 14  1  0  0  0  0
 14 15  1  0  0  0  0
 14 16  2  0  0  0  0
 17 18  2  0  0  0  0
 17 19  1  0  0  0  0
 19 20  1  0  0  0  0
 19 21  1  0  0  0  0
 21 22  1  0  0  0  0
 21 23  1  0  0  0  0
 21 24  1  0  0  0  0
M  CHG  1  15  -1
M  END
$$$$

  -OEChem-01062216073D

 24 23  0     1  0  0  0  0  0999 V2000
   -2.8928   -3.4580    1.1898 H   0  0  0  0  0  0  0  0  0  0  0  0
   -2.8206   -2.3955    0.9412 C   0  0  0  0  0  0  0  0  0  0  0  0
   -3.0281   -1.8113    1.8415 H   0  0  0  0  0  0  0  0  0  0  0  0
   -3.5657   -2.1585    0.1781 H   0  0  0  0  0  0  0  0  0  0  0  0
   -1.4285   -2.0706    0.4294 C   0  0  0  0  0  0  0  0  0  0  0  0
   -0.6476   -2.9871    0.2314 O   0  0  0  0  0  0  0  0  0  0  0  0
   -1.1547   -0.7726    0.0471 N   0  0  0  0  0  0  0  0  0  0  0  0
   -1.9491   -0.1573    0.1698 H   0  0  0  0  0  0  0  0  0  0  0  0
    0.1486   -0.0795    0.1358 C   0  0  1  0  0  0  0  0  0  0  0  0
   -0.0896    0.8717    0.6203 H   0  0  0  0  0  0  0  0  0  0  0  0
    1.2358   -0.7311    1.0320 C   0  0  0  0  0  0  0  0  0  0  0  0
    1.4230   -1.7645    0.7346 H   0  0  0  0  0  0  0  0  0  0  0  0
    2.1770   -0.1919    0.9084 H   0  0  0  0  0  0  0  0  0  0  0  0
    0.8932   -0.6658    2.5215 C   0  0  0  0  0  0  0  0  0  0  0  0
    0.1833    0.2929    2.9247 O   0  5  0  0  0  0  0  0  0  0  0  0
    1.4485   -1.4983    3.2762 O   0  0  0  0  0  0  0  0  0  0  0  0
    0.6941    0.3962   -1.2319 C   0  0  0  0  0  0  0  0  0  0  0  0
    0.1227    0.1516   -2.2910 O   0  0  0  0  0  0  0  0  0  0  0  0
    1.7290    1.3158   -1.2530 N   0  0  0  0  0  0  0  0  0  0  0  0
    2.1842    1.5049   -0.3639 H   0  0  0  0  0  0  0  0  0  0  0  0
    2.2833    1.8894   -2.4702 C   0  0  0  0  0  0  0  0  0  0  0  0
    1.5178    2.4578   -3.0081 H   0  0  0  0  0  0  0  0  0  0  0  0
    3.1072    2.5659   -2.2242 H   0  0  0  0  0  0  0  0  0  0  0  0
    2.6661    1.1001   -3.1252 H   0  0  0  0  0  0  0  0  0  0  0  0
  1  2  1  0  0  0  0
  2  3  1  0  0  0  0
  2  4  1  0  0  0  0
  2  5  1  0  0  0  0
  5  6  2  0  0  0  0
  5  7  1  0  0  0  0
  7  8  1  0  0  0  0
  7  9  1  0  0  0  0
  9 10  1  0  0  0  0
  9 11  1  0  0  0  0
  9 17  1  0  0  0  0
 11 12  1  0  0  0  0
 11 13  1  0  0  0  0
 11 14  1  0  0  0  0
 14 15  1  0  0  0  0
 14 16  2  0  0  0  0
 17 18  2  0  0  0  0
 17 19  1  0  0  0  0
 19 20  1  0  0  0  0
 19 21  1  0  0  0  0
 21 22  1  0  0  0  0
 21 23  1  0  0  0  0
 21 24  1  0  0  0  0
M  CHG  1  15  -1
M  END
$$$$

  -OEChem-01062216073D

 24 23  0     1  0  0  0  0  0999 V2000
   -3.0705   -3.3739    1.0507 H   0  0  0  0  0  0  0  0  0  0  0  0
   -2.9392   -2.3411    0.7157 C   0  0  0  0  0  0  0  0  0  0  0  0
   -3.3756   -1.6738    1.4632 H   0  0  0  0  0  0  0  0  0  0  0  0
   -3.4610   -2.2077   -0.2350 H   0  0  0  0  0  0  0  0  0  0  0  0
   -1.4626   -2.0290    0.5456 C   0  0  0  0  0  0  0  0  0  0  0  0
   -0.6701   -2.9525    0.5906 O   0  0  0  0  0  0  0  0  0  0  0  0
   -1.1112   -0.7454    0.1772 N   0  0  0  0  0  0  0  0  0  0  0  0
   -1.8987   -0.1378   -0.0150 H   0  0  0  0  0  0  0  0  0  0  0  0
    0.1946   -0.0525    0.2462 C   0  0  1  0  0  0  0  0  0  0  0  0
    0.0524    0.7498    0.9766 H   0  0  0  0  0  0  0  0  0  0  0  0
    1.4255   -0.8519    0.7529 C   0  0  0  0  0  0  0  0  0  0  0  0
    1.5418   -1.7665    0.1664 H   0  0  0  0  0  0  0  0  0  0  0  0
    2.3337   -0.2620    0.6198 H   0  0  0  0  0  0  0  0  0  0  0  0
    1.3635   -1.1999    2.2415 C   0  0  0  0  0  0  0  0  0  0  0  0
    0.7281   -0.4186    2.9986 O   0  5  0  0  0  0  0  0  0  0  0  0
    2.1579   -2.0838    2.6460 O   0  0  0  0  0  0  0  0  0  0  0  0
    0.4841    0.7104   -1.0700 C   0  0  0  0  0  0  0  0  0  0  0  0
   -0.3860    0.8474   -1.9283 O   0  0  0  0  0  0  0  0  0  0  0  0
    1.6584    1.4278   -1.2174 N   0  0  0  0  0  0  0  0  0  0  0  0
    2.3604    1.2997   -0.4931 H   0  0  0  0  0  0  0  0  0  0  0  0
    1.9889    2.2173   -2.3944 C   0  0  0  0  0  0  0  0  0  0  0  0
    1.2626    3.0249   -2.5301 H   0  0  0  0  0  0  0  0  0  0  0  0
    2.9823    2.6612   -2.2808 H   0  0  0  0  0  0  0  0  0  0  0  0
    1.9912    1.5868   -3.2894 H   0  0  0  0  0  0  0  0  0  0  0  0
  1  2  1  0  0  0  0
  2  3  1  0  0  0  0
  2  4  1  0  0  0  0
  2  5  1  0  0  0  0
  5  6  2  0  0  0  0
  5  7  1  0  0  0  0
  7  8  1  0  0  0  0
  7  9  1  0  0  0  0
  9 10  1  0  0  0  0
  9 11  1  0  0  0  0
  9 17  1  0  0  0  0
 11 12  1  0  0  0  0
 11 13  1  0  0  0  0
 11 14  1  0  0  0  0
 14 15  1  0  0  0  0
 14 16  2  0  0  0  0
 17 18  2  0  0  0  0
 17 19  1  0  0  0  0
 19 20  1  0  0  0  0
 19 21  1  0  0  0  0
 21 22  1  0  0  0  0
 21 23  1  0  0  0  0
 21 24  1  0  0  0  0
M  CHG  1  15  -1
M  END
$$$$

  -OEChem-01062216073D

 24 23  0     1  0  0  0  0  0999 V2000
   -3.0415   -3.3921    1.0237 H   0  0  0  0  0  0  0  0  0  0  0  0
   -2.9145   -2.3375    0.7633 C   0  0  0  0  0  0  0  0  0  0  0  0
   -3.2720   -1.7267    1.5960 H   0  0  0  0  0  0  0  0  0  0  0  0
   -3.5099   -2.1179   -0.1262 H   0  0  0  0  0  0  0  0  0  0  0  0
   -1.4500   -2.0359    0.4972 C   0  0  0  0  0  0  0  0  0  0  0  0
   -0.6665   -2.9674    0.4461 O   0  0  0  0  0  0  0  0  0  0  0  0
   -1.1061   -0.7486    0.1364 N   0  0  0  0  0  0  0  0  0  0  0  0
   -1.8980   -0.1257    0.0286 H   0  0  0  0  0  0  0  0  0  0  0  0
    0.1968   -0.0547    0.2363 C   0  0  1  0  0  0  0  0  0  0  0  0
    0.0437    0.7492    0.9627 H   0  0  0  0  0  0  0  0  0  0  0  0
    1.4115   -0.8620    0.7726 C   0  0  0  0  0  0  0  0  0  0  0  0
    1.5462   -1.7737    0.1857 H   0  0  0  0  0  0  0  0  0  0  0  0
    2.3237   -0.2719    0.6752 H   0  0  0  0  0  0  0  0  0  0  0  0
    1.3048   -1.2116    2.2582 C   0  0  0  0  0  0  0  0  0  0  0  0
    0.6526   -0.4302    3.0001 O   0  5  0  0  0  0  0  0  0  0  0  0
    2.0686   -2.1132    2.6811 O   0  0  0  0  0  0  0  0  0  0  0  0
    0.4977    0.7067   -1.0794 C   0  0  0  0  0  0  0  0  0  0  0  0
   -0.4162    1.0350   -1.8343 O   0  0  0  0  0  0  0  0  0  0  0  0
    1.7694    1.1748   -1.3609 N   0  0  0  0  0  0  0  0  0  0  0  0
    2.5103    0.8754   -0.7325 H   0  0  0  0  0  0  0  0  0  0  0  0
    2.1148    1.9281   -2.5570 C   0  0  0  0  0  0  0  0  0  0  0  0
    1.5451    2.8619   -2.5986 H   0  0  0  0  0  0  0  0  0  0  0  0
    3.1806    2.1739   -2.5500 H   0  0  0  0  0  0  0  0  0  0  0  0
    1.8997    1.3397   -3.4547 H   0  0  0  0  0  0  0  0  0  0  0  0
  1  2  1  0  0  0  0
  2  3  1  0  0  0  0
  2  4  1  0  0  0  0
  2  5  1  0  0  0  0
  5  6  2  0  0  0  0
  5  7  1  0  0  0  0
  7  8  1  0  0  0  0
  7  9  1  0  0  0  0
  9 10  1  0  0  0  0
  9 11  1  0  0  0  0
  9 17  1  0  0  0  0
 11 12  1  0  0  0  0
 11 13  1  0  0  0  0
 11 14  1  0  0  0  0
 14 15  1  0  0  0  0
 14 16  2  0  0  0  0
 17 18  2  0  0  0  0
 17 19  1  0  0  0  0
 19 20  1  0  0  0  0
 19 21  1  0  0  0  0
 21 22  1  0  0  0  0
 21 23  1  0  0  0  0
 21 24  1  0  0  0  0
M  CHG  1  15  -1
M  END
$$$$

  -OEChem-01062216073D

 24 23  0     1  0  0  0  0  0999 V2000
   -2.9892   -3.3983    1.0691 H   0  0  0  0  0  0  0  0  0  0  0  0
   -2.8785   -2.3377    0.8262 C   0  0  0  0  0  0  0  0  0  0  0  0
   -3.1591   -1.7475    1.7024 H   0  0  0  0  0  0  0  0  0  0  0  0
   -3.5466   -2.0919   -0.0026 H   0  0  0  0  0  0  0  0  0  0  0  0
   -1.4407   -2.0353    0.4434 C   0  0  0  0  0  0  0  0  0  0  0  0
   -0.6728   -2.9667    0.2740 O   0  0  0  0  0  0  0  0  0  0  0  0
   -1.1142   -0.7421    0.0891 N   0  0  0  0  0  0  0  0  0  0  0  0
   -1.9076   -0.1118    0.0839 H   0  0  0  0  0  0  0  0  0  0  0  0
    0.1861   -0.0506    0.2223 C   0  0  1  0  0  0  0  0  0  0  0  0
    0.0218    0.7510    0.9491 H   0  0  0  0  0  0  0  0  0  0  0  0
    1.3874   -0.8644    0.7784 C   0  0  0  0  0  0  0  0  0  0  0  0
    1.5421   -1.7694    0.1861 H   0  0  0  0  0  0  0  0  0  0  0  0
    2.2982   -0.2666    0.7129 H   0  0  0  0  0  0  0  0  0  0  0  0
    1.2423   -1.2248    2.2579 C   0  0  0  0  0  0  0  0  0  0  0  0
    0.5739   -0.4497    2.9914 O   0  5  0  0  0  0  0  0  0  0  0  0
    1.9729   -2.1496    2.6881 O   0  0  0  0  0  0  0  0  0  0  0  0
    0.5049    0.7131   -1.0870 C   0  0  0  0  0  0  0  0  0  0  0  0
   -0.4017    1.2335   -1.7346 O   0  0  0  0  0  0  0  0  0  0  0  0
    1.8078    0.9201   -1.5058 N   0  0  0  0  0  0  0  0  0  0  0  0
    2.5298    0.4290   -0.9850 H   0  0  0  0  0  0  0  0  0  0  0  0
    2.1677    1.6197   -2.7300 C   0  0  0  0  0  0  0  0  0  0  0  0
    1.7820    2.6440   -2.7129 H   0  0  0  0  0  0  0  0  0  0  0  0
    3.2562    1.6625   -2.8305 H   0  0  0  0  0  0  0  0  0  0  0  0
    1.7581    1.0997   -3.6018 H   0  0  0  0  0  0  0  0  0  0  0  0
  1  2  1  0  0  0  0
  2  3  1  0  0  0  0
  2  4  1  0  0  0  0
  2  5  1  0  0  0  0
  5  6  2  0  0  0  0
  5  7  1  0  0  0  0
  7  8  1  0  0  0  0
  7  9  1  0  0  0  0
  9 10  1  0  0  0  0
  9 11  1  0  0  0  0
  9 17  1  0  0  0  0
 11 12  1  0  0  0  0
 11 13  1  0  0  0  0
 11 14  1  0  0  0  0
 14 15  1  0  0  0  0
 14 16  2  0  0  0  0
 17 18  2  0  0  0  0
 17 19  1  0  0  0  0
 19 20  1  0  0  0  0
 19 21  1  0  0  0  0
 21 22  1  0  0  0  0
 21 23  1  0  0  0  0
 21 24  1  0  0  0  0
M  CHG  1  15  -1
M  END
$$$$

  -OEChem-01062216073D

 24 23  0     1  0  0  0  0  0999 V2000
   -2.8978   -3.3957    1.1962 H   0  0  0  0  0  0  0  0  0  0  0  0
   -2.8297   -2.3423    0.9103 C   0  0  0  0  0  0  0  0  0  0  0  0
   -3.0400   -1.7283    1.7899 H   0  0  0  0  0  0  0  0  0  0  0  0
   -3.5745   -2.1339    0.1387 H   0  0  0  0  0  0  0  0  0  0  0  0
   -1.4379   -2.0316    0.3898 C   0  0  0  0  0  0  0  0  0  0  0  0
   -0.6989   -2.9564    0.0961 O   0  0  0  0  0  0  0  0  0  0  0  0
   -1.1354   -0.7333    0.0345 N   0  0  0  0  0  0  0  0  0  0  0  0
   -1.9263   -0.1063    0.1261 H   0  0  0  0  0  0  0  0  0  0  0  0
    0.1629   -0.0456    0.1966 C   0  0  1  0  0  0  0  0  0  0  0  0
   -0.0108    0.7539    0.9235 H   0  0  0  0  0  0  0  0  0  0  0  0
    1.3514   -0.8668    0.7680 C   0  0  0  0  0  0  0  0  0  0  0  0
    1.5171   -1.7681    0.1732 H   0  0  0  0  0  0  0  0  0  0  0  0
    2.2620   -0.2656    0.7209 H   0  0  0  0  0  0  0  0  0  0  0  0
    1.1755   -1.2380    2.2413 C   0  0  0  0  0  0  0  0  0  0  0  0
    0.4950   -0.4682    2.9687 O   0  5  0  0  0  0  0  0  0  0  0  0
    1.8704   -2.1885    2.6736 O   0  0  0  0  0  0  0  0  0  0  0  0
    0.5067    0.7190   -1.1033 C   0  0  0  0  0  0  0  0  0  0  0  0
   -0.3423    1.4233   -1.6455 O   0  0  0  0  0  0  0  0  0  0  0  0
    1.7733    0.6661   -1.6582 N   0  0  0  0  0  0  0  0  0  0  0  0
    2.4219    0.0103   -1.2297 H   0  0  0  0  0  0  0  0  0  0  0  0
    2.1463    1.3266   -2.8996 C   0  0  0  0  0  0  0  0  0  0  0  0
    2.0110    2.4094   -2.8122 H   0  0  0  0  0  0  0  0  0  0  0  0
    3.1973    1.1271   -3.1286 H   0  0  0  0  0  0  0  0  0  0  0  0
    1.5338    0.9574   -3.7282 H   0  0  0  0  0  0  0  0  0  0  0  0
  1  2  1  0  0  0  0
  2  3  1  0  0  0  0
  2  4  1  0  0  0  0
  2  5  1  0  0  0  0
  5  6  2  0  0  0  0
  5  7  1  0  0  0  0
  7  8  1  0  0  0  0
  7  9  1  0  0  0  0
  9 10  1  0  0  0  0
  9 11  1  0  0  0  0
  9 17  1  0  0  0  0
 11 12  1  0  0  0  0
 11 13  1  0  0  0  0
 11 14  1  0  0  0  0
 14 15  1  0  0  0  0
 14 16  2  0  0  0  0
 17 18  2  0  0  0  0
 17 19  1  0  0  0  0
 19 20  1  0  0  0  0
 19 21  1  0  0  0  0
 21 22  1  0  0  0  0
 21 23  1  0  0  0  0
 21 24  1  0  0  0  0
M  CHG  1  15  -1
M  END
$$$$

  -OEChem-01062216073D

 24 23  0     1  0  0  0  0  0999 V2000
   -2.8390   -3.4050    1.2054 H   0  0  0  0  0  0  0  0  0  0  0  0
   -2.7764   -2.3380    0.9744 C   0  0  0  0  0  0  0  0  0  0  0  0
   -2.8919   -1.7730    1.9032 H   0  0  0  0  0  0  0  0  0  0  0  0
   -3.5849   -2.0738    0.2888 H   0  0  0  0  0  0  0  0  0  0  0  0
   -1.4326   -2.0182    0.3455 C   0  0  0  0  0  0  0  0  0  0  0  0
   -0.7278   -2.9321   -0.0511 O   0  0  0  0  0  0  0  0  0  0  0  0
   -1.1509   -0.7154   -0.0078 N   0  0  0  0  0  0  0  0  0  0  0  0
   -1.9380   -0.0976    0.1531 H   0  0  0  0  0  0  0  0  0  0  0  0
    0.1431   -0.0303    0.1865 C   0  0  1  0  0  0  0  0  0  0  0  0
   -0.0410    0.7633    0.9180 H   0  0  0  0  0  0  0  0  0  0  0  0
    1.3201   -0.8614    0.7645 C   0  0  0  0  0  0  0  0  0  0  0  0
    1.4929   -1.7561    0.1620 H   0  0  0  0  0  0  0  0  0  0  0  0
    2.2313   -0.2588    0.7333 H   0  0  0  0  0  0  0  0  0  0  0  0
    1.1162   -1.2545    2.2284 C   0  0  0  0  0  0  0  0  0  0  0  0
    0.4236   -0.4960    2.9558 O   0  5  0  0  0  0  0  0  0  0  0  0
    1.7770   -2.2323    2.6526 O   0  0  0  0  0  0  0  0  0  0  0  0
    0.5126    0.7368   -1.1020 C   0  0  0  0  0  0  0  0  0  0  0  0
   -0.2437    1.5978   -1.5451 O   0  0  0  0  0  0  0  0  0  0  0  0
    1.6759    0.4489   -1.7934 N   0  0  0  0  0  0  0  0  0  0  0  0
    2.2105   -0.3458   -1.4507 H   0  0  0  0  0  0  0  0  0  0  0  0
    2.0225    1.0384   -3.0773 C   0  0  0  0  0  0  0  0  0  0  0  0
    2.0889    2.1277   -2.9929 H   0  0  0  0  0  0  0  0  0  0  0  0
    2.9913    0.6588   -3.4150 H   0  0  0  0  0  0  0  0  0  0  0  0
    1.2685    0.7853   -3.8293 H   0  0  0  0  0  0  0  0  0  0  0  0
  1  2  1  0  0  0  0
  2  3  1  0  0  0  0
  2  4  1  0  0  0  0
  2  5  1  0  0  0  0
  5  6  2  0  0  0  0
  5  7  1  0  0  0  0
  7  8  1  0  0  0  0
  7  9  1  0  0  0  0
  9 10  1  0  0  0  0
  9 11  1  0  0  0  0
  9 17  1  0  0  0  0
 11 12  1  0  0  0  0
 11 13  1  0  0  0  0
 11 14  1  0  0  0  0
 14 15  1  0  0  0  0
 14 16  2  0  0  0  0
 17 18  2  0  0  0  0
 17 19  1  0  0  0  0
 19 20  1  0  0  0  0
 19 21  1  0  0  0  0
 21 22  1  0  0  0  0
 21 23  1  0  0  0  0
 21 24  1  0  0  0  0
M  CHG  1  15  -1
M  END
$$$$

  -OEChem-01062216073D

 24 23  0     1  0  0  0  0  0999 V2000
   -2.7611   -3.4120    1.2669 H   0  0  0  0  0  0  0  0  0  0  0  0
   -2.7037   -2.3369    1.0753 C   0  0  0  0  0  0  0  0  0  0  0  0
   -2.6914   -1.8123    2.0347 H   0  0  0  0  0  0  0  0  0  0  0  0
   -3.5845   -2.0289    0.5074 H   0  0  0  0  0  0  0  0  0  0  0  0
   -1.4393   -2.0111    0.3015 C   0  0  0  0  0  0  0  0  0  0  0  0
   -0.7866   -2.9140   -0.1982 O   0  0  0  0  0  0  0  0  0  0  0  0
   -1.1828   -0.7070   -0.0634 N   0  0  0  0  0  0  0  0  0  0  0  0
   -1.9654   -0.1015    0.1562 H   0  0  0  0  0  0  0  0  0  0  0  0
    0.1064   -0.0222    0.1579 C   0  0  1  0  0  0  0  0  0  0  0  0
   -0.0878    0.7694    0.8893 H   0  0  0  0  0  0  0  0  0  0  0  0
    1.2710   -0.8614    0.7470 C   0  0  0  0  0  0  0  0  0  0  0  0
    1.4495   -1.7530    0.1413 H   0  0  0  0  0  0  0  0  0  0  0  0
    2.1840   -0.2611    0.7291 H   0  0  0  0  0  0  0  0  0  0  0  0
    1.0389   -1.2674    2.2030 C   0  0  0  0  0  0  0  0  0  0  0  0
    0.3352   -0.5144    2.9250 O   0  5  0  0  0  0  0  0  0  0  0  0
    1.6622   -2.2709    2.6228 O   0  0  0  0  0  0  0  0  0  0  0  0
    0.5079    0.7390   -1.1218 C   0  0  0  0  0  0  0  0  0  0  0  0
   -0.1037    1.7485   -1.4609 O   0  0  0  0  0  0  0  0  0  0  0  0
    1.5081    0.2492   -1.9418 N   0  0  0  0  0  0  0  0  0  0  0  0
    1.8902   -0.6572   -1.6814 H   0  0  0  0  0  0  0  0  0  0  0  0
    1.8519    0.8221   -3.2338 C   0  0  0  0  0  0  0  0  0  0  0  0
    2.1374    1.8730   -3.1226 H   0  0  0  0  0  0  0  0  0  0  0  0
    2.6954    0.2800   -3.6713 H   0  0  0  0  0  0  0  0  0  0  0  0
    1.0013    0.7552   -3.9194 H   0  0  0  0  0  0  0  0  0  0  0  0
  1  2  1  0  0  0  0
  2  3  1  0  0  0  0
  2  4  1  0  0  0  0
  2  5  1  0  0  0  0
  5  6  2  0  0  0  0
  5  7  1  0  0  0  0
  7  8  1  0  0  0  0
  7  9  1  0  0  0  0
  9 10  1  0  0  0  0
  9 11  1  0  0  0  0
  9 17  1  0  0  0  0
 11 12  1  0  0  0  0
 11 13  1  0  0  0  0
 11 14  1  0  0  0  0
 14 15  1  0  0  0  0
 14 16  2  0  0  0  0
 17 18  2  0  0  0  0
 17 19  1  0  0  0  0
 19 20  1  0  0  0  0
 19 21  1  0  0  0  0
 21 22  1  0  0  0  0
 21 23  1  0  0  0  0
 21 24  1  0  0  0  0
M  CHG  1  15  -1
M  END
$$$$

  -OEChem-01062216073D

 24 23  0     1  0  0  0  0  0999 V2000
   -2.6890   -3.4108    1.3223 H   0  0  0  0  0  0  0  0  0  0  0  0
   -2.6462   -2.3339    1.1377 C   0  0  0  0  0  0  0  0  0  0  0  0
   -2.5615   -1.8195    2.0991 H   0  0  0  0  0  0  0  0  0  0  0  0
   -3.5663   -2.0200    0.6402 H   0  0  0  0  0  0  0  0  0  0  0  0
   -1.4425   -2.0003    0.2760 C   0  0  0  0  0  0  0  0  0  0  0  0
   -0.8338   -2.8918   -0.2958 O   0  0  0  0  0  0  0  0  0  0  0  0
   -1.2027   -0.6958   -0.0959 N   0  0  0  0  0  0  0  0  0  0  0  0
   -1.9820   -0.1005    0.1605 H   0  0  0  0  0  0  0  0  0  0  0  0
    0.0825   -0.0121    0.1488 C   0  0  1  0  0  0  0  0  0  0  0  0
   -0.1192    0.7765    0.8816 H   0  0  0  0  0  0  0  0  0  0  0  0
    1.2386   -0.8581    0.7423 C   0  0  0  0  0  0  0  0  0  0  0  0
    1.4211   -1.7449    0.1305 H   0  0  0  0  0  0  0  0  0  0  0  0
    2.1529   -0.2593    0.7375 H   0  0  0  0  0  0  0  0  0  0  0  0
    0.9856   -1.2800    2.1906 C   0  0  0  0  0  0  0  0  0  0  0  0
    0.2725   -0.5348    2.9114 O   0  5  0  0  0  0  0  0  0  0  0  0
    1.5808   -2.3037    2.6018 O   0  0  0  0  0  0  0  0  0  0  0  0
    0.5047    0.7431   -1.1256 C   0  0  0  0  0  0  0  0  0  0  0  0
    0.0772    1.8699   -1.3590 O   0  0  0  0  0  0  0  0  0  0  0  0
    1.2827    0.1025   -2.0718 N   0  0  0  0  0  0  0  0  0  0  0  0
    1.4761   -0.8806   -1.8906 H   0  0  0  0  0  0  0  0  0  0  0  0
    1.5972    0.6611   -3.3773 C   0  0  0  0  0  0  0  0  0  0  0  0
    2.1029    1.6260   -3.2688 H   0  0  0  0  0  0  0  0  0  0  0  0
    2.2602   -0.0157   -3.9244 H   0  0  0  0  0  0  0  0  0  0  0  0
    0.6830    0.8024   -3.9625 H   0  0  0  0  0  0  0  0  0  0  0  0
  1  2  1  0  0  0  0
  2  3  1  0  0  0  0
  2  4  1  0  0  0  0
  2  5  1  0  0  0  0
  5  6  2  0  0  0  0
  5  7  1  0  0  0  0
  7  8  1  0  0  0  0
  7  9  1  0  0  0  0
  9 10  1  0  0  0  0
  9 11  1  0  0  0  0
  9 17  1  0  0  0  0
 11 12  1  0  0  0  0
 11 13  1  0  0  0  0
 11 14  1  0  0  0  0
 14 15  1  0  0  0  0
 14 16  2  0  0  0  0
 17 18  2  0  0  0  0
 17 19  1  0  0  0  0
 19 20  1  0  0  0  0
 19 21  1  0  0  0  0
 21 22  1  0  0  0  0
 21 23  1  0  0  0  0
 21 24  1  0  0  0  0
M  CHG  1  15  -1
M  END
$$$$

  -OEChem-01062216073D

 24 23  0     1  0  0  0  0  0999 V2000
   -2.6402   -3.4193    1.3549 H   0  0  0  0  0  0  0  0  0  0  0  0
   -2.5992   -2.3391    1.1895 C   0  0  0  0  0  0  0  0  0  0  0  0
   -2.4525   -1.8448    2.1542 H   0  0  0  0  0  0  0  0  0  0  0  0
   -3.5450   -2.0078    0.7551 H   0  0  0  0  0  0  0  0  0  0  0  0
   -1.4459   -1.9974    0.2644 C   0  0  0  0  0  0  0  0  0  0  0  0
   -0.8750   -2.8781   -0.3610 O   0  0  0  0  0  0  0  0  0  0  0  0
   -1.2218   -0.6927   -0.1142 N   0  0  0  0  0  0  0  0  0  0  0  0
   -2.0011   -0.1080    0.1655 H   0  0  0  0  0  0  0  0  0  0  0  0
    0.0579   -0.0037    0.1459 C   0  0  1  0  0  0  0  0  0  0  0  0
   -0.1509    0.7825    0.8795 H   0  0  0  0  0  0  0  0  0  0  0  0
    1.2146   -0.8492    0.7361 C   0  0  0  0  0  0  0  0  0  0  0  0
    1.4044   -1.7279    0.1145 H   0  0  0  0  0  0  0  0  0  0  0  0
    2.1258   -0.2457    0.7422 H   0  0  0  0  0  0  0  0  0  0  0  0
    0.9531   -1.2879    2.1778 C   0  0  0  0  0  0  0  0  0  0  0  0
    0.2308   -0.5540    2.9009 O   0  5  0  0  0  0  0  0  0  0  0  0
    1.5339   -2.3238    2.5780 O   0  0  0  0  0  0  0  0  0  0  0  0
    0.4874    0.7451   -1.1279 C   0  0  0  0  0  0  0  0  0  0  0  0
    0.2921    1.9497   -1.2581 O   0  0  0  0  0  0  0  0  0  0  0  0
    0.9987    0.0169   -2.1851 N   0  0  0  0  0  0  0  0  0  0  0  0
    0.9963   -0.9949   -2.0641 H   0  0  0  0  0  0  0  0  0  0  0  0
    1.2961    0.5803   -3.4920 C   0  0  0  0  0  0  0  0  0  0  0  0
    2.0176    1.3986   -3.4009 H   0  0  0  0  0  0  0  0  0  0  0  0
    1.7259   -0.1878   -4.1418 H   0  0  0  0  0  0  0  0  0  0  0  0
    0.3829    0.9619   -3.9595 H   0  0  0  0  0  0  0  0  0  0  0  0
  1  2  1  0  0  0  0
  2  3  1  0  0  0  0
  2  4  1  0  0  0  0
  2  5  1  0  0  0  0
  5  6  2  0  0  0  0
  5  7  1  0  0  0  0
  7  8  1  0  0  0  0
  7  9  1  0  0  0  0
  9 10  1  0  0  0  0
  9 11  1  0  0  0  0
  9 17  1  0  0  0  0
 11 12  1  0  0  0  0
 11 13  1  0  0  0  0
 11 14  1  0  0  0  0
 14 15  1  0  0  0  0
 14 16  2  0  0  0  0
 17 18  2  0  0  0  0
 17 19  1  0  0  0  0
 19 20  1  0  0  0  0
 19 21  1  0  0  0  0
 21 22  1  0  0  0  0
 21 23  1  0  0  0  0
 21 24  1  0  0  0  0
M  CHG  1  15  -1
M  END
$$$$

  -OEChem-01062216073D

 24 23  0     1  0  0  0  0  0999 V2000
   -2.5751   -3.4257    1.4271 H   0  0  0  0  0  0  0  0  0  0  0  0
   -2.5628   -2.3479    1.2431 C   0  0  0  0  0  0  0  0  0  0  0  0
   -2.3895   -1.8355    2.1939 H   0  0  0  0  0  0  0  0  0  0  0  0
   -3.5309   -2.0421    0.8403 H   0  0  0  0  0  0  0  0  0  0  0  0
   -1.4528   -2.0002    0.2688 C   0  0  0  0  0  0  0  0  0  0  0  0
   -0.9251   -2.8714   -0.4061 O   0  0  0  0  0  0  0  0  0  0  0  0
   -1.2434   -0.6957   -0.1171 N   0  0  0  0  0  0  0  0  0  0  0  0
   -2.0215   -0.1205    0.1848 H   0  0  0  0  0  0  0  0  0  0  0  0
    0.0329    0.0014    0.1441 C   0  0  1  0  0  0  0  0  0  0  0  0
   -0.1782    0.7868    0.8782 H   0  0  0  0  0  0  0  0  0  0  0  0
    1.1912   -0.8442    0.7279 C   0  0  0  0  0  0  0  0  0  0  0  0
    1.3806   -1.7187    0.0999 H   0  0  0  0  0  0  0  0  0  0  0  0
    2.1014   -0.2395    0.7362 H   0  0  0  0  0  0  0  0  0  0  0  0
    0.9281   -1.2903    2.1672 C   0  0  0  0  0  0  0  0  0  0  0  0
    0.2035   -0.5605    2.8924 O   0  5  0  0  0  0  0  0  0  0  0  0
    1.4910   -2.3395    2.5578 O   0  0  0  0  0  0  0  0  0  0  0  0
    0.4610    0.7472   -1.1318 C   0  0  0  0  0  0  0  0  0  0  0  0
    0.5243    1.9716   -1.1738 O   0  0  0  0  0  0  0  0  0  0  0  0
    0.6770    0.0104   -2.2807 N   0  0  0  0  0  0  0  0  0  0  0  0
    0.5126   -0.9927   -2.2003 H   0  0  0  0  0  0  0  0  0  0  0  0
    0.9827    0.5896   -3.5787 C   0  0  0  0  0  0  0  0  0  0  0  0
    1.8858    1.2054   -3.5196 H   0  0  0  0  0  0  0  0  0  0  0  0
    1.1532   -0.2041   -4.3121 H   0  0  0  0  0  0  0  0  0  0  0  0
    0.1507    1.2110   -3.9242 H   0  0  0  0  0  0  0  0  0  0  0  0
  1  2  1  0  0  0  0
  2  3  1  0  0  0  0
  2  4  1  0  0  0  0
  2  5  1  0  0  0  0
  5  6  2  0  0  0  0
  5  7  1  0  0  0  0
  7  8  1  0  0  0  0
  7  9  1  0  0  0  0
  9 10  1  0  0  0  0
  9 11  1  0  0  0  0
  9 17  1  0  0  0  0
 11 12  1  0  0  0  0
 11 13  1  0  0  0  0
 11 14  1  0  0  0  0
 14 15  1  0  0  0  0
 14 16  2  0  0  0  0
 17 18  2  0  0  0  0
 17 19  1  0  0  0  0
 19 20  1  0  0  0  0
 19 21  1  0  0  0  0
 21 22  1  0  0  0  0
 21 23  1  0  0  0  0
 21 24  1  0  0  0  0
M  CHG  1  15  -1
M  END
$$$$

  -OEChem-01062216073D

 24 23  0     1  0  0  0  0  0999 V2000
   -2.5361   -3.4584    1.4714 H   0  0  0  0  0  0  0  0  0  0  0  0
   -2.5416   -2.3799    1.2904 C   0  0  0  0  0  0  0  0  0  0  0  0
   -2.3527   -1.8680    2.2385 H   0  0  0  0  0  0  0  0  0  0  0  0
   -3.5230   -2.0859    0.9118 H   0  0  0  0  0  0  0  0  0  0  0  0
   -1.4601   -2.0154    0.2903 C   0  0  0  0  0  0  0  0  0  0  0  0
   -0.9608   -2.8738   -0.4214 O   0  0  0  0  0  0  0  0  0  0  0  0
   -1.2755   -0.7078   -0.0972 N   0  0  0  0  0  0  0  0  0  0  0  0
   -2.0561   -0.1474    0.2256 H   0  0  0  0  0  0  0  0  0  0  0  0
   -0.0055    0.0103    0.1465 C   0  0  1  0  0  0  0  0  0  0  0  0
   -0.2170    0.7914    0.8849 H   0  0  0  0  0  0  0  0  0  0  0  0
    1.1702   -0.8236    0.7098 C   0  0  0  0  0  0  0  0  0  0  0  0
    1.3594   -1.6929    0.0746 H   0  0  0  0  0  0  0  0  0  0  0  0
    2.0737   -0.2085    0.7078 H   0  0  0  0  0  0  0  0  0  0  0  0
    0.9327   -1.2786    2.1510 C   0  0  0  0  0  0  0  0  0  0  0  0
    0.2100   -0.5601    2.8894 O   0  5  0  0  0  0  0  0  0  0  0  0
    1.5028   -2.3296    2.5263 O   0  0  0  0  0  0  0  0  0  0  0  0
    0.3990    0.7660   -1.1332 C   0  0  0  0  0  0  0  0  0  0  0  0
    0.7332    1.9457   -1.1110 O   0  0  0  0  0  0  0  0  0  0  0  0
    0.3102    0.1046   -2.3435 N   0  0  0  0  0  0  0  0  0  0  0  0
    0.0423   -0.8779   -2.2900 H   0  0  0  0  0  0  0  0  0  0  0  0
    0.6860    0.6828   -3.6234 C   0  0  0  0  0  0  0  0  0  0  0  0
    1.7434    0.9659   -3.6185 H   0  0  0  0  0  0  0  0  0  0  0  0
    0.5253   -0.0448   -4.4244 H   0  0  0  0  0  0  0  0  0  0  0  0
    0.0811    1.5704   -3.8344 H   0  0  0  0  0  0  0  0  0  0  0  0
  1  2  1  0  0  0  0
  2  3  1  0  0  0  0
  2  4  1  0  0  0  0
  2  5  1  0  0  0  0
  5  6  2  0  0  0  0
  5  7  1  0  0  0  0
  7  8  1  0  0  0  0
  7  9  1  0  0  0  0
  9 10  1  0  0  0  0
  9 11  1  0  0  0  0
  9 17  1  0  0  0  0
 11 12  1  0  0  0  0
 11 13  1  0  0  0  0
 11 14  1  0  0  0  0
 14 15  1  0  0  0  0
 14 16  2  0  0  0  0
 17 18  2  0  0  0  0
 17 19  1  0  0  0  0
 19 20  1  0  0  0  0
 19 21  1  0  0  0  0
 21 22  1  0  0  0  0
 21 23  1  0  0  0  0
 21 24  1  0  0  0  0
M  CHG  1  15  -1
M  END
$$$$

  -OEChem-01062216073D

 24 23  0     1  0  0  0  0  0999 V2000
   -2.4588   -3.4798    1.5360 H   0  0  0  0  0  0  0  0  0  0  0  0
   -2.5007   -2.4052    1.3377 C   0  0  0  0  0  0  0  0  0  0  0  0
   -2.2918   -1.8730    2.2702 H   0  0  0  0  0  0  0  0  0  0  0  0
   -3.5025   -2.1432    0.9908 H   0  0  0  0  0  0  0  0  0  0  0  0
   -1.4668   -2.0292    0.2925 C   0  0  0  0  0  0  0  0  0  0  0  0
   -1.0122   -2.8764   -0.4608 O   0  0  0  0  0  0  0  0  0  0  0  0
   -1.3014   -0.7173   -0.0893 N   0  0  0  0  0  0  0  0  0  0  0  0
   -2.0801   -0.1704    0.2599 H   0  0  0  0  0  0  0  0  0  0  0  0
   -0.0353    0.0136    0.1464 C   0  0  1  0  0  0  0  0  0  0  0  0
   -0.2502    0.7893    0.8891 H   0  0  0  0  0  0  0  0  0  0  0  0
    1.1452   -0.8187    0.7026 C   0  0  0  0  0  0  0  0  0  0  0  0
    1.3325   -1.6863    0.0642 H   0  0  0  0  0  0  0  0  0  0  0  0
    2.0482   -0.2028    0.6980 H   0  0  0  0  0  0  0  0  0  0  0  0
    0.9135   -1.2759    2.1441 C   0  0  0  0  0  0  0  0  0  0  0  0
    0.1919   -0.5594    2.8859 O   0  5  0  0  0  0  0  0  0  0  0  0
    1.4727   -2.3353    2.5119 O   0  0  0  0  0  0  0  0  0  0  0  0
    0.3636    0.7890   -1.1259 C   0  0  0  0  0  0  0  0  0  0  0  0
    0.9476    1.8657   -1.0690 O   0  0  0  0  0  0  0  0  0  0  0  0
   -0.0037    0.2833   -2.3591 N   0  0  0  0  0  0  0  0  0  0  0  0
   -0.3947   -0.6580   -2.3401 H   0  0  0  0  0  0  0  0  0  0  0  0
    0.4055    0.8628   -3.6285 C   0  0  0  0  0  0  0  0  0  0  0  0
    1.4953    0.8334   -3.7275 H   0  0  0  0  0  0  0  0  0  0  0  0
   -0.0350    0.2996   -4.4563 H   0  0  0  0  0  0  0  0  0  0  0  0
    0.0697    1.9022   -3.7012 H   0  0  0  0  0  0  0  0  0  0  0  0
  1  2  1  0  0  0  0
  2  3  1  0  0  0  0
  2  4  1  0  0  0  0
  2  5  1  0  0  0  0
  5  6  2  0  0  0  0
  5  7  1  0  0  0  0
  7  8  1  0  0  0  0
  7  9  1  0  0  0  0
  9 10  1  0  0  0  0
  9 11  1  0  0  0  0
  9 17  1  0  0  0  0
 11 12  1  0  0  0  0
 11 13  1  0  0  0  0
 11 14  1  0  0  0  0
 14 15  1  0  0  0  0
 14 16  2  0  0  0  0
 17 18  2  0  0  0  0
 17 19  1  0  0  0  0
 19 20  1  0  0  0  0
 19 21  1  0  0  0  0
 21 22  1  0  0  0  0
 21 23  1  0  0  0  0
 21 24  1  0  0  0  0
M  CHG  1  15  -1
M  END
$$$$

  -OEChem-01062216073D

 24 23  0     1  0  0  0  0  0999 V2000
   -2.4108   -3.5002    1.5530 H   0  0  0  0  0  0  0  0  0  0  0  0
   -2.4701   -2.4264    1.3554 C   0  0  0  0  0  0  0  0  0  0  0  0
   -2.2479   -1.8916    2.2832 H   0  0  0  0  0  0  0  0  0  0  0  0
   -3.4823   -2.1769    1.0302 H   0  0  0  0  0  0  0  0  0  0  0  0
   -1.4633   -2.0401    0.2877 C   0  0  0  0  0  0  0  0  0  0  0  0
   -1.0402   -2.8799   -0.4915 O   0  0  0  0  0  0  0  0  0  0  0  0
   -1.3050   -0.7241   -0.0848 N   0  0  0  0  0  0  0  0  0  0  0  0
   -2.0789   -0.1855    0.2876 H   0  0  0  0  0  0  0  0  0  0  0  0
   -0.0385    0.0101    0.1480 C   0  0  1  0  0  0  0  0  0  0  0  0
   -0.2562    0.7833    0.8924 H   0  0  0  0  0  0  0  0  0  0  0  0
    1.1360   -0.8273    0.7115 C   0  0  0  0  0  0  0  0  0  0  0  0
    1.3184   -1.6988    0.0769 H   0  0  0  0  0  0  0  0  0  0  0  0
    2.0439   -0.2186    0.7072 H   0  0  0  0  0  0  0  0  0  0  0  0
    0.8966   -1.2763    2.1546 C   0  0  0  0  0  0  0  0  0  0  0  0
    0.1772   -0.5516    2.8906 O   0  5  0  0  0  0  0  0  0  0  0  0
    1.4354   -2.3450    2.5255 O   0  0  0  0  0  0  0  0  0  0  0  0
    0.3637    0.8045   -1.1149 C   0  0  0  0  0  0  0  0  0  0  0  0
    1.1524    1.7419   -1.0620 O   0  0  0  0  0  0  0  0  0  0  0  0
   -0.2459    0.5115   -2.3217 N   0  0  0  0  0  0  0  0  0  0  0  0
   -0.7699   -0.3620   -2.3306 H   0  0  0  0  0  0  0  0  0  0  0  0
    0.1370    1.1208   -3.5860 C   0  0  0  0  0  0  0  0  0  0  0  0
    1.1770    0.8788   -3.8271 H   0  0  0  0  0  0  0  0  0  0  0  0
   -0.5034    0.7478   -4.3907 H   0  0  0  0  0  0  0  0  0  0  0  0
    0.0282    2.2088   -3.5353 H   0  0  0  0  0  0  0  0  0  0  0  0
  1  2  1  0  0  0  0
  2  3  1  0  0  0  0
  2  4  1  0  0  0  0
  2  5  1  0  0  0  0
  5  6  2  0  0  0  0
  5  7  1  0  0  0  0
  7  8  1  0  0  0  0
  7  9  1  0  0  0  0
  9 10  1  0  0  0  0
  9 11  1  0  0  0  0
  9 17  1  0  0  0  0
 11 12  1  0  0  0  0
 11 13  1  0  0  0  0
 11 14  1  0  0  0  0
 14 15  1  0  0  0  0
 14 16  2  0  0  0  0
 17 18  2  0  0  0  0
 17 19  1  0  0  0  0
 19 20  1  0  0  0  0
 19 21  1  0  0  0  0
 21 22  1  0  0  0  0
 21 23  1  0  0  0  0
 21 24  1  0  0  0  0
M  CHG  1  15  -1
M  END
$$$$

  -OEChem-01062216073D

 24 23  0     1  0  0  0  0  0999 V2000
   -2.3663   -3.5173    1.5504 H   0  0  0  0  0  0  0  0  0  0  0  0
   -2.4368   -2.4439    1.3544 C   0  0  0  0  0  0  0  0  0  0  0  0
   -2.2034   -1.9088    2.2794 H   0  0  0  0  0  0  0  0  0  0  0  0
   -3.4562   -2.2013    1.0468 H   0  0  0  0  0  0  0  0  0  0  0  0
   -1.4513   -2.0496    0.2695 C   0  0  0  0  0  0  0  0  0  0  0  0
   -1.0493   -2.8832   -0.5270 O   0  0  0  0  0  0  0  0  0  0  0  0
   -1.2972   -0.7288   -0.0896 N   0  0  0  0  0  0  0  0  0  0  0  0
   -2.0652   -0.1990    0.3076 H   0  0  0  0  0  0  0  0  0  0  0  0
   -0.0301    0.0049    0.1467 C   0  0  1  0  0  0  0  0  0  0  0  0
   -0.2526    0.7752    0.8921 H   0  0  0  0  0  0  0  0  0  0  0  0
    1.1355   -0.8387    0.7234 C   0  0  0  0  0  0  0  0  0  0  0  0
    1.3189   -1.7139    0.0942 H   0  0  0  0  0  0  0  0  0  0  0  0
    2.0482   -0.2375    0.7267 H   0  0  0  0  0  0  0  0  0  0  0  0
    0.8791   -1.2776    2.1671 C   0  0  0  0  0  0  0  0  0  0  0  0
    0.1583   -0.5428    2.8923 O   0  5  0  0  0  0  0  0  0  0  0  0
    1.3939   -2.3554    2.5456 O   0  0  0  0  0  0  0  0  0  0  0  0
    0.3745    0.8179   -1.1064 C   0  0  0  0  0  0  0  0  0  0  0  0
    1.3276    1.5894   -1.0969 O   0  0  0  0  0  0  0  0  0  0  0  0
   -0.4281    0.7750   -2.2333 N   0  0  0  0  0  0  0  0  0  0  0  0
   -1.0882    0.0006   -2.2486 H   0  0  0  0  0  0  0  0  0  0  0  0
   -0.0816    1.4267   -3.4875 C   0  0  0  0  0  0  0  0  0  0  0  0
    0.8587    1.0257   -3.8792 H   0  0  0  0  0  0  0  0  0  0  0  0
   -0.8683    1.2569   -4.2284 H   0  0  0  0  0  0  0  0  0  0  0  0
    0.0264    2.5063   -3.3414 H   0  0  0  0  0  0  0  0  0  0  0  0
  1  2  1  0  0  0  0
  2  3  1  0  0  0  0
  2  4  1  0  0  0  0
  2  5  1  0  0  0  0
  5  6  2  0  0  0  0
  5  7  1  0  0  0  0
  7  8  1  0  0  0  0
  7  9  1  0  0  0  0
  9 10  1  0  0  0  0
  9 11  1  0  0  0  0
  9 17  1  0  0  0  0
 11 12  1  0  0  0  0
 11 13  1  0  0  0  0
 11 14  1  0  0  0  0
 14 15  1  0  0  0  0
 14 16  2  0  0  0  0
 17 18  2  0  0  0  0
 17 19  1  0  0  0  0
 19 20  1  0  0  0  0
 19 21  1  0  0  0  0
 21 22  1  0  0  0  0
 21 23  1  0  0  0  0
 21 24  1  0  0  0  0
M  CHG  1  15  -1
M  END
$$$$

  -OEChem-01062216073D

 24 23  0     1  0  0  0  0  0999 V2000
   -2.3450   -3.5258    1.5236 H   0  0  0  0  0  0  0  0  0  0  0  0
   -2.4277   -2.4544    1.3219 C   0  0  0  0  0  0  0  0  0  0  0  0
   -2.2135   -1.9120    2.2473 H   0  0  0  0  0  0  0  0  0  0  0  0
   -3.4462   -2.2272    0.9996 H   0  0  0  0  0  0  0  0  0  0  0  0
   -1.4330   -2.0523    0.2483 C   0  0  0  0  0  0  0  0  0  0  0  0
   -1.0170   -2.8844   -0.5421 O   0  0  0  0  0  0  0  0  0  0  0  0
   -1.2758   -0.7277   -0.0979 N   0  0  0  0  0  0  0  0  0  0  0  0
   -2.0383   -0.2026    0.3157 H   0  0  0  0  0  0  0  0  0  0  0  0
   -0.0049   -0.0014    0.1431 C   0  0  1  0  0  0  0  0  0  0  0  0
   -0.2283    0.7698    0.8869 H   0  0  0  0  0  0  0  0  0  0  0  0
    1.1487   -0.8518    0.7374 C   0  0  0  0  0  0  0  0  0  0  0  0
    1.3319   -1.7327    0.1162 H   0  0  0  0  0  0  0  0  0  0  0  0
    2.0674   -0.2601    0.7490 H   0  0  0  0  0  0  0  0  0  0  0  0
    0.8724   -1.2760    2.1822 C   0  0  0  0  0  0  0  0  0  0  0  0
    0.1508   -0.5276    2.8932 O   0  5  0  0  0  0  0  0  0  0  0  0
    1.3692   -2.3570    2.5755 O   0  0  0  0  0  0  0  0  0  0  0  0
    0.4000    0.8237   -1.1039 C   0  0  0  0  0  0  0  0  0  0  0  0
    1.4773    1.4041   -1.1838 O   0  0  0  0  0  0  0  0  0  0  0  0
   -0.5381    1.0490   -2.0972 N   0  0  0  0  0  0  0  0  0  0  0  0
   -1.3234    0.4039   -2.0853 H   0  0  0  0  0  0  0  0  0  0  0  0
   -0.2364    1.7557   -3.3333 C   0  0  0  0  0  0  0  0  0  0  0  0
    0.5523    1.2369   -3.8877 H   0  0  0  0  0  0  0  0  0  0  0  0
   -1.1292    1.8060   -3.9632 H   0  0  0  0  0  0  0  0  0  0  0  0
    0.0927    2.7779   -3.1198 H   0  0  0  0  0  0  0  0  0  0  0  0
  1  2  1  0  0  0  0
  2  3  1  0  0  0  0
  2  4  1  0  0  0  0
  2  5  1  0  0  0  0
  5  6  2  0  0  0  0
  5  7  1  0  0  0  0
  7  8  1  0  0  0  0
  7  9  1  0  0  0  0
  9 10  1  0  0  0  0
  9 11  1  0  0  0  0
  9 17  1  0  0  0  0
 11 12  1  0  0  0  0
 11 13  1  0  0  0  0
 11 14  1  0  0  0  0
 14 15  1  0  0  0  0
 14 16  2  0  0  0  0
 17 18  2  0  0  0  0
 17 19  1  0  0  0  0
 19 20  1  0  0  0  0
 19 21  1  0  0  0  0
 21 22  1  0  0  0  0
 21 23  1  0  0  0  0
 21 24  1  0  0  0  0
M  CHG  1  15  -1
M  END
$$$$

  -OEChem-01062216073D

 24 23  0     1  0  0  0  0  0999 V2000
   -2.3638   -3.5330    1.4684 H   0  0  0  0  0  0  0  0  0  0  0  0
   -2.4259   -2.4571    1.2839 C   0  0  0  0  0  0  0  0  0  0  0  0
   -2.2056   -1.9334    2.2184 H   0  0  0  0  0  0  0  0  0  0  0  0
   -3.4388   -2.2063    0.9619 H   0  0  0  0  0  0  0  0  0  0  0  0
   -1.4195   -2.0553    0.2209 C   0  0  0  0  0  0  0  0  0  0  0  0
   -0.9893   -2.8895   -0.5593 O   0  0  0  0  0  0  0  0  0  0  0  0
   -1.2564   -0.7283   -0.1147 N   0  0  0  0  0  0  0  0  0  0  0  0
   -2.0150   -0.2073    0.3101 H   0  0  0  0  0  0  0  0  0  0  0  0
    0.0180   -0.0116    0.1324 C   0  0  1  0  0  0  0  0  0  0  0  0
   -0.2082    0.7616    0.8729 H   0  0  0  0  0  0  0  0  0  0  0  0
    1.1598   -0.8648    0.7476 C   0  0  0  0  0  0  0  0  0  0  0  0
    1.3451   -1.7528    0.1371 H   0  0  0  0  0  0  0  0  0  0  0  0
    2.0822   -0.2793    0.7653 H   0  0  0  0  0  0  0  0  0  0  0  0
    0.8641   -1.2710    2.1938 C   0  0  0  0  0  0  0  0  0  0  0  0
    0.1404   -0.5087    2.8881 O   0  5  0  0  0  0  0  0  0  0  0  0
    1.3509   -2.3490    2.6070 O   0  0  0  0  0  0  0  0  0  0  0  0
    0.4266    0.8217   -1.1086 C   0  0  0  0  0  0  0  0  0  0  0  0
    1.5800    1.1846   -1.3138 O   0  0  0  0  0  0  0  0  0  0  0  0
   -0.5664    1.3236   -1.9335 N   0  0  0  0  0  0  0  0  0  0  0  0
   -1.4640    0.8573   -1.8509 H   0  0  0  0  0  0  0  0  0  0  0  0
   -0.2867    2.0854   -3.1423 C   0  0  0  0  0  0  0  0  0  0  0  0
    0.3091    1.4892   -3.8411 H   0  0  0  0  0  0  0  0  0  0  0  0
   -1.2225    2.3664   -3.6340 H   0  0  0  0  0  0  0  0  0  0  0  0
    0.2622    3.0008   -2.8990 H   0  0  0  0  0  0  0  0  0  0  0  0
  1  2  1  0  0  0  0
  2  3  1  0  0  0  0
  2  4  1  0  0  0  0
  2  5  1  0  0  0  0
  5  6  2  0  0  0  0
  5  7  1  0  0  0  0
  7  8  1  0  0  0  0
  7  9  1  0  0  0  0
  9 10  1  0  0  0  0
  9 11  1  0  0  0  0
  9 17  1  0  0  0  0
 11 12  1  0  0  0  0
 11 13  1  0  0  0  0
 11 14  1  0  0  0  0
 14 15  1  0  0  0  0
 14 16  2  0  0  0  0
 17 18  2  0  0  0  0
 17 19  1  0  0  0  0
 19 20  1  0  0  0  0
 19 21  1  0  0  0  0
 21 22  1  0  0  0  0
 21 23  1  0  0  0  0
 21 24  1  0  0  0  0
M  CHG  1  15  -1
M  END
$$$$

  -OEChem-01062216073D

 24 23  0     1  0  0  0  0  0999 V2000
   -2.3457   -3.5244    1.4612 H   0  0  0  0  0  0  0  0  0  0  0  0
   -2.4288   -2.4546    1.2508 C   0  0  0  0  0  0  0  0  0  0  0  0
   -2.2394   -1.9055    2.1777 H   0  0  0  0  0  0  0  0  0  0  0  0
   -3.4403   -2.2349    0.9024 H   0  0  0  0  0  0  0  0  0  0  0  0
   -1.4112   -2.0541    0.1984 C   0  0  0  0  0  0  0  0  0  0  0  0
   -0.9649   -2.8932   -0.5672 O   0  0  0  0  0  0  0  0  0  0  0  0
   -1.2419   -0.7260   -0.1314 N   0  0  0  0  0  0  0  0  0  0  0  0
   -2.0000   -0.2052    0.2931 H   0  0  0  0  0  0  0  0  0  0  0  0
    0.0366   -0.0193    0.1185 C   0  0  1  0  0  0  0  0  0  0  0  0
   -0.1877    0.7559    0.8574 H   0  0  0  0  0  0  0  0  0  0  0  0
    1.1685   -0.8756    0.7473 C   0  0  0  0  0  0  0  0  0  0  0  0
    1.3526   -1.7692    0.1452 H   0  0  0  0  0  0  0  0  0  0  0  0
    2.0939   -0.2948    0.7648 H   0  0  0  0  0  0  0  0  0  0  0  0
    0.8608   -1.2678    2.1955 C   0  0  0  0  0  0  0  0  0  0  0  0
    0.1381   -0.4932    2.8778 O   0  5  0  0  0  0  0  0  0  0  0  0
    1.3397   -2.3433    2.6242 O   0  0  0  0  0  0  0  0  0  0  0  0
    0.4503    0.8174   -1.1179 C   0  0  0  0  0  0  0  0  0  0  0  0
    1.6144    0.9408   -1.4834 O   0  0  0  0  0  0  0  0  0  0  0  0
   -0.5112    1.5859   -1.7539 N   0  0  0  0  0  0  0  0  0  0  0  0
   -1.4737    1.3569   -1.5335 H   0  0  0  0  0  0  0  0  0  0  0  0
   -0.2375    2.3889   -2.9372 C   0  0  0  0  0  0  0  0  0  0  0  0
    0.1205    1.7551   -3.7549 H   0  0  0  0  0  0  0  0  0  0  0  0
   -1.1485    2.8983   -3.2645 H   0  0  0  0  0  0  0  0  0  0  0  0
    0.5213    3.1469   -2.7177 H   0  0  0  0  0  0  0  0  0  0  0  0
  1  2  1  0  0  0  0
  2  3  1  0  0  0  0
  2  4  1  0  0  0  0
  2  5  1  0  0  0  0
  5  6  2  0  0  0  0
  5  7  1  0  0  0  0
  7  8  1  0  0  0  0
  7  9  1  0  0  0  0
  9 10  1  0  0  0  0
  9 11  1  0  0  0  0
  9 17  1  0  0  0  0
 11 12  1  0  0  0  0
 11 13  1  0  0  0  0
 11 14  1  0  0  0  0
 14 15  1  0  0  0  0
 14 16  2  0  0  0  0
 17 18  2  0  0  0  0
 17 19  1  0  0  0  0
 19 20  1  0  0  0  0
 19 21  1  0  0  0  0
 21 22  1  0  0  0  0
 21 23  1  0  0  0  0
 21 24  1  0  0  0  0
M  CHG  1  15  -1
M  END
$$$$

  -OEChem-01062216073D

 24 23  0     1  0  0  0  0  0999 V2000
   -2.4204   -3.5328    1.3924 H   0  0  0  0  0  0  0  0  0  0  0  0
   -2.4525   -2.4542    1.2156 C   0  0  0  0  0  0  0  0  0  0  0  0
   -2.2494   -1.9428    2.1609 H   0  0  0  0  0  0  0  0  0  0  0  0
   -3.4491   -2.1787    0.8640 H   0  0  0  0  0  0  0  0  0  0  0  0
   -1.4048   -2.0659    0.1881 C   0  0  0  0  0  0  0  0  0  0  0  0
   -0.9189   -2.9194   -0.5362 O   0  0  0  0  0  0  0  0  0  0  0  0
   -1.2317   -0.7404   -0.1515 N   0  0  0  0  0  0  0  0  0  0  0  0
   -2.0017   -0.2126    0.2400 H   0  0  0  0  0  0  0  0  0  0  0  0
    0.0443   -0.0313    0.0984 C   0  0  1  0  0  0  0  0  0  0  0  0
   -0.1877    0.7495    0.8286 H   0  0  0  0  0  0  0  0  0  0  0  0
    1.1760   -0.8702    0.7480 C   0  0  0  0  0  0  0  0  0  0  0  0
    1.3690   -1.7727    0.1620 H   0  0  0  0  0  0  0  0  0  0  0  0
    2.0971   -0.2825    0.7585 H   0  0  0  0  0  0  0  0  0  0  0  0
    0.8608   -1.2398    2.2007 C   0  0  0  0  0  0  0  0  0  0  0  0
    0.1293   -0.4569    2.8644 O   0  5  0  0  0  0  0  0  0  0  0  0
    1.3577   -2.2953    2.6577 O   0  0  0  0  0  0  0  0  0  0  0  0
    0.4671    0.7966   -1.1394 C   0  0  0  0  0  0  0  0  0  0  0  0
    1.5637    0.6892   -1.6776 O   0  0  0  0  0  0  0  0  0  0  0  0
   -0.3828    1.7916   -1.5949 N   0  0  0  0  0  0  0  0  0  0  0  0
   -1.2979    1.8450   -1.1631 H   0  0  0  0  0  0  0  0  0  0  0  0
   -0.0860    2.6473   -2.7345 C   0  0  0  0  0  0  0  0  0  0  0  0
    0.0543    2.0456   -3.6383 H   0  0  0  0  0  0  0  0  0  0  0  0
   -0.9120    3.3436   -2.9058 H   0  0  0  0  0  0  0  0  0  0  0  0
    0.8236    3.2279   -2.5498 H   0  0  0  0  0  0  0  0  0  0  0  0
  1  2  1  0  0  0  0
  2  3  1  0  0  0  0
  2  4  1  0  0  0  0
  2  5  1  0  0  0  0
  5  6  2  0  0  0  0
  5  7  1  0  0  0  0
  7  8  1  0  0  0  0
  7  9  1  0  0  0  0
  9 10  1  0  0  0  0
  9 11  1  0  0  0  0
  9 17  1  0  0  0  0
 11 12  1  0  0  0  0
 11 13  1  0  0  0  0
 11 14  1  0  0  0  0
 14 15  1  0  0  0  0
 14 16  2  0  0  0  0
 17 18  2  0  0  0  0
 17 19  1  0  0  0  0
 19 20  1  0  0  0  0
 19 21  1  0  0  0  0
 21 22  1  0  0  0  0
 21 23  1  0  0  0  0
 21 24  1  0  0  0  0
M  CHG  1  15  -1
M  END
$$$$

  -OEChem-01062216073D

 24 23  0     1  0  0  0  0  0999 V2000
   -2.4799   -3.5311    1.3640 H   0  0  0  0  0  0  0  0  0  0  0  0
   -2.4891   -2.4518    1.1890 C   0  0  0  0  0  0  0  0  0  0  0  0
   -2.3045   -1.9452    2.1406 H   0  0  0  0  0  0  0  0  0  0  0  0
   -3.4703   -2.1596    0.8091 H   0  0  0  0  0  0  0  0  0  0  0  0
   -1.4062   -2.0768    0.1937 C   0  0  0  0  0  0  0  0  0  0  0  0
   -0.8737   -2.9454   -0.4775 O   0  0  0  0  0  0  0  0  0  0  0  0
   -1.2313   -0.7552   -0.1600 N   0  0  0  0  0  0  0  0  0  0  0  0
   -2.0124   -0.2179    0.1940 H   0  0  0  0  0  0  0  0  0  0  0  0
    0.0417   -0.0389    0.0781 C   0  0  1  0  0  0  0  0  0  0  0  0
   -0.1944    0.7451    0.8031 H   0  0  0  0  0  0  0  0  0  0  0  0
    1.1840   -0.8570    0.7338 C   0  0  0  0  0  0  0  0  0  0  0  0
    1.3828   -1.7661    0.1602 H   0  0  0  0  0  0  0  0  0  0  0  0
    2.0989   -0.2594    0.7282 H   0  0  0  0  0  0  0  0  0  0  0  0
    0.8796   -1.2094    2.1932 C   0  0  0  0  0  0  0  0  0  0  0  0
    0.1431   -0.4236    2.8485 O   0  5  0  0  0  0  0  0  0  0  0  0
    1.4082   -2.2400    2.6706 O   0  0  0  0  0  0  0  0  0  0  0  0
    0.4633    0.7774   -1.1663 C   0  0  0  0  0  0  0  0  0  0  0  0
    1.4149    0.4743   -1.8771 O   0  0  0  0  0  0  0  0  0  0  0  0
   -0.2103    1.9554   -1.4486 N   0  0  0  0  0  0  0  0  0  0  0  0
   -0.9518    2.2269   -0.8128 H   0  0  0  0  0  0  0  0  0  0  0  0
    0.1493    2.8491   -2.5400 C   0  0  0  0  0  0  0  0  0  0  0  0
    0.0805    2.3274   -3.5001 H   0  0  0  0  0  0  0  0  0  0  0  0
   -0.5298    3.7064   -2.5626 H   0  0  0  0  0  0  0  0  0  0  0  0
    1.1712    3.2195   -2.4095 H   0  0  0  0  0  0  0  0  0  0  0  0
  1  2  1  0  0  0  0
  2  3  1  0  0  0  0
  2  4  1  0  0  0  0
  2  5  1  0  0  0  0
  5  6  2  0  0  0  0
  5  7  1  0  0  0  0
  7  8  1  0  0  0  0
  7  9  1  0  0  0  0
  9 10  1  0  0  0  0
  9 11  1  0  0  0  0
  9 17  1  0  0  0  0
 11 12  1  0  0  0  0
 11 13  1  0  0  0  0
 11 14  1  0  0  0  0
 14 15  1  0  0  0  0
 14 16  2  0  0  0  0
 17 18  2  0  0  0  0
 17 19  1  0  0  0  0
 19 20  1  0  0  0  0
 19 21  1  0  0  0  0
 21 22  1  0  0  0  0
 21 23  1  0  0  0  0
 21 24  1  0  0  0  0
M  CHG  1  15  -1
M  END
$$$$

  -OEChem-01062216073D

 24 23  0     1  0  0  0  0  0999 V2000
   -2.6333   -3.5275    1.2651 H   0  0  0  0  0  0  0  0  0  0  0  0
   -2.5928   -2.4447    1.1177 C   0  0  0  0  0  0  0  0  0  0  0  0
   -2.4806   -1.9644    2.0938 H   0  0  0  0  0  0  0  0  0  0  0  0
   -3.5262   -2.1133    0.6576 H   0  0  0  0  0  0  0  0  0  0  0  0
   -1.4125   -2.0817    0.2349 C   0  0  0  0  0  0  0  0  0  0  0  0
   -0.7883   -2.9681   -0.3236 O   0  0  0  0  0  0  0  0  0  0  0  0
   -1.2221   -0.7632   -0.1261 N   0  0  0  0  0  0  0  0  0  0  0  0
   -2.0110   -0.2093    0.1817 H   0  0  0  0  0  0  0  0  0  0  0  0
    0.0538   -0.0425    0.0782 C   0  0  1  0  0  0  0  0  0  0  0  0
   -0.1794    0.7416    0.8035 H   0  0  0  0  0  0  0  0  0  0  0  0
    1.2210   -0.8353    0.7177 C   0  0  0  0  0  0  0  0  0  0  0  0
    1.4202   -1.7492    0.1526 H   0  0  0  0  0  0  0  0  0  0  0  0
    2.1265   -0.2252    0.6799 H   0  0  0  0  0  0  0  0  0  0  0  0
    0.9595   -1.1715    2.1894 C   0  0  0  0  0  0  0  0  0  0  0  0
    0.2291   -0.3854    2.8517 O   0  5  0  0  0  0  0  0  0  0  0  0
    1.5500   -2.1625    2.6787 O   0  0  0  0  0  0  0  0  0  0  0  0
    0.4602    0.7684   -1.1741 C   0  0  0  0  0  0  0  0  0  0  0  0
    1.1700    0.3136   -2.0636 O   0  0  0  0  0  0  0  0  0  0  0  0
    0.0255    2.0793   -1.2908 N   0  0  0  0  0  0  0  0  0  0  0  0
   -0.4607    2.4722   -0.4916 H   0  0  0  0  0  0  0  0  0  0  0  0
    0.4265    2.9646   -2.3750 C   0  0  0  0  0  0  0  0  0  0  0  0
    0.1484    2.5355   -3.3431 H   0  0  0  0  0  0  0  0  0  0  0  0
   -0.0709    3.9334   -2.2719 H   0  0  0  0  0  0  0  0  0  0  0  0
    1.5092    3.1253   -2.3565 H   0  0  0  0  0  0  0  0  0  0  0  0
  1  2  1  0  0  0  0
  2  3  1  0  0  0  0
  2  4  1  0  0  0  0
  2  5  1  0  0  0  0
  5  6  2  0  0  0  0
  5  7  1  0  0  0  0
  7  8  1  0  0  0  0
  7  9  1  0  0  0  0
  9 10  1  0  0  0  0
  9 11  1  0  0  0  0
  9 17  1  0  0  0  0
 11 12  1  0  0  0  0
 11 13  1  0  0  0  0
 11 14  1  0  0  0  0
 14 15  1  0  0  0  0
 14 16  2  0  0  0  0
 17 18  2  0  0  0  0
 17 19  1  0  0  0  0
 19 20  1  0  0  0  0
 19 21  1  0  0  0  0
 21 22  1  0  0  0  0
 21 23  1  0  0  0  0
 21 24  1  0  0  0  0
M  CHG  1  15  -1
M  END
$$$$

  -OEChem-01062216073D

 24 23  0     1  0  0  0  0  0999 V2000
   -2.8578   -3.4898    1.1316 H   0  0  0  0  0  0  0  0  0  0  0  0
   -2.7920   -2.4162    0.9335 C   0  0  0  0  0  0  0  0  0  0  0  0
   -2.9379   -1.8784    1.8739 H   0  0  0  0  0  0  0  0  0  0  0  0
   -3.5809   -2.1367    0.2314 H   0  0  0  0  0  0  0  0  0  0  0  0
   -1.4307   -2.0740    0.3543 C   0  0  0  0  0  0  0  0  0  0  0  0
   -0.6762   -2.9846    0.0613 O   0  0  0  0  0  0  0  0  0  0  0  0
   -1.1815   -0.7635   -0.0053 N   0  0  0  0  0  0  0  0  0  0  0  0
   -1.9826   -0.1733    0.1765 H   0  0  0  0  0  0  0  0  0  0  0  0
    0.1085   -0.0510    0.1300 C   0  0  1  0  0  0  0  0  0  0  0  0
   -0.0987    0.7341    0.8619 H   0  0  0  0  0  0  0  0  0  0  0  0
    1.3213   -0.8157    0.7132 C   0  0  0  0  0  0  0  0  0  0  0  0
    1.5031   -1.7332    0.1487 H   0  0  0  0  0  0  0  0  0  0  0  0
    2.2132   -0.1922    0.6146 H   0  0  0  0  0  0  0  0  0  0  0  0
    1.1596   -1.1373    2.2021 C   0  0  0  0  0  0  0  0  0  0  0  0
    0.4583   -0.3528    2.8978 O   0  5  0  0  0  0  0  0  0  0  0  0
    1.8601   -2.0625    2.6772 O   0  0  0  0  0  0  0  0  0  0  0  0
    0.4646    0.7509   -1.1422 C   0  0  0  0  0  0  0  0  0  0  0  0
    0.7832    0.2141   -2.1969 O   0  0  0  0  0  0  0  0  0  0  0  0
    0.3257    2.1296   -1.1252 N   0  0  0  0  0  0  0  0  0  0  0  0
    0.1674    2.5571   -0.2178 H   0  0  0  0  0  0  0  0  0  0  0  0
    0.6780    2.9837   -2.2507 C   0  0  0  0  0  0  0  0  0  0  0  0
    0.0972    2.7093   -3.1373 H   0  0  0  0  0  0  0  0  0  0  0  0
    0.4648    4.0293   -2.0096 H   0  0  0  0  0  0  0  0  0  0  0  0
    1.7440    2.8901   -2.4821 H   0  0  0  0  0  0  0  0  0  0  0  0
  1  2  1  0  0  0  0
  2  3  1  0  0  0  0
  2  4  1  0  0  0  0
  2  5  1  0  0  0  0
  5  6  2  0  0  0  0
  5  7  1  0  0  0  0
  7  8  1  0  0  0  0
  7  9  1  0  0  0  0
  9 10  1  0  0  0  0
  9 11  1  0  0  0  0
  9 17  1  0  0  0  0
 11 12  1  0  0  0  0
 11 13  1  0  0  0  0
 11 14  1  0  0  0  0
 14 15  1  0  0  0  0
 14 16  2  0  0  0  0
 17 18  2  0  0  0  0
 17 19  1  0  0  0  0
 19 20  1  0  0  0  0
 19 21  1  0  0  0  0
 21 22  1  0  0  0  0
 21 23  1  0  0  0  0
 21 24  1  0  0  0  0
M  CHG  1  15  -1
M  END
$$$$

  -OEChem-01062216073D

 24 23  0     1  0  0  0  0  0999 V2000
   -2.9446   -3.4577    1.0945 H   0  0  0  0  0  0  0  0  0  0  0  0
   -2.8659   -2.3974    0.8380 C   0  0  0  0  0  0  0  0  0  0  0  0
   -3.1412   -1.8052    1.7143 H   0  0  0  0  0  0  0  0  0  0  0  0
   -3.5587   -2.1784    0.0223 H   0  0  0  0  0  0  0  0  0  0  0  0
   -1.4445   -2.0648    0.4192 C   0  0  0  0  0  0  0  0  0  0  0  0
   -0.6530   -2.9802    0.2816 O   0  0  0  0  0  0  0  0  0  0  0  0
   -1.1617   -0.7633    0.0521 N   0  0  0  0  0  0  0  0  0  0  0  0
   -1.9682   -0.1572    0.1228 H   0  0  0  0  0  0  0  0  0  0  0  0
    0.1353   -0.0587    0.1536 C   0  0  1  0  0  0  0  0  0  0  0  0
   -0.0624    0.7311    0.8834 H   0  0  0  0  0  0  0  0  0  0  0  0
    1.3651   -0.8115    0.7156 C   0  0  0  0  0  0  0  0  0  0  0  0
    1.5337   -1.7348    0.1564 H   0  0  0  0  0  0  0  0  0  0  0  0
    2.2523   -0.1869    0.5862 H   0  0  0  0  0  0  0  0  0  0  0  0
    1.2512   -1.1192    2.2113 C   0  0  0  0  0  0  0  0  0  0  0  0
    0.5674   -0.3306    2.9195 O   0  5  0  0  0  0  0  0  0  0  0  0
    2.0018   -2.0105    2.6757 O   0  0  0  0  0  0  0  0  0  0  0  0
    0.4814    0.7336   -1.1266 C   0  0  0  0  0  0  0  0  0  0  0  0
    0.4314    0.2339   -2.2453 O   0  0  0  0  0  0  0  0  0  0  0  0
    0.6641    2.1033   -1.0315 N   0  0  0  0  0  0  0  0  0  0  0  0
    0.7700    2.4804   -0.0937 H   0  0  0  0  0  0  0  0  0  0  0  0
    0.9758    2.9537   -2.1713 C   0  0  0  0  0  0  0  0  0  0  0  0
    0.1598    2.9296   -2.9005 H   0  0  0  0  0  0  0  0  0  0  0  0
    1.1145    3.9875   -1.8413 H   0  0  0  0  0  0  0  0  0  0  0  0
    1.8970    2.6182   -2.6585 H   0  0  0  0  0  0  0  0  0  0  0  0
  1  2  1  0  0  0  0
  2  3  1  0  0  0  0
  2  4  1  0  0  0  0
  2  5  1  0  0  0  0
  5  6  2  0  0  0  0
  5  7  1  0  0  0  0
  7  8  1  0  0  0  0
  7  9  1  0  0  0  0
  9 10  1  0  0  0  0
  9 11  1  0  0  0  0
  9 17  1  0  0  0  0
 11 12  1  0  0  0  0
 11 13  1  0  0  0  0
 11 14  1  0  0  0  0
 14 15  1  0  0  0  0
 14 16  2  0  0  0  0
 17 18  2  0  0  0  0
 17 19  1  0  0  0  0
 19 20  1  0  0  0  0
 19 21  1  0  0  0  0
 21 22  1  0  0  0  0
 21 23  1  0  0  0  0
 21 24  1  0  0  0  0
M  CHG  1  15  -1
M  END
$$$$

  -OEChem-01062216073D

 24 23  0     1  0  0  0  0  0999 V2000
   -3.0225   -3.4275    1.0530 H   0  0  0  0  0  0  0  0  0  0  0  0
   -2.9199   -2.3773    0.7650 C   0  0  0  0  0  0  0  0  0  0  0  0
   -3.2955   -1.7530    1.5797 H   0  0  0  0  0  0  0  0  0  0  0  0
   -3.5165   -2.1966   -0.1323 H   0  0  0  0  0  0  0  0  0  0  0  0
   -1.4618   -2.0490    0.4949 C   0  0  0  0  0  0  0  0  0  0  0  0
   -0.6566   -2.9624    0.4919 O   0  0  0  0  0  0  0  0  0  0  0  0
   -1.1485   -0.7579    0.1173 N   0  0  0  0  0  0  0  0  0  0  0  0
   -1.9538   -0.1489    0.0559 H   0  0  0  0  0  0  0  0  0  0  0  0
    0.1546   -0.0604    0.1841 C   0  0  1  0  0  0  0  0  0  0  0  0
   -0.0210    0.7358    0.9132 H   0  0  0  0  0  0  0  0  0  0  0  0
    1.3987   -0.8140    0.7126 C   0  0  0  0  0  0  0  0  0  0  0  0
    1.5429   -1.7400    0.1505 H   0  0  0  0  0  0  0  0  0  0  0  0
    2.2848   -0.1950    0.5540 H   0  0  0  0  0  0  0  0  0  0  0  0
    1.3361   -1.1227    2.2105 C   0  0  0  0  0  0  0  0  0  0  0  0
    0.6771   -0.3336    2.9407 O   0  5  0  0  0  0  0  0  0  0  0  0
    2.1277   -1.9924    2.6485 O   0  0  0  0  0  0  0  0  0  0  0  0
    0.4795    0.7173   -1.1097 C   0  0  0  0  0  0  0  0  0  0  0  0
    0.1150    0.3316   -2.2162 O   0  0  0  0  0  0  0  0  0  0  0  0
    0.9782    2.0039   -0.9996 N   0  0  0  0  0  0  0  0  0  0  0  0
    1.3061    2.2831   -0.0785 H   0  0  0  0  0  0  0  0  0  0  0  0
    1.2785    2.8528   -2.1431 C   0  0  0  0  0  0  0  0  0  0  0  0
    0.3724    3.0422   -2.7273 H   0  0  0  0  0  0  0  0  0  0  0  0
    1.6769    3.8131   -1.8030 H   0  0  0  0  0  0  0  0  0  0  0  0
    2.0237    2.3760   -2.7879 H   0  0  0  0  0  0  0  0  0  0  0  0
  1  2  1  0  0  0  0
  2  3  1  0  0  0  0
  2  4  1  0  0  0  0
  2  5  1  0  0  0  0
  5  6  2  0  0  0  0
  5  7  1  0  0  0  0
  7  8  1  0  0  0  0
  7  9  1  0  0  0  0
  9 10  1  0  0  0  0
  9 11  1  0  0  0  0
  9 17  1  0  0  0  0
 11 12  1  0  0  0  0
 11 13  1  0  0  0  0
 11 14  1  0  0  0  0
 14 15  1  0  0  0  0
 14 16  2  0  0  0  0
 17 18  2  0  0  0  0
 17 19  1  0  0  0  0
 19 20  1  0  0  0  0
 19 21  1  0  0  0  0
 21 22  1  0  0  0  0
 21 23  1  0  0  0  0
 21 24  1  0  0  0  0
M  CHG  1  15  -1
M  END
$$$$

  -OEChem-01062216073D

 24 23  0     1  0  0  0  0  0999 V2000
   -3.0553   -3.4164    1.0268 H   0  0  0  0  0  0  0  0  0  0  0  0
   -2.9391   -2.3690    0.7341 C   0  0  0  0  0  0  0  0  0  0  0  0
   -3.3576   -1.7375    1.5216 H   0  0  0  0  0  0  0  0  0  0  0  0
   -3.4888   -2.1988   -0.1946 H   0  0  0  0  0  0  0  0  0  0  0  0
   -1.4696   -2.0396    0.5364 C   0  0  0  0  0  0  0  0  0  0  0  0
   -0.6632   -2.9502    0.5919 O   0  0  0  0  0  0  0  0  0  0  0  0
   -1.1415   -0.7537    0.1539 N   0  0  0  0  0  0  0  0  0  0  0  0
   -1.9412   -0.1524    0.0019 H   0  0  0  0  0  0  0  0  0  0  0  0
    0.1633   -0.0578    0.2039 C   0  0  1  0  0  0  0  0  0  0  0  0
    0.0027    0.7434    0.9313 H   0  0  0  0  0  0  0  0  0  0  0  0
    1.4117   -0.8190    0.7149 C   0  0  0  0  0  0  0  0  0  0  0  0
    1.5394   -1.7458    0.1498 H   0  0  0  0  0  0  0  0  0  0  0  0
    2.3015   -0.2085    0.5456 H   0  0  0  0  0  0  0  0  0  0  0  0
    1.3726   -1.1332    2.2120 C   0  0  0  0  0  0  0  0  0  0  0  0
    0.7291   -0.3445    2.9554 O   0  5  0  0  0  0  0  0  0  0  0  0
    2.1820   -1.9956    2.6324 O   0  0  0  0  0  0  0  0  0  0  0  0
    0.4728    0.7122   -1.0987 C   0  0  0  0  0  0  0  0  0  0  0  0
   -0.1259    0.4881   -2.1475 O   0  0  0  0  0  0  0  0  0  0  0  0
    1.2535    1.8524   -1.0245 N   0  0  0  0  0  0  0  0  0  0  0  0
    1.7473    2.0039   -0.1484 H   0  0  0  0  0  0  0  0  0  0  0  0
    1.5734    2.6901   -2.1709 C   0  0  0  0  0  0  0  0  0  0  0  0
    0.6630    3.1321   -2.5882 H   0  0  0  0  0  0  0  0  0  0  0  0
    2.2429    3.5002   -1.8676 H   0  0  0  0  0  0  0  0  0  0  0  0
    2.0714    2.1012   -2.9480 H   0  0  0  0  0  0  0  0  0  0  0  0
  1  2  1  0  0  0  0
  2  3  1  0  0  0  0
  2  4  1  0  0  0  0
  2  5  1  0  0  0  0
  5  6  2  0  0  0  0
  5  7  1  0  0  0  0
  7  8  1  0  0  0  0
  7  9  1  0  0  0  0
  9 10  1  0  0  0  0
  9 11  1  0  0  0  0
  9 17  1  0  0  0  0
 11 12  1  0  0  0  0
 11 13  1  0  0  0  0
 11 14  1  0  0  0  0
 14 15  1  0  0  0  0
 14 16  2  0  0  0  0
 17 18  2  0  0  0  0
 17 19  1  0  0  0  0
 19 20  1  0  0  0  0
 19 21  1  0  0  0  0
 21 22  1  0  0  0  0
 21 23  1  0  0  0  0
 21 24  1  0  0  0  0
M  CHG  1  15  -1
M  END
$$$$

  -OEChem-01062216073D

 24 23  0     1  0  0  0  0  0999 V2000
   -3.0760   -3.3838    1.0474 H   0  0  0  0  0  0  0  0  0  0  0  0
   -2.9480   -2.3518    0.7083 C   0  0  0  0  0  0  0  0  0  0  0  0
   -3.4045   -1.6835    1.4426 H   0  0  0  0  0  0  0  0  0  0  0  0
   -3.4528   -2.2296   -0.2529 H   0  0  0  0  0  0  0  0  0  0  0  0
   -1.4713   -2.0277    0.5636 C   0  0  0  0  0  0  0  0  0  0  0  0
   -0.6718   -2.9418    0.6508 O   0  0  0  0  0  0  0  0  0  0  0  0
   -1.1257   -0.7456    0.1844 N   0  0  0  0  0  0  0  0  0  0  0  0
   -1.9145   -0.1495   -0.0347 H   0  0  0  0  0  0  0  0  0  0  0  0
    0.1812   -0.0537    0.2324 C   0  0  1  0  0  0  0  0  0  0  0  0
    0.0381    0.7488    0.9622 H   0  0  0  0  0  0  0  0  0  0  0  0
    1.4242   -0.8367    0.7291 C   0  0  0  0  0  0  0  0  0  0  0  0
    1.5348   -1.7584    0.1525 H   0  0  0  0  0  0  0  0  0  0  0  0
    2.3242   -0.2410    0.5657 H   0  0  0  0  0  0  0  0  0  0  0  0
    1.3896   -1.1697    2.2222 C   0  0  0  0  0  0  0  0  0  0  0  0
    0.7598   -0.3841    2.9800 O   0  5  0  0  0  0  0  0  0  0  0  0
    2.1999   -2.0399    2.6249 O   0  0  0  0  0  0  0  0  0  0  0  0
    0.4740    0.7100   -1.0797 C   0  0  0  0  0  0  0  0  0  0  0  0
   -0.2945    0.6639   -2.0379 O   0  0  0  0  0  0  0  0  0  0  0  0
    1.4857    1.6539   -1.1010 N   0  0  0  0  0  0  0  0  0  0  0  0
    2.1030    1.6721   -0.2929 H   0  0  0  0  0  0  0  0  0  0  0  0
    1.8069    2.4764   -2.2579 C   0  0  0  0  0  0  0  0  0  0  0  0
    0.9583    3.1164   -2.5201 H   0  0  0  0  0  0  0  0  0  0  0  0
    2.6665    3.1156   -2.0359 H   0  0  0  0  0  0  0  0  0  0  0  0
    2.0561    1.8463   -3.1177 H   0  0  0  0  0  0  0  0  0  0  0  0
  1  2  1  0  0  0  0
  2  3  1  0  0  0  0
  2  4  1  0  0  0  0
  2  5  1  0  0  0  0
  5  6  2  0  0  0  0
  5  7  1  0  0  0  0
  7  8  1  0  0  0  0
  7  9  1  0  0  0  0
  9 10  1  0  0  0  0
  9 11  1  0  0  0  0
  9 17  1  0  0  0  0
 11 12  1  0  0  0  0
 11 13  1  0  0  0  0
 11 14  1  0  0  0  0
 14 15  1  0  0  0  0
 14 16  2  0  0  0  0
 17 18  2  0  0  0  0
 17 19  1  0  0  0  0
 19 20  1  0  0  0  0
 19 21  1  0  0  0  0
 21 22  1  0  0  0  0
 21 23  1  0  0  0  0
 21 24  1  0  0  0  0
M  CHG  1  15  -1
M  END
$$$$

  -OEChem-01062216073D

 24 23  0     1  0  0  0  0  0999 V2000
   -3.0910   -3.3478    1.0326 H   0  0  0  0  0  0  0  0  0  0  0  0
   -2.9495   -2.3021    0.7457 C   0  0  0  0  0  0  0  0  0  0  0  0
   -3.3190   -1.6652    1.5530 H   0  0  0  0  0  0  0  0  0  0  0  0
   -3.5246   -2.1028   -0.1617 H   0  0  0  0  0  0  0  0  0  0  0  0
   -1.4775   -2.0204    0.5011 C   0  0  0  0  0  0  0  0  0  0  0  0
   -0.7088   -2.9629    0.4616 O   0  0  0  0  0  0  0  0  0  0  0  0
   -1.1169   -0.7412    0.1298 N   0  0  0  0  0  0  0  0  0  0  0  0
   -1.9009   -0.1198   -0.0376 H   0  0  0  0  0  0  0  0  0  0  0  0
    0.1886   -0.0501    0.2066 C   0  0  1  0  0  0  0  0  0  0  0  0
    0.1285    0.5675    1.1078 H   0  0  0  0  0  0  0  0  0  0  0  0
    1.4760   -0.8987    0.3856 C   0  0  0  0  0  0  0  0  0  0  0  0
    1.5065   -1.6686   -0.3898 H   0  0  0  0  0  0  0  0  0  0  0  0
    2.3603   -0.2707    0.2672 H   0  0  0  0  0  0  0  0  0  0  0  0
    1.6086   -1.5690    1.7546 C   0  0  0  0  0  0  0  0  0  0  0  0
    1.0664   -0.9950    2.7370 O   0  5  0  0  0  0  0  0  0  0  0  0
    2.4834   -2.4652    1.8533 O   0  0  0  0  0  0  0  0  0  0  0  0
    0.3156    0.9890   -0.9334 C   0  0  0  0  0  0  0  0  0  0  0  0
   -0.6532    1.2743   -1.6359 O   0  0  0  0  0  0  0  0  0  0  0  0
    1.4600    1.7567   -1.0590 N   0  0  0  0  0  0  0  0  0  0  0  0
    2.2414    1.5076   -0.4576 H   0  0  0  0  0  0  0  0  0  0  0  0
    1.6348    2.8027   -2.0556 C   0  0  0  0  0  0  0  0  0  0  0  0
    0.8915    3.5939   -1.9141 H   0  0  0  0  0  0  0  0  0  0  0  0
    2.6316    3.2443   -1.9646 H   0  0  0  0  0  0  0  0  0  0  0  0
    1.5286    2.3913   -3.0646 H   0  0  0  0  0  0  0  0  0  0  0  0
  1  2  1  0  0  0  0
  2  3  1  0  0  0  0
  2  4  1  0  0  0  0
  2  5  1  0  0  0  0
  5  6  2  0  0  0  0
  5  7  1  0  0  0  0
  7  8  1  0  0  0  0
  7  9  1  0  0  0  0
  9 10  1  0  0  0  0
  9 11  1  0  0  0  0
  9 17  1  0  0  0  0
 11 12  1  0  0  0  0
 11 13  1  0  0  0  0
 11 14  1  0  0  0  0
 14 15  1  0  0  0  0
 14 16  2  0  0  0  0
 17 18  2  0  0  0  0
 17 19  1  0  0  0  0
 19 20  1  0  0  0  0
 19 21  1  0  0  0  0
 21 22  1  0  0  0  0
 21 23  1  0  0  0  0
 21 24  1  0  0  0  0
M  CHG  1  15  -1
M  END
$$$$

  -OEChem-01062216073D

 24 23  0     1  0  0  0  0  0999 V2000
   -3.0440   -3.3330    1.1259 H   0  0  0  0  0  0  0  0  0  0  0  0
   -2.9257   -2.3012    0.7832 C   0  0  0  0  0  0  0  0  0  0  0  0
   -3.2635   -1.6298    1.5765 H   0  0  0  0  0  0  0  0  0  0  0  0
   -3.5432   -2.1484   -0.1051 H   0  0  0  0  0  0  0  0  0  0  0  0
   -1.4687   -2.0232    0.4577 C   0  0  0  0  0  0  0  0  0  0  0  0
   -0.7141   -2.9698    0.3278 O   0  0  0  0  0  0  0  0  0  0  0  0
   -1.1145   -0.7395    0.0966 N   0  0  0  0  0  0  0  0  0  0  0  0
   -1.8997   -0.1037    0.0068 H   0  0  0  0  0  0  0  0  0  0  0  0
    0.1906   -0.0521    0.2040 C   0  0  1  0  0  0  0  0  0  0  0  0
    0.1226    0.5630    1.1066 H   0  0  0  0  0  0  0  0  0  0  0  0
    1.4683   -0.9140    0.3980 C   0  0  0  0  0  0  0  0  0  0  0  0
    1.5153   -1.6726   -0.3879 H   0  0  0  0  0  0  0  0  0  0  0  0
    2.3596   -0.2905    0.3165 H   0  0  0  0  0  0  0  0  0  0  0  0
    1.5629   -1.5986    1.7632 C   0  0  0  0  0  0  0  0  0  0  0  0
    1.0043   -1.0309    2.7396 O   0  5  0  0  0  0  0  0  0  0  0  0
    2.4199   -2.5105    1.8707 O   0  0  0  0  0  0  0  0  0  0  0  0
    0.3231    0.9896   -0.9350 C   0  0  0  0  0  0  0  0  0  0  0  0
   -0.6821    1.4331   -1.4890 O   0  0  0  0  0  0  0  0  0  0  0  0
    1.5455    1.5516   -1.2593 N   0  0  0  0  0  0  0  0  0  0  0  0
    2.3611    1.1608   -0.7948 H   0  0  0  0  0  0  0  0  0  0  0  0
    1.7314    2.5632   -2.2890 C   0  0  0  0  0  0  0  0  0  0  0  0
    1.1540    3.4620   -2.0507 H   0  0  0  0  0  0  0  0  0  0  0  0
    2.7878    2.8393   -2.3564 H   0  0  0  0  0  0  0  0  0  0  0  0
    1.4095    2.1817   -3.2634 H   0  0  0  0  0  0  0  0  0  0  0  0
  1  2  1  0  0  0  0
  2  3  1  0  0  0  0
  2  4  1  0  0  0  0
  2  5  1  0  0  0  0
  5  6  2  0  0  0  0
  5  7  1  0  0  0  0
  7  8  1  0  0  0  0
  7  9  1  0  0  0  0
  9 10  1  0  0  0  0
  9 11  1  0  0  0  0
  9 17  1  0  0  0  0
 11 12  1  0  0  0  0
 11 13  1  0  0  0  0
 11 14  1  0  0  0  0
 14 15  1  0  0  0  0
 14 16  2  0  0  0  0
 17 18  2  0  0  0  0
 17 19  1  0  0  0  0
 19 20  1  0  0  0  0
 19 21  1  0  0  0  0
 21 22  1  0  0  0  0
 21 23  1  0  0  0  0
 21 24  1  0  0  0  0
M  CHG  1  15  -1
M  END
$$$$

  -OEChem-01062216073D

 24 23  0     1  0  0  0  0  0999 V2000
   -2.9892   -3.3783    1.0868 H   0  0  0  0  0  0  0  0  0  0  0  0
   -2.8749   -2.3143    0.8613 C   0  0  0  0  0  0  0  0  0  0  0  0
   -3.0880   -1.7406    1.7668 H   0  0  0  0  0  0  0  0  0  0  0  0
   -3.5897   -2.0375    0.0829 H   0  0  0  0  0  0  0  0  0  0  0  0
   -1.4583   -2.0288    0.3946 C   0  0  0  0  0  0  0  0  0  0  0  0
   -0.7262   -2.9689    0.1396 O   0  0  0  0  0  0  0  0  0  0  0  0
   -1.1304   -0.7392    0.0308 N   0  0  0  0  0  0  0  0  0  0  0  0
   -1.9198   -0.1027    0.0450 H   0  0  0  0  0  0  0  0  0  0  0  0
    0.1686   -0.0487    0.1779 C   0  0  1  0  0  0  0  0  0  0  0  0
    0.0765    0.5685    1.0770 H   0  0  0  0  0  0  0  0  0  0  0  0
    1.4403   -0.9118    0.4067 C   0  0  0  0  0  0  0  0  0  0  0  0
    1.5190   -1.6654   -0.3814 H   0  0  0  0  0  0  0  0  0  0  0  0
    2.3309   -0.2826    0.3637 H   0  0  0  0  0  0  0  0  0  0  0  0
    1.4877   -1.5995    1.7724 C   0  0  0  0  0  0  0  0  0  0  0  0
    0.8981   -1.0355    2.7322 O   0  5  0  0  0  0  0  0  0  0  0  0
    2.3220   -2.5286    1.9024 O   0  0  0  0  0  0  0  0  0  0  0  0
    0.3235    0.9883   -0.9616 C   0  0  0  0  0  0  0  0  0  0  0  0
   -0.6651    1.5838   -1.3871 O   0  0  0  0  0  0  0  0  0  0  0  0
    1.5642    1.3337   -1.4677 N   0  0  0  0  0  0  0  0  0  0  0  0
    2.3564    0.7952   -1.1265 H   0  0  0  0  0  0  0  0  0  0  0  0
    1.7701    2.3051   -2.5311 C   0  0  0  0  0  0  0  0  0  0  0  0
    1.3817    3.2847   -2.2346 H   0  0  0  0  0  0  0  0  0  0  0  0
    2.8382    2.4074   -2.7437 H   0  0  0  0  0  0  0  0  0  0  0  0
    1.2628    1.9834   -3.4462 H   0  0  0  0  0  0  0  0  0  0  0  0
  1  2  1  0  0  0  0
  2  3  1  0  0  0  0
  2  4  1  0  0  0  0
  2  5  1  0  0  0  0
  5  6  2  0  0  0  0
  5  7  1  0  0  0  0
  7  8  1  0  0  0  0
  7  9  1  0  0  0  0
  9 10  1  0  0  0  0
  9 11  1  0  0  0  0
  9 17  1  0  0  0  0
 11 12  1  0  0  0  0
 11 13  1  0  0  0  0
 11 14  1  0  0  0  0
 14 15  1  0  0  0  0
 14 16  2  0  0  0  0
 17 18  2  0  0  0  0
 17 19  1  0  0  0  0
 19 20  1  0  0  0  0
 19 21  1  0  0  0  0
 21 22  1  0  0  0  0
 21 23  1  0  0  0  0
 21 24  1  0  0  0  0
M  CHG  1  15  -1
M  END
$$$$

  -OEChem-01062216073D

 24 23  0     1  0  0  0  0  0999 V2000
   -2.9312   -3.3909    1.1193 H   0  0  0  0  0  0  0  0  0  0  0  0
   -2.8282   -2.3199    0.9237 C   0  0  0  0  0  0  0  0  0  0  0  0
   -2.9581   -1.7793    1.8648 H   0  0  0  0  0  0  0  0  0  0  0  0
   -3.6049   -2.0110    0.2204 H   0  0  0  0  0  0  0  0  0  0  0  0
   -1.4545   -2.0234    0.3487 C   0  0  0  0  0  0  0  0  0  0  0  0
   -0.7523   -2.9525   -0.0115 O   0  0  0  0  0  0  0  0  0  0  0  0
   -1.1496   -0.7283   -0.0132 N   0  0  0  0  0  0  0  0  0  0  0  0
   -1.9385   -0.0976    0.0769 H   0  0  0  0  0  0  0  0  0  0  0  0
    0.1445   -0.0390    0.1690 C   0  0  1  0  0  0  0  0  0  0  0  0
    0.0364    0.5708    1.0717 H   0  0  0  0  0  0  0  0  0  0  0  0
    1.4130   -0.9025    0.4079 C   0  0  0  0  0  0  0  0  0  0  0  0
    1.5112   -1.6428   -0.3905 H   0  0  0  0  0  0  0  0  0  0  0  0
    2.2990   -0.2641    0.3913 H   0  0  0  0  0  0  0  0  0  0  0  0
    1.4338   -1.6111    1.7632 C   0  0  0  0  0  0  0  0  0  0  0  0
    0.8240   -1.0647    2.7204 O   0  5  0  0  0  0  0  0  0  0  0  0
    2.2519   -2.5545    1.8911 O   0  0  0  0  0  0  0  0  0  0  0  0
    0.3190    0.9989   -0.9642 C   0  0  0  0  0  0  0  0  0  0  0  0
   -0.6172    1.7371   -1.2644 O   0  0  0  0  0  0  0  0  0  0  0  0
    1.5129    1.1296   -1.6514 N   0  0  0  0  0  0  0  0  0  0  0  0
    2.2354    0.4494   -1.4276 H   0  0  0  0  0  0  0  0  0  0  0  0
    1.7148    2.0408   -2.7672 C   0  0  0  0  0  0  0  0  0  0  0  0
    1.5302    3.0739   -2.4557 H   0  0  0  0  0  0  0  0  0  0  0  0
    2.7448    1.9678   -3.1288 H   0  0  0  0  0  0  0  0  0  0  0  0
    1.0384    1.7914   -3.5911 H   0  0  0  0  0  0  0  0  0  0  0  0
  1  2  1  0  0  0  0
  2  3  1  0  0  0  0
  2  4  1  0  0  0  0
  2  5  1  0  0  0  0
  5  6  2  0  0  0  0
  5  7  1  0  0  0  0
  7  8  1  0  0  0  0
  7  9  1  0  0  0  0
  9 10  1  0  0  0  0
  9 11  1  0  0  0  0
  9 17  1  0  0  0  0
 11 12  1  0  0  0  0
 11 13  1  0  0  0  0
 11 14  1  0  0  0  0
 14 15  1  0  0  0  0
 14 16  2  0  0  0  0
 17 18  2  0  0  0  0
 17 19  1  0  0  0  0
 19 20  1  0  0  0  0
 19 21  1  0  0  0  0
 21 22  1  0  0  0  0
 21 23  1  0  0  0  0
 21 24  1  0  0  0  0
M  CHG  1  15  -1
M  END
$$$$

  -OEChem-01062216073D

 24 23  0     1  0  0  0  0  0999 V2000
   -2.8272   -3.4089    1.2034 H   0  0  0  0  0  0  0  0  0  0  0  0
   -2.7477   -2.3334    1.0218 C   0  0  0  0  0  0  0  0  0  0  0  0
   -2.7564   -1.8158    1.9846 H   0  0  0  0  0  0  0  0  0  0  0  0
   -3.6056   -2.0077    0.4295 H   0  0  0  0  0  0  0  0  0  0  0  0
   -1.4552   -2.0227    0.2890 C   0  0  0  0  0  0  0  0  0  0  0  0
   -0.8085   -2.9365   -0.1957 O   0  0  0  0  0  0  0  0  0  0  0  0
   -1.1830   -0.7229   -0.0798 N   0  0  0  0  0  0  0  0  0  0  0  0
   -1.9717   -0.1075    0.0852 H   0  0  0  0  0  0  0  0  0  0  0  0
    0.1018   -0.0294    0.1403 C   0  0  1  0  0  0  0  0  0  0  0  0
   -0.0279    0.5764    1.0430 H   0  0  0  0  0  0  0  0  0  0  0  0
    1.3643   -0.8943    0.3995 C   0  0  0  0  0  0  0  0  0  0  0  0
    1.4812   -1.6294   -0.4013 H   0  0  0  0  0  0  0  0  0  0  0  0
    2.2482   -0.2520    0.4032 H   0  0  0  0  0  0  0  0  0  0  0  0
    1.3498   -1.6170    1.7472 C   0  0  0  0  0  0  0  0  0  0  0  0
    0.7157   -1.0816    2.6943 O   0  5  0  0  0  0  0  0  0  0  0  0
    2.1395   -2.5827    1.8800 O   0  0  0  0  0  0  0  0  0  0  0  0
    0.3076    1.0074   -0.9854 C   0  0  0  0  0  0  0  0  0  0  0  0
   -0.5359    1.8813   -1.1715 O   0  0  0  0  0  0  0  0  0  0  0  0
    1.3989    0.9394   -1.8329 N   0  0  0  0  0  0  0  0  0  0  0  0
    2.0177    0.1426   -1.7021 H   0  0  0  0  0  0  0  0  0  0  0  0
    1.5983    1.8177   -2.9752 C   0  0  0  0  0  0  0  0  0  0  0  0
    1.6376    2.8628   -2.6517 H   0  0  0  0  0  0  0  0  0  0  0  0
    2.5410    1.5751   -3.4745 H   0  0  0  0  0  0  0  0  0  0  0  0
    0.7828    1.6990   -3.6956 H   0  0  0  0  0  0  0  0  0  0  0  0
  1  2  1  0  0  0  0
  2  3  1  0  0  0  0
  2  4  1  0  0  0  0
  2  5  1  0  0  0  0
  5  6  2  0  0  0  0
  5  7  1  0  0  0  0
  7  8  1  0  0  0  0
  7  9  1  0  0  0  0
  9 10  1  0  0  0  0
  9 11  1  0  0  0  0
  9 17  1  0  0  0  0
 11 12  1  0  0  0  0
 11 13  1  0  0  0  0
 11 14  1  0  0  0  0
 14 15  1  0  0  0  0
 14 16  2  0  0  0  0
 17 18  2  0  0  0  0
 17 19  1  0  0  0  0
 19 20  1  0  0  0  0
 19 21  1  0  0  0  0
 21 22  1  0  0  0  0
 21 23  1  0  0  0  0
 21 24  1  0  0  0  0
M  CHG  1  15  -1
M  END
$$$$

  -OEChem-01062216073D

 24 23  0     1  0  0  0  0  0999 V2000
   -2.7366   -3.4186    1.2798 H   0  0  0  0  0  0  0  0  0  0  0  0
   -2.6725   -2.3406    1.1083 C   0  0  0  0  0  0  0  0  0  0  0  0
   -2.5758   -1.8396    2.0753 H   0  0  0  0  0  0  0  0  0  0  0  0
   -3.5873   -2.0024    0.6165 H   0  0  0  0  0  0  0  0  0  0  0  0
   -1.4635   -2.0211    0.2483 C   0  0  0  0  0  0  0  0  0  0  0  0
   -0.8772   -2.9216   -0.3303 O   0  0  0  0  0  0  0  0  0  0  0  0
   -1.2181   -0.7189   -0.1284 N   0  0  0  0  0  0  0  0  0  0  0  0
   -2.0066   -0.1193    0.0867 H   0  0  0  0  0  0  0  0  0  0  0  0
    0.0585   -0.0209    0.1211 C   0  0  1  0  0  0  0  0  0  0  0  0
   -0.0874    0.5788    1.0259 H   0  0  0  0  0  0  0  0  0  0  0  0
    1.3178   -0.8869    0.3887 C   0  0  0  0  0  0  0  0  0  0  0  0
    1.4457   -1.6145   -0.4174 H   0  0  0  0  0  0  0  0  0  0  0  0
    2.1998   -0.2417    0.4064 H   0  0  0  0  0  0  0  0  0  0  0  0
    1.2819   -1.6272    1.7263 C   0  0  0  0  0  0  0  0  0  0  0  0
    0.6316   -1.1058    2.6699 O   0  5  0  0  0  0  0  0  0  0  0  0
    2.0482   -2.6119    1.8525 O   0  0  0  0  0  0  0  0  0  0  0  0
    0.2911    1.0149   -0.9974 C   0  0  0  0  0  0  0  0  0  0  0  0
   -0.4211    2.0128   -1.0678 O   0  0  0  0  0  0  0  0  0  0  0  0
    1.2183    0.7780   -1.9958 N   0  0  0  0  0  0  0  0  0  0  0  0
    1.7027   -0.1156   -1.9524 H   0  0  0  0  0  0  0  0  0  0  0  0
    1.4078    1.6388   -3.1527 C   0  0  0  0  0  0  0  0  0  0  0  0
    1.6547    2.6571   -2.8355 H   0  0  0  0  0  0  0  0  0  0  0  0
    2.2281    1.2615   -3.7702 H   0  0  0  0  0  0  0  0  0  0  0  0
    0.4982    1.6668   -3.7609 H   0  0  0  0  0  0  0  0  0  0  0  0
  1  2  1  0  0  0  0
  2  3  1  0  0  0  0
  2  4  1  0  0  0  0
  2  5  1  0  0  0  0
  5  6  2  0  0  0  0
  5  7  1  0  0  0  0
  7  8  1  0  0  0  0
  7  9  1  0  0  0  0
  9 10  1  0  0  0  0
  9 11  1  0  0  0  0
  9 17  1  0  0  0  0
 11 12  1  0  0  0  0
 11 13  1  0  0  0  0
 11 14  1  0  0  0  0
 14 15  1  0  0  0  0
 14 16  2  0  0  0  0
 17 18  2  0  0  0  0
 17 19  1  0  0  0  0
 19 20  1  0  0  0  0
 19 21  1  0  0  0  0
 21 22  1  0  0  0  0
 21 23  1  0  0  0  0
 21 24  1  0  0  0  0
M  CHG  1  15  -1
M  END
$$$$

  -OEChem-01062216073D

 24 23  0     1  0  0  0  0  0999 V2000
   -2.6638   -3.4296    1.3168 H   0  0  0  0  0  0  0  0  0  0  0  0
   -2.5976   -2.3476    1.1739 C   0  0  0  0  0  0  0  0  0  0  0  0
   -2.4017   -1.8801    2.1429 H   0  0  0  0  0  0  0  0  0  0  0  0
   -3.5483   -1.9806    0.7815 H   0  0  0  0  0  0  0  0  0  0  0  0
   -1.4687   -2.0175    0.2150 C   0  0  0  0  0  0  0  0  0  0  0  0
   -0.9451   -2.9035   -0.4417 O   0  0  0  0  0  0  0  0  0  0  0  0
   -1.2440   -0.7134   -0.1653 N   0  0  0  0  0  0  0  0  0  0  0  0
   -2.0345   -0.1293    0.0826 H   0  0  0  0  0  0  0  0  0  0  0  0
    0.0226   -0.0100    0.1152 C   0  0  1  0  0  0  0  0  0  0  0  0
   -0.1404    0.5825    1.0219 H   0  0  0  0  0  0  0  0  0  0  0  0
    1.2804   -0.8744    0.3906 C   0  0  0  0  0  0  0  0  0  0  0  0
    1.4232   -1.5914   -0.4224 H   0  0  0  0  0  0  0  0  0  0  0  0
    2.1590   -0.2255    0.4276 H   0  0  0  0  0  0  0  0  0  0  0  0
    1.2242   -1.6341    1.7166 C   0  0  0  0  0  0  0  0  0  0  0  0
    0.5559   -1.1289    2.6561 O   0  5  0  0  0  0  0  0  0  0  0  0
    1.9678   -2.6368    1.8344 O   0  0  0  0  0  0  0  0  0  0  0  0
    0.2744    1.0247   -0.9977 C   0  0  0  0  0  0  0  0  0  0  0  0
   -0.2636    2.1272   -0.9557 O   0  0  0  0  0  0  0  0  0  0  0  0
    0.9855    0.6613   -2.1262 N   0  0  0  0  0  0  0  0  0  0  0  0
    1.2951   -0.3074   -2.1642 H   0  0  0  0  0  0  0  0  0  0  0  0
    1.1446    1.5089   -3.2973 C   0  0  0  0  0  0  0  0  0  0  0  0
    1.6083    2.4610   -3.0202 H   0  0  0  0  0  0  0  0  0  0  0  0
    1.7855    1.0141   -4.0329 H   0  0  0  0  0  0  0  0  0  0  0  0
    0.1728    1.7081   -3.7598 H   0  0  0  0  0  0  0  0  0  0  0  0
  1  2  1  0  0  0  0
  2  3  1  0  0  0  0
  2  4  1  0  0  0  0
  2  5  1  0  0  0  0
  5  6  2  0  0  0  0
  5  7  1  0  0  0  0
  7  8  1  0  0  0  0
  7  9  1  0  0  0  0
  9 10  1  0  0  0  0
  9 11  1  0  0  0  0
  9 17  1  0  0  0  0
 11 12  1  0  0  0  0
 11 13  1  0  0  0  0
 11 14  1  0  0  0  0
 14 15  1  0  0  0  0
 14 16  2  0  0  0  0
 17 18  2  0  0  0  0
 17 19  1  0  0  0  0
 19 20  1  0  0  0  0
 19 21  1  0  0  0  0
 21 22  1  0  0  0  0
 21 23  1  0  0  0  0
 21 24  1  0  0  0  0
M  CHG  1  15  -1
M  END
$$$$

  -OEChem-01062216073D

 24 23  0     1  0  0  0  0  0999 V2000
   -2.5492   -3.4341    1.4156 H   0  0  0  0  0  0  0  0  0  0  0  0
   -2.5345   -2.3560    1.2339 C   0  0  0  0  0  0  0  0  0  0  0  0
   -2.2986   -1.8495    2.1741 H   0  0  0  0  0  0  0  0  0  0  0  0
   -3.5208   -2.0372    0.8901 H   0  0  0  0  0  0  0  0  0  0  0  0
   -1.4794   -2.0183    0.1969 C   0  0  0  0  0  0  0  0  0  0  0  0
   -1.0264   -2.8909   -0.5269 O   0  0  0  0  0  0  0  0  0  0  0  0
   -1.2704   -0.7136   -0.1873 N   0  0  0  0  0  0  0  0  0  0  0  0
   -2.0637   -0.1429    0.0810 H   0  0  0  0  0  0  0  0  0  0  0  0
   -0.0122   -0.0031    0.1150 C   0  0  1  0  0  0  0  0  0  0  0  0
   -0.1874    0.5823    1.0243 H   0  0  0  0  0  0  0  0  0  0  0  0
    1.2464   -0.8646    0.3892 C   0  0  0  0  0  0  0  0  0  0  0  0
    1.3992   -1.5685   -0.4333 H   0  0  0  0  0  0  0  0  0  0  0  0
    2.1213   -0.2114    0.4411 H   0  0  0  0  0  0  0  0  0  0  0  0
    1.1821   -1.6439    1.7031 C   0  0  0  0  0  0  0  0  0  0  0  0
    0.5030   -1.1559    2.6437 O   0  5  0  0  0  0  0  0  0  0  0  0
    1.9097   -2.6595    1.8059 O   0  0  0  0  0  0  0  0  0  0  0  0
    0.2534    1.0309   -0.9940 C   0  0  0  0  0  0  0  0  0  0  0  0
   -0.0565    2.2089   -0.8469 O   0  0  0  0  0  0  0  0  0  0  0  0
    0.7035    0.5956   -2.2261 N   0  0  0  0  0  0  0  0  0  0  0  0
    0.8230   -0.4105   -2.3258 H   0  0  0  0  0  0  0  0  0  0  0  0
    0.8459    1.4533   -3.3918 C   0  0  0  0  0  0  0  0  0  0  0  0
    1.5093    2.2951   -3.1682 H   0  0  0  0  0  0  0  0  0  0  0  0
    1.2756    0.8870   -4.2235 H   0  0  0  0  0  0  0  0  0  0  0  0
   -0.1295    1.8416   -3.7015 H   0  0  0  0  0  0  0  0  0  0  0  0
  1  2  1  0  0  0  0
  2  3  1  0  0  0  0
  2  4  1  0  0  0  0
  2  5  1  0  0  0  0
  5  6  2  0  0  0  0
  5  7  1  0  0  0  0
  7  8  1  0  0  0  0
  7  9  1  0  0  0  0
  9 10  1  0  0  0  0
  9 11  1  0  0  0  0
  9 17  1  0  0  0  0
 11 12  1  0  0  0  0
 11 13  1  0  0  0  0
 11 14  1  0  0  0  0
 14 15  1  0  0  0  0
 14 16  2  0  0  0  0
 17 18  2  0  0  0  0
 17 19  1  0  0  0  0
 19 20  1  0  0  0  0
 19 21  1  0  0  0  0
 21 22  1  0  0  0  0
 21 23  1  0  0  0  0
 21 24  1  0  0  0  0
M  CHG  1  15  -1
M  END
$$$$

  -OEChem-01062216073D

 24 23  0     1  0  0  0  0  0999 V2000
   -2.4676   -3.4410    1.4895 H   0  0  0  0  0  0  0  0  0  0  0  0
   -2.4993   -2.3692    1.2758 C   0  0  0  0  0  0  0  0  0  0  0  0
   -2.2609   -1.8265    2.1949 H   0  0  0  0  0  0  0  0  0  0  0  0
   -3.5050   -2.0980    0.9478 H   0  0  0  0  0  0  0  0  0  0  0  0
   -1.4837   -2.0254    0.2019 C   0  0  0  0  0  0  0  0  0  0  0  0
   -1.0861   -2.8868   -0.5667 O   0  0  0  0  0  0  0  0  0  0  0  0
   -1.2874   -0.7195   -0.1848 N   0  0  0  0  0  0  0  0  0  0  0  0
   -2.0844   -0.1601    0.0955 H   0  0  0  0  0  0  0  0  0  0  0  0
   -0.0363    0.0029    0.1241 C   0  0  1  0  0  0  0  0  0  0  0  0
   -0.2160    0.5838    1.0356 H   0  0  0  0  0  0  0  0  0  0  0  0
    1.2269   -0.8525    0.3896 C   0  0  0  0  0  0  0  0  0  0  0  0
    1.3827   -1.5466   -0.4409 H   0  0  0  0  0  0  0  0  0  0  0  0
    2.0979   -0.1947    0.4472 H   0  0  0  0  0  0  0  0  0  0  0  0
    1.1672   -1.6449    1.6958 C   0  0  0  0  0  0  0  0  0  0  0  0
    0.4849   -1.1701    2.6409 O   0  5  0  0  0  0  0  0  0  0  0  0
    1.8840   -2.6694    1.7832 O   0  0  0  0  0  0  0  0  0  0  0  0
    0.2267    1.0373   -0.9857 C   0  0  0  0  0  0  0  0  0  0  0  0
    0.1800    2.2420   -0.7607 O   0  0  0  0  0  0  0  0  0  0  0  0
    0.3807    0.5939   -2.2855 N   0  0  0  0  0  0  0  0  0  0  0  0
    0.3181   -0.4134   -2.4220 H   0  0  0  0  0  0  0  0  0  0  0  0
    0.5229    1.4697   -3.4379 C   0  0  0  0  0  0  0  0  0  0  0  0
    1.3793    2.1392   -3.3070 H   0  0  0  0  0  0  0  0  0  0  0  0
    0.6845    0.8756   -4.3421 H   0  0  0  0  0  0  0  0  0  0  0  0
   -0.3812    2.0717   -3.5734 H   0  0  0  0  0  0  0  0  0  0  0  0
  1  2  1  0  0  0  0
  2  3  1  0  0  0  0
  2  4  1  0  0  0  0
  2  5  1  0  0  0  0
  5  6  2  0  0  0  0
  5  7  1  0  0  0  0
  7  8  1  0  0  0  0
  7  9  1  0  0  0  0
  9 10  1  0  0  0  0
  9 11  1  0  0  0  0
  9 17  1  0  0  0  0
 11 12  1  0  0  0  0
 11 13  1  0  0  0  0
 11 14  1  0  0  0  0
 14 15  1  0  0  0  0
 14 16  2  0  0  0  0
 17 18  2  0  0  0  0
 17 19  1  0  0  0  0
 19 20  1  0  0  0  0
 19 21  1  0  0  0  0
 21 22  1  0  0  0  0
 21 23  1  0  0  0  0
 21 24  1  0  0  0  0
M  CHG  1  15  -1
M  END
$$$$

  -OEChem-01062216073D

 24 23  0     1  0  0  0  0  0999 V2000
   -2.4153   -3.4827    1.5162 H   0  0  0  0  0  0  0  0  0  0  0  0
   -2.4706   -2.4109    1.3070 C   0  0  0  0  0  0  0  0  0  0  0  0
   -2.2257   -1.8668    2.2234 H   0  0  0  0  0  0  0  0  0  0  0  0
   -3.4869   -2.1572    0.9982 H   0  0  0  0  0  0  0  0  0  0  0  0
   -1.4815   -2.0456    0.2156 C   0  0  0  0  0  0  0  0  0  0  0  0
   -1.1139   -2.8898   -0.5858 O   0  0  0  0  0  0  0  0  0  0  0  0
   -1.3122   -0.7345   -0.1656 N   0  0  0  0  0  0  0  0  0  0  0  0
   -2.1169   -0.1945    0.1304 H   0  0  0  0  0  0  0  0  0  0  0  0
   -0.0720    0.0119    0.1381 C   0  0  1  0  0  0  0  0  0  0  0  0
   -0.2543    0.5842    1.0543 H   0  0  0  0  0  0  0  0  0  0  0  0
    1.2076   -0.8239    0.3828 C   0  0  0  0  0  0  0  0  0  0  0  0
    1.3666   -1.5061   -0.4570 H   0  0  0  0  0  0  0  0  0  0  0  0
    2.0679   -0.1516    0.4388 H   0  0  0  0  0  0  0  0  0  0  0  0
    1.1726   -1.6290    1.6822 C   0  0  0  0  0  0  0  0  0  0  0  0
    0.4909   -1.1740    2.6375 O   0  5  0  0  0  0  0  0  0  0  0  0
    1.8958   -2.6505    1.7501 O   0  0  0  0  0  0  0  0  0  0  0  0
    0.1667    1.0582   -0.9673 C   0  0  0  0  0  0  0  0  0  0  0  0
    0.4041    2.2316   -0.7029 O   0  0  0  0  0  0  0  0  0  0  0  0
    0.0108    0.6776   -2.2868 N   0  0  0  0  0  0  0  0  0  0  0  0
   -0.1789   -0.3111   -2.4428 H   0  0  0  0  0  0  0  0  0  0  0  0
    0.2169    1.5609   -3.4234 C   0  0  0  0  0  0  0  0  0  0  0  0
    1.2477    1.9289   -3.4388 H   0  0  0  0  0  0  0  0  0  0  0  0
    0.0267    1.0216   -4.3561 H   0  0  0  0  0  0  0  0  0  0  0  0
   -0.4651    2.4156   -3.3726 H   0  0  0  0  0  0  0  0  0  0  0  0
  1  2  1  0  0  0  0
  2  3  1  0  0  0  0
  2  4  1  0  0  0  0
  2  5  1  0  0  0  0
  5  6  2  0  0  0  0
  5  7  1  0  0  0  0
  7  8  1  0  0  0  0
  7  9  1  0  0  0  0
  9 10  1  0  0  0  0
  9 11  1  0  0  0  0
  9 17  1  0  0  0  0
 11 12  1  0  0  0  0
 11 13  1  0  0  0  0
 11 14  1  0  0  0  0
 14 15  1  0  0  0  0
 14 16  2  0  0  0  0
 17 18  2  0  0  0  0
 17 19  1  0  0  0  0
 19 20  1  0  0  0  0
 19 21  1  0  0  0  0
 21 22  1  0  0  0  0
 21 23  1  0  0  0  0
 21 24  1  0  0  0  0
M  CHG  1  15  -1
M  END
$$$$

  -OEChem-01062216073D

 24 23  0     1  0  0  0  0  0999 V2000
   -2.1658   -3.4586    1.6812 H   0  0  0  0  0  0  0  0  0  0  0  0
   -2.3899   -2.4361    1.3655 C   0  0  0  0  0  0  0  0  0  0  0  0
   -2.2019   -1.7669    2.2095 H   0  0  0  0  0  0  0  0  0  0  0  0
   -3.4418   -2.3682    1.0804 H   0  0  0  0  0  0  0  0  0  0  0  0
   -1.5020   -2.0563    0.1947 C   0  0  0  0  0  0  0  0  0  0  0  0
   -1.2703   -2.8747   -0.6809 O   0  0  0  0  0  0  0  0  0  0  0  0
   -1.3444   -0.7390   -0.1701 N   0  0  0  0  0  0  0  0  0  0  0  0
   -2.1519   -0.2146    0.1453 H   0  0  0  0  0  0  0  0  0  0  0  0
   -0.1111    0.0168    0.1463 C   0  0  1  0  0  0  0  0  0  0  0  0
   -0.2995    0.5731    1.0710 H   0  0  0  0  0  0  0  0  0  0  0  0
    1.1688   -0.8224    0.3790 C   0  0  0  0  0  0  0  0  0  0  0  0
    1.3279   -1.4901   -0.4725 H   0  0  0  0  0  0  0  0  0  0  0  0
    2.0292   -0.1513    0.4460 H   0  0  0  0  0  0  0  0  0  0  0  0
    1.1349   -1.6483    1.6650 C   0  0  0  0  0  0  0  0  0  0  0  0
    0.4537   -1.2097    2.6280 O   0  5  0  0  0  0  0  0  0  0  0  0
    1.8317   -2.6891    1.7048 O   0  0  0  0  0  0  0  0  0  0  0  0
    0.1336    1.0856   -0.9396 C   0  0  0  0  0  0  0  0  0  0  0  0
    0.6341    2.1717   -0.6701 O   0  0  0  0  0  0  0  0  0  0  0  0
   -0.2989    0.8445   -2.2308 N   0  0  0  0  0  0  0  0  0  0  0  0
   -0.6273   -0.1033   -2.4094 H   0  0  0  0  0  0  0  0  0  0  0  0
   -0.0421    1.7355   -3.3516 C   0  0  0  0  0  0  0  0  0  0  0  0
    1.0351    1.8445   -3.5129 H   0  0  0  0  0  0  0  0  0  0  0  0
   -0.4913    1.3300   -4.2629 H   0  0  0  0  0  0  0  0  0  0  0  0
   -0.4748    2.7232   -3.1633 H   0  0  0  0  0  0  0  0  0  0  0  0
  1  2  1  0  0  0  0
  2  3  1  0  0  0  0
  2  4  1  0  0  0  0
  2  5  1  0  0  0  0
  5  6  2  0  0  0  0
  5  7  1  0  0  0  0
  7  8  1  0  0  0  0
  7  9  1  0  0  0  0
  9 10  1  0  0  0  0
  9 11  1  0  0  0  0
  9 17  1  0  0  0  0
 11 12  1  0  0  0  0
 11 13  1  0  0  0  0
 11 14  1  0  0  0  0
 14 15  1  0  0  0  0
 14 16  2  0  0  0  0
 17 18  2  0  0  0  0
 17 19  1  0  0  0  0
 19 20  1  0  0  0  0
 19 21  1  0  0  0  0
 21 22  1  0  0  0  0
 21 23  1  0  0  0  0
 21 24  1  0  0  0  0
M  CHG  1  15  -1
M  END
$$$$

  -OEChem-01062216073D

 24 23  0     1  0  0  0  0  0999 V2000
   -2.1514   -3.4838    1.6572 H   0  0  0  0  0  0  0  0  0  0  0  0
   -2.3703   -2.4545    1.3597 C   0  0  0  0  0  0  0  0  0  0  0  0
   -2.1702   -1.8003    2.2126 H   0  0  0  0  0  0  0  0  0  0  0  0
   -3.4242   -2.3740    1.0852 H   0  0  0  0  0  0  0  0  0  0  0  0
   -1.4908   -2.0629    0.1865 C   0  0  0  0  0  0  0  0  0  0  0  0
   -1.2960   -2.8654   -0.7124 O   0  0  0  0  0  0  0  0  0  0  0  0
   -1.3373   -0.7407   -0.1628 N   0  0  0  0  0  0  0  0  0  0  0  0
   -2.1458   -0.2259    0.1658 H   0  0  0  0  0  0  0  0  0  0  0  0
   -0.1075    0.0208    0.1605 C   0  0  1  0  0  0  0  0  0  0  0  0
   -0.3021    0.5697    1.0880 H   0  0  0  0  0  0  0  0  0  0  0  0
    1.1711   -0.8213    0.3962 C   0  0  0  0  0  0  0  0  0  0  0  0
    1.3324   -1.4864   -0.4569 H   0  0  0  0  0  0  0  0  0  0  0  0
    2.0333   -0.1533    0.4694 H   0  0  0  0  0  0  0  0  0  0  0  0
    1.1306   -1.6506    1.6797 C   0  0  0  0  0  0  0  0  0  0  0  0
    0.4460   -1.2130    2.6409 O   0  5  0  0  0  0  0  0  0  0  0  0
    1.8152   -2.6994    1.7167 O   0  0  0  0  0  0  0  0  0  0  0  0
    0.1380    1.1071   -0.9115 C   0  0  0  0  0  0  0  0  0  0  0  0
    0.8522    2.0786   -0.6906 O   0  0  0  0  0  0  0  0  0  0  0  0
   -0.5445    1.0401   -2.1133 N   0  0  0  0  0  0  0  0  0  0  0  0
   -1.0056    0.1499   -2.2919 H   0  0  0  0  0  0  0  0  0  0  0  0
   -0.3092    1.9499   -3.2240 C   0  0  0  0  0  0  0  0  0  0  0  0
    0.7161    1.8440   -3.5926 H   0  0  0  0  0  0  0  0  0  0  0  0
   -0.9995    1.7276   -4.0430 H   0  0  0  0  0  0  0  0  0  0  0  0
   -0.4688    2.9870   -2.9118 H   0  0  0  0  0  0  0  0  0  0  0  0
  1  2  1  0  0  0  0
  2  3  1  0  0  0  0
  2  4  1  0  0  0  0
  2  5  1  0  0  0  0
  5  6  2  0  0  0  0
  5  7  1  0  0  0  0
  7  8  1  0  0  0  0
  7  9  1  0  0  0  0
  9 10  1  0  0  0  0
  9 11  1  0  0  0  0
  9 17  1  0  0  0  0
 11 12  1  0  0  0  0
 11 13  1  0  0  0  0
 11 14  1  0  0  0  0
 14 15  1  0  0  0  0
 14 16  2  0  0  0  0
 17 18  2  0  0  0  0
 17 19  1  0  0  0  0
 19 20  1  0  0  0  0
 19 21  1  0  0  0  0
 21 22  1  0  0  0  0
 21 23  1  0  0  0  0
 21 24  1  0  0  0  0
M  CHG  1  15  -1
M  END
$$$$

  -OEChem-01062216073D

 24 23  0     1  0  0  0  0  0999 V2000
   -2.0637   -3.4729    1.6759 H   0  0  0  0  0  0  0  0  0  0  0  0
   -2.3393   -2.4667    1.3485 C   0  0  0  0  0  0  0  0  0  0  0  0
   -2.1780   -1.7785    2.1824 H   0  0  0  0  0  0  0  0  0  0  0  0
   -3.3958   -2.4533    1.0720 H   0  0  0  0  0  0  0  0  0  0  0  0
   -1.4813   -2.0632    0.1632 C   0  0  0  0  0  0  0  0  0  0  0  0
   -1.3276   -2.8510   -0.7562 O   0  0  0  0  0  0  0  0  0  0  0  0
   -1.3248   -0.7360   -0.1674 N   0  0  0  0  0  0  0  0  0  0  0  0
   -2.1279   -0.2286    0.1846 H   0  0  0  0  0  0  0  0  0  0  0  0
   -0.0922    0.0196    0.1639 C   0  0  1  0  0  0  0  0  0  0  0  0
   -0.2886    0.5623    1.0944 H   0  0  0  0  0  0  0  0  0  0  0  0
    1.1771   -0.8367    0.4075 C   0  0  0  0  0  0  0  0  0  0  0  0
    1.3373   -1.5024   -0.4453 H   0  0  0  0  0  0  0  0  0  0  0  0
    2.0476   -0.1805    0.4892 H   0  0  0  0  0  0  0  0  0  0  0  0
    1.1179   -1.6654    1.6909 C   0  0  0  0  0  0  0  0  0  0  0  0
    0.4310   -1.2196    2.6471 O   0  5  0  0  0  0  0  0  0  0  0  0
    1.7796   -2.7288    1.7291 O   0  0  0  0  0  0  0  0  0  0  0  0
    0.1585    1.1240   -0.8920 C   0  0  0  0  0  0  0  0  0  0  0  0
    1.0486    1.9562   -0.7577 O   0  0  0  0  0  0  0  0  0  0  0  0
   -0.7248    1.2704   -1.9481 N   0  0  0  0  0  0  0  0  0  0  0  0
   -1.3227    0.4633   -2.1111 H   0  0  0  0  0  0  0  0  0  0  0  0
   -0.5192    2.2180   -3.0339 C   0  0  0  0  0  0  0  0  0  0  0  0
    0.4101    1.9918   -3.5667 H   0  0  0  0  0  0  0  0  0  0  0  0
   -1.3503    2.1618   -3.7430 H   0  0  0  0  0  0  0  0  0  0  0  0
   -0.4660    3.2405   -2.6464 H   0  0  0  0  0  0  0  0  0  0  0  0
  1  2  1  0  0  0  0
  2  3  1  0  0  0  0
  2  4  1  0  0  0  0
  2  5  1  0  0  0  0
  5  6  2  0  0  0  0
  5  7  1  0  0  0  0
  7  8  1  0  0  0  0
  7  9  1  0  0  0  0
  9 10  1  0  0  0  0
  9 11  1  0  0  0  0
  9 17  1  0  0  0  0
 11 12  1  0  0  0  0
 11 13  1  0  0  0  0
 11 14  1  0  0  0  0
 14 15  1  0  0  0  0
 14 16  2  0  0  0  0
 17 18  2  0  0  0  0
 17 19  1  0  0  0  0
 19 20  1  0  0  0  0
 19 21  1  0  0  0  0
 21 22  1  0  0  0  0
 21 23  1  0  0  0  0
 21 24  1  0  0  0  0
M  CHG  1  15  -1
M  END
$$$$

  -OEChem-01062216073D

 24 23  0     1  0  0  0  0  0999 V2000
   -2.1173   -3.5067    1.5894 H   0  0  0  0  0  0  0  0  0  0  0  0
   -2.3411   -2.4744    1.3067 C   0  0  0  0  0  0  0  0  0  0  0  0
   -2.1518   -1.8332    2.1717 H   0  0  0  0  0  0  0  0  0  0  0  0
   -3.3937   -2.3972    1.0262 H   0  0  0  0  0  0  0  0  0  0  0  0
   -1.4560   -2.0598    0.1454 C   0  0  0  0  0  0  0  0  0  0  0  0
   -1.2541   -2.8497   -0.7626 O   0  0  0  0  0  0  0  0  0  0  0  0
   -1.2992   -0.7294   -0.1747 N   0  0  0  0  0  0  0  0  0  0  0  0
   -2.0930   -0.2271    0.2047 H   0  0  0  0  0  0  0  0  0  0  0  0
   -0.0598    0.0165    0.1550 C   0  0  1  0  0  0  0  0  0  0  0  0
   -0.2591    0.5630    1.0826 H   0  0  0  0  0  0  0  0  0  0  0  0
    1.1989   -0.8516    0.4220 C   0  0  0  0  0  0  0  0  0  0  0  0
    1.3590   -1.5317   -0.4192 H   0  0  0  0  0  0  0  0  0  0  0  0
    2.0776   -0.2073    0.5037 H   0  0  0  0  0  0  0  0  0  0  0  0
    1.1156   -1.6586    1.7187 C   0  0  0  0  0  0  0  0  0  0  0  0
    0.4243   -1.1872    2.6598 O   0  5  0  0  0  0  0  0  0  0  0  0
    1.7643   -2.7285    1.7844 O   0  0  0  0  0  0  0  0  0  0  0  0
    0.1916    1.1318   -0.8920 C   0  0  0  0  0  0  0  0  0  0  0  0
    1.2160    1.8055   -0.8961 O   0  0  0  0  0  0  0  0  0  0  0  0
   -0.8327    1.5028   -1.7478 N   0  0  0  0  0  0  0  0  0  0  0  0
   -1.5621    0.8036   -1.8567 H   0  0  0  0  0  0  0  0  0  0  0  0
   -0.6656    2.4966   -2.7990 C   0  0  0  0  0  0  0  0  0  0  0  0
    0.0929    2.1687   -3.5171 H   0  0  0  0  0  0  0  0  0  0  0  0
   -1.6102    2.6422   -3.3310 H   0  0  0  0  0  0  0  0  0  0  0  0
   -0.3590    3.4579   -2.3739 H   0  0  0  0  0  0  0  0  0  0  0  0
  1  2  1  0  0  0  0
  2  3  1  0  0  0  0
  2  4  1  0  0  0  0
  2  5  1  0  0  0  0
  5  6  2  0  0  0  0
  5  7  1  0  0  0  0
  7  8  1  0  0  0  0
  7  9  1  0  0  0  0
  9 10  1  0  0  0  0
  9 11  1  0  0  0  0
  9 17  1  0  0  0  0
 11 12  1  0  0  0  0
 11 13  1  0  0  0  0
 11 14  1  0  0  0  0
 14 15  1  0  0  0  0
 14 16  2  0  0  0  0
 17 18  2  0  0  0  0
 17 19  1  0  0  0  0
 19 20  1  0  0  0  0
 19 21  1  0  0  0  0
 21 22  1  0  0  0  0
 21 23  1  0  0  0  0
 21 24  1  0  0  0  0
M  CHG  1  15  -1
M  END
$$$$

  -OEChem-01062216073D

 24 23  0     1  0  0  0  0  0999 V2000
   -2.1336   -3.4989    1.5446 H   0  0  0  0  0  0  0  0  0  0  0  0
   -2.3472   -2.4639    1.2639 C   0  0  0  0  0  0  0  0  0  0  0  0
   -2.1637   -1.8280    2.1342 H   0  0  0  0  0  0  0  0  0  0  0  0
   -3.3960   -2.3787    0.9712 H   0  0  0  0  0  0  0  0  0  0  0  0
   -1.4453   -2.0497    0.1151 C   0  0  0  0  0  0  0  0  0  0  0  0
   -1.2235   -2.8421   -0.7857 O   0  0  0  0  0  0  0  0  0  0  0  0
   -1.2762   -0.7174   -0.1920 N   0  0  0  0  0  0  0  0  0  0  0  0
   -2.0576   -0.2159    0.2116 H   0  0  0  0  0  0  0  0  0  0  0  0
   -0.0237    0.0066    0.1358 C   0  0  1  0  0  0  0  0  0  0  0  0
   -0.2182    0.5560    1.0621 H   0  0  0  0  0  0  0  0  0  0  0  0
    1.2180   -0.8814    0.4213 C   0  0  0  0  0  0  0  0  0  0  0  0
    1.3745   -1.5733   -0.4110 H   0  0  0  0  0  0  0  0  0  0  0  0
    2.1072   -0.2521    0.5054 H   0  0  0  0  0  0  0  0  0  0  0  0
    1.1082   -1.6688    1.7284 C   0  0  0  0  0  0  0  0  0  0  0  0
    0.4184   -1.1703    2.6570 O   0  5  0  0  0  0  0  0  0  0  0  0
    1.7335   -2.7510    1.8155 O   0  0  0  0  0  0  0  0  0  0  0  0
    0.2347    1.1311   -0.9009 C   0  0  0  0  0  0  0  0  0  0  0  0
    1.3453    1.6135   -1.0938 O   0  0  0  0  0  0  0  0  0  0  0  0
   -0.8474    1.7398   -1.5165 N   0  0  0  0  0  0  0  0  0  0  0  0
   -1.7052    1.1984   -1.5053 H   0  0  0  0  0  0  0  0  0  0  0  0
   -0.7041    2.7828   -2.5227 C   0  0  0  0  0  0  0  0  0  0  0  0
   -0.1574    2.4032   -3.3919 H   0  0  0  0  0  0  0  0  0  0  0  0
   -1.6899    3.1234   -2.8525 H   0  0  0  0  0  0  0  0  0  0  0  0
   -0.1635    3.6416   -2.1114 H   0  0  0  0  0  0  0  0  0  0  0  0
  1  2  1  0  0  0  0
  2  3  1  0  0  0  0
  2  4  1  0  0  0  0
  2  5  1  0  0  0  0
  5  6  2  0  0  0  0
  5  7  1  0  0  0  0
  7  8  1  0  0  0  0
  7  9  1  0  0  0  0
  9 10  1  0  0  0  0
  9 11  1  0  0  0  0
  9 17  1  0  0  0  0
 11 12  1  0  0  0  0
 11 13  1  0  0  0  0
 11 14  1  0  0  0  0
 14 15  1  0  0  0  0
 14 16  2  0  0  0  0
 17 18  2  0  0  0  0
 17 19  1  0  0  0  0
 19 20  1  0  0  0  0
 19 21  1  0  0  0  0
 21 22  1  0  0  0  0
 21 23  1  0  0  0  0
 21 24  1  0  0  0  0
M  CHG  1  15  -1
M  END
$$$$

  -OEChem-01062216073D

 24 23  0     1  0  0  0  0  0999 V2000
   -2.2222   -3.5172    1.4489 H   0  0  0  0  0  0  0  0  0  0  0  0
   -2.3680   -2.4587    1.2166 C   0  0  0  0  0  0  0  0  0  0  0  0
   -2.1526   -1.8771    2.1170 H   0  0  0  0  0  0  0  0  0  0  0  0
   -3.4067   -2.2947    0.9220 H   0  0  0  0  0  0  0  0  0  0  0  0
   -1.4310   -2.0459    0.0957 C   0  0  0  0  0  0  0  0  0  0  0  0
   -1.1474   -2.8518   -0.7751 O   0  0  0  0  0  0  0  0  0  0  0  0
   -1.2567   -0.7132   -0.2097 N   0  0  0  0  0  0  0  0  0  0  0  0
   -2.0396   -0.2090    0.1848 H   0  0  0  0  0  0  0  0  0  0  0  0
    0.0017    0.0004    0.1156 C   0  0  1  0  0  0  0  0  0  0  0  0
   -0.1948    0.5566    1.0373 H   0  0  0  0  0  0  0  0  0  0  0  0
    1.2343   -0.8917    0.4273 C   0  0  0  0  0  0  0  0  0  0  0  0
    1.3936   -1.5996   -0.3909 H   0  0  0  0  0  0  0  0  0  0  0  0
    2.1266   -0.2661    0.5074 H   0  0  0  0  0  0  0  0  0  0  0  0
    1.1050   -1.6536    1.7488 C   0  0  0  0  0  0  0  0  0  0  0  0
    0.4102   -1.1302    2.6605 O   0  5  0  0  0  0  0  0  0  0  0  0
    1.7291   -2.7333    1.8690 O   0  0  0  0  0  0  0  0  0  0  0  0
    0.2687    1.1270   -0.9163 C   0  0  0  0  0  0  0  0  0  0  0  0
    1.3873    1.3960   -1.3404 O   0  0  0  0  0  0  0  0  0  0  0  0
   -0.7758    1.9580   -1.2913 N   0  0  0  0  0  0  0  0  0  0  0  0
   -1.7072    1.6471   -1.0429 H   0  0  0  0  0  0  0  0  0  0  0  0
   -0.6358    3.0274   -2.2702 C   0  0  0  0  0  0  0  0  0  0  0  0
   -0.3348    2.6204   -3.2409 H   0  0  0  0  0  0  0  0  0  0  0  0
   -1.5885    3.5508   -2.3929 H   0  0  0  0  0  0  0  0  0  0  0  0
    0.1155    3.7525   -1.9407 H   0  0  0  0  0  0  0  0  0  0  0  0
  1  2  1  0  0  0  0
  2  3  1  0  0  0  0
  2  4  1  0  0  0  0
  2  5  1  0  0  0  0
  5  6  2  0  0  0  0
  5  7  1  0  0  0  0
  7  8  1  0  0  0  0
  7  9  1  0  0  0  0
  9 10  1  0  0  0  0
  9 11  1  0  0  0  0
  9 17  1  0  0  0  0
 11 12  1  0  0  0  0
 11 13  1  0  0  0  0
 11 14  1  0  0  0  0
 14 15  1  0  0  0  0
 14 16  2  0  0  0  0
 17 18  2  0  0  0  0
 17 19  1  0  0  0  0
 19 20  1  0  0  0  0
 19 21  1  0  0  0  0
 21 22  1  0  0  0  0
 21 23  1  0  0  0  0
 21 24  1  0  0  0  0
M  CHG  1  15  -1
M  END
$$$$

  -OEChem-01062216073D

 24 23  0     1  0  0  0  0  0999 V2000
   -2.3749   -3.5195    1.3515 H   0  0  0  0  0  0  0  0  0  0  0  0
   -2.4266   -2.4430    1.1666 C   0  0  0  0  0  0  0  0  0  0  0  0
   -2.1954   -1.9217    2.0997 H   0  0  0  0  0  0  0  0  0  0  0  0
   -3.4379   -2.1817    0.8481 H   0  0  0  0  0  0  0  0  0  0  0  0
   -1.4205   -2.0530    0.0989 C   0  0  0  0  0  0  0  0  0  0  0  0
   -1.0314   -2.8907   -0.6979 O   0  0  0  0  0  0  0  0  0  0  0  0
   -1.2385   -0.7254   -0.2242 N   0  0  0  0  0  0  0  0  0  0  0  0
   -2.0331   -0.2023    0.1175 H   0  0  0  0  0  0  0  0  0  0  0  0
    0.0222   -0.0125    0.0879 C   0  0  1  0  0  0  0  0  0  0  0  0
   -0.1764    0.5585    0.9997 H   0  0  0  0  0  0  0  0  0  0  0  0
    1.2571   -0.8900    0.4243 C   0  0  0  0  0  0  0  0  0  0  0  0
    1.4223   -1.6183   -0.3745 H   0  0  0  0  0  0  0  0  0  0  0  0
    2.1450   -0.2560    0.4874 H   0  0  0  0  0  0  0  0  0  0  0  0
    1.1250   -1.6180    1.7652 C   0  0  0  0  0  0  0  0  0  0  0  0
    0.4234   -1.0722    2.6593 O   0  5  0  0  0  0  0  0  0  0  0  0
    1.7799   -2.6735    1.9298 O   0  0  0  0  0  0  0  0  0  0  0  0
    0.2903    1.0979   -0.9578 C   0  0  0  0  0  0  0  0  0  0  0  0
    1.3144    1.1593   -1.6289 O   0  0  0  0  0  0  0  0  0  0  0  0
   -0.6421    2.1131   -1.1064 N   0  0  0  0  0  0  0  0  0  0  0  0
   -1.4620    2.0800   -0.5126 H   0  0  0  0  0  0  0  0  0  0  0  0
   -0.4836    3.2266   -2.0311 C   0  0  0  0  0  0  0  0  0  0  0  0
   -0.3877    2.8599   -3.0582 H   0  0  0  0  0  0  0  0  0  0  0  0
   -1.3561    3.8845   -1.9792 H   0  0  0  0  0  0  0  0  0  0  0  0
    0.4071    3.8106   -1.7781 H   0  0  0  0  0  0  0  0  0  0  0  0
  1  2  1  0  0  0  0
  2  3  1  0  0  0  0
  2  4  1  0  0  0  0
  2  5  1  0  0  0  0
  5  6  2  0  0  0  0
  5  7  1  0  0  0  0
  7  8  1  0  0  0  0
  7  9  1  0  0  0  0
  9 10  1  0  0  0  0
  9 11  1  0  0  0  0
  9 17  1  0  0  0  0
 11 12  1  0  0  0  0
 11 13  1  0  0  0  0
 11 14  1  0  0  0  0
 14 15  1  0  0  0  0
 14 16  2  0  0  0  0
 17 18  2  0  0  0  0
 17 19  1  0  0  0  0
 19 20  1  0  0  0  0
 19 21  1  0  0  0  0
 21 22  1  0  0  0  0
 21 23  1  0  0  0  0
 21 24  1  0  0  0  0
M  CHG  1  15  -1
M  END
$$$$

  -OEChem-01062216073D

 24 23  0     1  0  0  0  0  0999 V2000
   -2.5055   -3.5184    1.2626 H   0  0  0  0  0  0  0  0  0  0  0  0
   -2.4753   -2.4326    1.1373 C   0  0  0  0  0  0  0  0  0  0  0  0
   -2.2271   -1.9795    2.1013 H   0  0  0  0  0  0  0  0  0  0  0  0
   -3.4588   -2.0831    0.8164 H   0  0  0  0  0  0  0  0  0  0  0  0
   -1.4210   -2.0575    0.1117 C   0  0  0  0  0  0  0  0  0  0  0  0
   -0.9574   -2.9167   -0.6193 O   0  0  0  0  0  0  0  0  0  0  0  0
   -1.2360   -0.7348   -0.2300 N   0  0  0  0  0  0  0  0  0  0  0  0
   -2.0388   -0.1982    0.0698 H   0  0  0  0  0  0  0  0  0  0  0  0
    0.0228   -0.0154    0.0687 C   0  0  1  0  0  0  0  0  0  0  0  0
   -0.1783    0.5639    0.9744 H   0  0  0  0  0  0  0  0  0  0  0  0
    1.2666   -0.8735    0.4155 C   0  0  0  0  0  0  0  0  0  0  0  0
    1.4360   -1.6140   -0.3713 H   0  0  0  0  0  0  0  0  0  0  0  0
    2.1474   -0.2286    0.4616 H   0  0  0  0  0  0  0  0  0  0  0  0
    1.1453   -1.5807    1.7687 C   0  0  0  0  0  0  0  0  0  0  0  0
    0.4396   -1.0258    2.6545 O   0  5  0  0  0  0  0  0  0  0  0  0
    1.8354   -2.6090    1.9598 O   0  0  0  0  0  0  0  0  0  0  0  0
    0.2917    1.0796   -0.9896 C   0  0  0  0  0  0  0  0  0  0  0  0
    1.1547    0.9823   -1.8546 O   0  0  0  0  0  0  0  0  0  0  0  0
   -0.4566    2.2453   -0.9419 N   0  0  0  0  0  0  0  0  0  0  0  0
   -1.0793    2.3588   -0.1498 H   0  0  0  0  0  0  0  0  0  0  0  0
   -0.2314    3.3789   -1.8275 C   0  0  0  0  0  0  0  0  0  0  0  0
   -0.3499    3.0772   -2.8733 H   0  0  0  0  0  0  0  0  0  0  0  0
   -0.9539    4.1719   -1.6135 H   0  0  0  0  0  0  0  0  0  0  0  0
    0.7773    3.7801   -1.6858 H   0  0  0  0  0  0  0  0  0  0  0  0
  1  2  1  0  0  0  0
  2  3  1  0  0  0  0
  2  4  1  0  0  0  0
  2  5  1  0  0  0  0
  5  6  2  0  0  0  0
  5  7  1  0  0  0  0
  7  8  1  0  0  0  0
  7  9  1  0  0  0  0
  9 10  1  0  0  0  0
  9 11  1  0  0  0  0
  9 17  1  0  0  0  0
 11 12  1  0  0  0  0
 11 13  1  0  0  0  0
 11 14  1  0  0  0  0
 14 15  1  0  0  0  0
 14 16  2  0  0  0  0
 17 18  2  0  0  0  0
 17 19  1  0  0  0  0
 19 20  1  0  0  0  0
 19 21  1  0  0  0  0
 21 22  1  0  0  0  0
 21 23  1  0  0  0  0
 21 24  1  0  0  0  0
M  CHG  1  15  -1
M  END
$$$$

  -OEChem-01062216073D

 24 23  0     1  0  0  0  0  0999 V2000
   -2.8204   -3.4668    1.1274 H   0  0  0  0  0  0  0  0  0  0  0  0
   -2.7544   -2.3891    0.9532 C   0  0  0  0  0  0  0  0  0  0  0  0
   -2.8151   -1.8768    1.9170 H   0  0  0  0  0  0  0  0  0  0  0  0
   -3.5930   -2.0795    0.3253 H   0  0  0  0  0  0  0  0  0  0  0  0
   -1.4388   -2.0498    0.2753 C   0  0  0  0  0  0  0  0  0  0  0  0
   -0.7471   -2.9575   -0.1506 O   0  0  0  0  0  0  0  0  0  0  0  0
   -1.1922   -0.7370   -0.0739 N   0  0  0  0  0  0  0  0  0  0  0  0
   -1.9935   -0.1520    0.1217 H   0  0  0  0  0  0  0  0  0  0  0  0
    0.0949   -0.0293    0.1108 C   0  0  1  0  0  0  0  0  0  0  0  0
   -0.0416    0.5598    1.0219 H   0  0  0  0  0  0  0  0  0  0  0  0
    1.3741   -0.8594    0.3774 C   0  0  0  0  0  0  0  0  0  0  0  0
    1.4946   -1.6151   -0.4033 H   0  0  0  0  0  0  0  0  0  0  0  0
    2.2442   -0.1995    0.3371 H   0  0  0  0  0  0  0  0  0  0  0  0
    1.3770   -1.5350    1.7527 C   0  0  0  0  0  0  0  0  0  0  0  0
    0.7357   -0.9671    2.6797 O   0  5  0  0  0  0  0  0  0  0  0  0
    2.1714   -2.4898    1.9295 O   0  0  0  0  0  0  0  0  0  0  0  0
    0.2932    1.0491   -0.9774 C   0  0  0  0  0  0  0  0  0  0  0  0
    0.7826    0.8079   -2.0749 O   0  0  0  0  0  0  0  0  0  0  0  0
   -0.1726    2.3311   -0.7334 N   0  0  0  0  0  0  0  0  0  0  0  0
   -0.4526    2.5371    0.2204 H   0  0  0  0  0  0  0  0  0  0  0  0
    0.0041    3.4358   -1.6652 C   0  0  0  0  0  0  0  0  0  0  0  0
   -0.4426    3.1941   -2.6351 H   0  0  0  0  0  0  0  0  0  0  0  0
   -0.4824    4.3353   -1.2770 H   0  0  0  0  0  0  0  0  0  0  0  0
    1.0685    3.6487   -1.8078 H   0  0  0  0  0  0  0  0  0  0  0  0
  1  2  1  0  0  0  0
  2  3  1  0  0  0  0
  2  4  1  0  0  0  0
  2  5  1  0  0  0  0
  5  6  2  0  0  0  0
  5  7  1  0  0  0  0
  7  8  1  0  0  0  0
  7  9  1  0  0  0  0
  9 10  1  0  0  0  0
  9 11  1  0  0  0  0
  9 17  1  0  0  0  0
 11 12  1  0  0  0  0
 11 13  1  0  0  0  0
 11 14  1  0  0  0  0
 14 15  1  0  0  0  0
 14 16  2  0  0  0  0
 17 18  2  0  0  0  0
 17 19  1  0  0  0  0
 19 20  1  0  0  0  0
 19 21  1  0  0  0  0
 21 22  1  0  0  0  0
 21 23  1  0  0  0  0
 21 24  1  0  0  0  0
M  CHG  1  15  -1
M  END
$$$$

  -OEChem-01062216073D

 24 23  0     1  0  0  0  0  0999 V2000
   -2.9523   -3.4315    1.0819 H   0  0  0  0  0  0  0  0  0  0  0  0
   -2.8696   -2.3670    0.8446 C   0  0  0  0  0  0  0  0  0  0  0  0
   -3.1008   -1.7907    1.7438 H   0  0  0  0  0  0  0  0  0  0  0  0
   -3.5920   -2.1217    0.0625 H   0  0  0  0  0  0  0  0  0  0  0  0
   -1.4620   -2.0439    0.3748 C   0  0  0  0  0  0  0  0  0  0  0  0
   -0.7002   -2.9664    0.1512 O   0  0  0  0  0  0  0  0  0  0  0  0
   -1.1763   -0.7407    0.0184 N   0  0  0  0  0  0  0  0  0  0  0  0
   -1.9816   -0.1346    0.1018 H   0  0  0  0  0  0  0  0  0  0  0  0
    0.1207   -0.0379    0.1390 C   0  0  1  0  0  0  0  0  0  0  0  0
    0.0122    0.5535    1.0521 H   0  0  0  0  0  0  0  0  0  0  0  0
    1.4193   -0.8489    0.3613 C   0  0  0  0  0  0  0  0  0  0  0  0
    1.5076   -1.6164   -0.4123 H   0  0  0  0  0  0  0  0  0  0  0  0
    2.2792   -0.1813    0.2676 H   0  0  0  0  0  0  0  0  0  0  0  0
    1.5048   -1.5072    1.7420 C   0  0  0  0  0  0  0  0  0  0  0  0
    0.9045   -0.9360    2.6941 O   0  5  0  0  0  0  0  0  0  0  0  0
    2.3573   -2.4164    1.8916 O   0  0  0  0  0  0  0  0  0  0  0  0
    0.2885    1.0334   -0.9602 C   0  0  0  0  0  0  0  0  0  0  0  0
    0.3978    0.7476   -2.1472 O   0  0  0  0  0  0  0  0  0  0  0  0
    0.1488    2.3682   -0.6172 N   0  0  0  0  0  0  0  0  0  0  0  0
    0.1589    2.5813    0.3761 H   0  0  0  0  0  0  0  0  0  0  0  0
    0.3128    3.4582   -1.5684 C   0  0  0  0  0  0  0  0  0  0  0  0
   -0.4138    3.3694   -2.3825 H   0  0  0  0  0  0  0  0  0  0  0  0
    0.1553    4.4190   -1.0695 H   0  0  0  0  0  0  0  0  0  0  0  0
    1.3225    3.4472   -1.9915 H   0  0  0  0  0  0  0  0  0  0  0  0
  1  2  1  0  0  0  0
  2  3  1  0  0  0  0
  2  4  1  0  0  0  0
  2  5  1  0  0  0  0
  5  6  2  0  0  0  0
  5  7  1  0  0  0  0
  7  8  1  0  0  0  0
  7  9  1  0  0  0  0
  9 10  1  0  0  0  0
  9 11  1  0  0  0  0
  9 17  1  0  0  0  0
 11 12  1  0  0  0  0
 11 13  1  0  0  0  0
 11 14  1  0  0  0  0
 14 15  1  0  0  0  0
 14 16  2  0  0  0  0
 17 18  2  0  0  0  0
 17 19  1  0  0  0  0
 19 20  1  0  0  0  0
 19 21  1  0  0  0  0
 21 22  1  0  0  0  0
 21 23  1  0  0  0  0
 21 24  1  0  0  0  0
M  CHG  1  15  -1
M  END
$$$$

  -OEChem-01062216073D

 24 23  0     1  0  0  0  0  0999 V2000
   -3.0280   -3.3932    1.0674 H   0  0  0  0  0  0  0  0  0  0  0  0
   -2.9272   -2.3450    0.7719 C   0  0  0  0  0  0  0  0  0  0  0  0
   -3.2664   -1.7153    1.5981 H   0  0  0  0  0  0  0  0  0  0  0  0
   -3.5554   -2.1615   -0.1030 H   0  0  0  0  0  0  0  0  0  0  0  0
   -1.4773   -2.0322    0.4458 C   0  0  0  0  0  0  0  0  0  0  0  0
   -0.6939   -2.9590    0.3596 O   0  0  0  0  0  0  0  0  0  0  0  0
   -1.1599   -0.7395    0.0788 N   0  0  0  0  0  0  0  0  0  0  0  0
   -1.9628   -0.1255    0.0395 H   0  0  0  0  0  0  0  0  0  0  0  0
    0.1444   -0.0458    0.1578 C   0  0  1  0  0  0  0  0  0  0  0  0
    0.0542    0.5529    1.0684 H   0  0  0  0  0  0  0  0  0  0  0  0
    1.4482   -0.8533    0.3582 C   0  0  0  0  0  0  0  0  0  0  0  0
    1.5115   -1.6327   -0.4060 H   0  0  0  0  0  0  0  0  0  0  0  0
    2.3058   -0.1886    0.2291 H   0  0  0  0  0  0  0  0  0  0  0  0
    1.5802   -1.4950    1.7425 C   0  0  0  0  0  0  0  0  0  0  0  0
    1.0102   -0.9143    2.7070 O   0  5  0  0  0  0  0  0  0  0  0  0
    2.4571   -2.3843    1.8736 O   0  0  0  0  0  0  0  0  0  0  0  0
    0.3021    1.0171   -0.9505 C   0  0  0  0  0  0  0  0  0  0  0  0
    0.0399    0.7783   -2.1247 O   0  0  0  0  0  0  0  0  0  0  0  0
    0.5029    2.3366   -0.5824 N   0  0  0  0  0  0  0  0  0  0  0  0
    0.7706    2.4978    0.3850 H   0  0  0  0  0  0  0  0  0  0  0  0
    0.6261    3.4286   -1.5373 C   0  0  0  0  0  0  0  0  0  0  0  0
   -0.2988    3.5407   -2.1120 H   0  0  0  0  0  0  0  0  0  0  0  0
    0.8211    4.3671   -1.0101 H   0  0  0  0  0  0  0  0  0  0  0  0
    1.4533    3.2405   -2.2292 H   0  0  0  0  0  0  0  0  0  0  0  0
  1  2  1  0  0  0  0
  2  3  1  0  0  0  0
  2  4  1  0  0  0  0
  2  5  1  0  0  0  0
  5  6  2  0  0  0  0
  5  7  1  0  0  0  0
  7  8  1  0  0  0  0
  7  9  1  0  0  0  0
  9 10  1  0  0  0  0
  9 11  1  0  0  0  0
  9 17  1  0  0  0  0
 11 12  1  0  0  0  0
 11 13  1  0  0  0  0
 11 14  1  0  0  0  0
 14 15  1  0  0  0  0
 14 16  2  0  0  0  0
 17 18  2  0  0  0  0
 17 19  1  0  0  0  0
 19 20  1  0  0  0  0
 19 21  1  0  0  0  0
 21 22  1  0  0  0  0
 21 23  1  0  0  0  0
 21 24  1  0  0  0  0
M  CHG  1  15  -1
M  END
$$$$

  -OEChem-01062216073D

 24 23  0     1  0  0  0  0  0999 V2000
   -3.0916   -3.3679    1.0461 H   0  0  0  0  0  0  0  0  0  0  0  0
   -2.9668   -2.3311    0.7209 C   0  0  0  0  0  0  0  0  0  0  0  0
   -3.3869   -1.6723    1.4847 H   0  0  0  0  0  0  0  0  0  0  0  0
   -3.5084   -2.1867   -0.2169 H   0  0  0  0  0  0  0  0  0  0  0  0
   -1.4938   -2.0184    0.5227 C   0  0  0  0  0  0  0  0  0  0  0  0
   -0.7023   -2.9411    0.5567 O   0  0  0  0  0  0  0  0  0  0  0  0
   -1.1524   -0.7355    0.1436 N   0  0  0  0  0  0  0  0  0  0  0  0
   -1.9458   -0.1332   -0.0376 H   0  0  0  0  0  0  0  0  0  0  0  0
    0.1563   -0.0471    0.1841 C   0  0  1  0  0  0  0  0  0  0  0  0
    0.0911    0.5594    1.0921 H   0  0  0  0  0  0  0  0  0  0  0  0
    1.4647   -0.8556    0.3508 C   0  0  0  0  0  0  0  0  0  0  0  0
    1.4998   -1.6389   -0.4112 H   0  0  0  0  0  0  0  0  0  0  0  0
    2.3197   -0.1946    0.1909 H   0  0  0  0  0  0  0  0  0  0  0  0
    1.6473   -1.4959    1.7290 C   0  0  0  0  0  0  0  0  0  0  0  0
    1.1119   -0.9151    2.7122 O   0  5  0  0  0  0  0  0  0  0  0  0
    2.5432   -2.3710    1.8272 O   0  0  0  0  0  0  0  0  0  0  0  0
    0.2936    1.0052   -0.9360 C   0  0  0  0  0  0  0  0  0  0  0  0
   -0.2658    0.8717   -2.0207 O   0  0  0  0  0  0  0  0  0  0  0  0
    0.8154    2.2469   -0.6182 N   0  0  0  0  0  0  0  0  0  0  0  0
    1.2907    2.3183    0.2782 H   0  0  0  0  0  0  0  0  0  0  0  0
    0.9445    3.3379   -1.5730 C   0  0  0  0  0  0  0  0  0  0  0  0
   -0.0406    3.6502   -1.9340 H   0  0  0  0  0  0  0  0  0  0  0  0
    1.4262    4.1971   -1.0967 H   0  0  0  0  0  0  0  0  0  0  0  0
    1.5544    3.0280   -2.4278 H   0  0  0  0  0  0  0  0  0  0  0  0
  1  2  1  0  0  0  0
  2  3  1  0  0  0  0
  2  4  1  0  0  0  0
  2  5  1  0  0  0  0
  5  6  2  0  0  0  0
  5  7  1  0  0  0  0
  7  8  1  0  0  0  0
  7  9  1  0  0  0  0
  9 10  1  0  0  0  0
  9 11  1  0  0  0  0
  9 17  1  0  0  0  0
 11 12  1  0  0  0  0
 11 13  1  0  0  0  0
 11 14  1  0  0  0  0
 14 15  1  0  0  0  0
 14 16  2  0  0  0  0
 17 18  2  0  0  0  0
 17 19  1  0  0  0  0
 19 20  1  0  0  0  0
 19 21  1  0  0  0  0
 21 22  1  0  0  0  0
 21 23  1  0  0  0  0
 21 24  1  0  0  0  0
M  CHG  1  15  -1
M  END
$$$$

  -OEChem-01062216073D

 24 23  0     1  0  0  0  0  0999 V2000
   -3.1075   -3.3511    1.0514 H   0  0  0  0  0  0  0  0  0  0  0  0
   -2.9740   -2.3198    0.7121 C   0  0  0  0  0  0  0  0  0  0  0  0
   -3.4116   -1.6487    1.4550 H   0  0  0  0  0  0  0  0  0  0  0  0
   -3.4935   -2.1904   -0.2404 H   0  0  0  0  0  0  0  0  0  0  0  0
   -1.4961   -2.0115    0.5439 C   0  0  0  0  0  0  0  0  0  0  0  0
   -0.7089   -2.9372    0.5965 O   0  0  0  0  0  0  0  0  0  0  0  0
   -1.1420   -0.7333    0.1607 N   0  0  0  0  0  0  0  0  0  0  0  0
   -1.9263   -0.1346   -0.0702 H   0  0  0  0  0  0  0  0  0  0  0  0
    0.1680   -0.0472    0.1958 C   0  0  1  0  0  0  0  0  0  0  0  0
    0.1139    0.5665    1.1002 H   0  0  0  0  0  0  0  0  0  0  0  0
    1.4721   -0.8669    0.3538 C   0  0  0  0  0  0  0  0  0  0  0  0
    1.4947   -1.6494   -0.4095 H   0  0  0  0  0  0  0  0  0  0  0  0
    2.3340   -0.2161    0.1901 H   0  0  0  0  0  0  0  0  0  0  0  0
    1.6599   -1.5134    1.7279 C   0  0  0  0  0  0  0  0  0  0  0  0
    1.1358   -0.9328    2.7170 O   0  5  0  0  0  0  0  0  0  0  0  0
    2.5560   -2.3896    1.8152 O   0  0  0  0  0  0  0  0  0  0  0  0
    0.2983    0.9975   -0.9330 C   0  0  0  0  0  0  0  0  0  0  0  0
   -0.4605    0.9980   -1.8995 O   0  0  0  0  0  0  0  0  0  0  0  0
    1.0916    2.1113   -0.7219 N   0  0  0  0  0  0  0  0  0  0  0  0
    1.7066    2.0802    0.0879 H   0  0  0  0  0  0  0  0  0  0  0  0
    1.2306    3.2015   -1.6758 C   0  0  0  0  0  0  0  0  0  0  0  0
    0.2669    3.6953   -1.8360 H   0  0  0  0  0  0  0  0  0  0  0  0
    1.9404    3.9427   -1.2968 H   0  0  0  0  0  0  0  0  0  0  0  0
    1.6009    2.8254   -2.6347 H   0  0  0  0  0  0  0  0  0  0  0  0
  1  2  1  0  0  0  0
  2  3  1  0  0  0  0
  2  4  1  0  0  0  0
  2  5  1  0  0  0  0
  5  6  2  0  0  0  0
  5  7  1  0  0  0  0
  7  8  1  0  0  0  0
  7  9  1  0  0  0  0
  9 10  1  0  0  0  0
  9 11  1  0  0  0  0
  9 17  1  0  0  0  0
 11 12  1  0  0  0  0
 11 13  1  0  0  0  0
 11 14  1  0  0  0  0
 14 15  1  0  0  0  0
 14 16  2  0  0  0  0
 17 18  2  0  0  0  0
 17 19  1  0  0  0  0
 19 20  1  0  0  0  0
 19 21  1  0  0  0  0
 21 22  1  0  0  0  0
 21 23  1  0  0  0  0
 21 24  1  0  0  0  0
M  CHG  1  15  -1
M  END
$$$$

  -OEChem-01062216073D

 24 23  0     1  0  0  0  0  0999 V2000
   -3.1033   -3.3544    1.0306 H   0  0  0  0  0  0  0  0  0  0  0  0
   -2.9657   -2.3141    0.7223 C   0  0  0  0  0  0  0  0  0  0  0  0
   -3.3806   -1.6627    1.4953 H   0  0  0  0  0  0  0  0  0  0  0  0
   -3.5032   -2.1487   -0.2145 H   0  0  0  0  0  0  0  0  0  0  0  0
   -1.4885   -2.0146    0.5342 C   0  0  0  0  0  0  0  0  0  0  0  0
   -0.7072   -2.9468    0.5568 O   0  0  0  0  0  0  0  0  0  0  0  0
   -1.1315   -0.7357    0.1567 N   0  0  0  0  0  0  0  0  0  0  0  0
   -1.9151   -0.1300   -0.0599 H   0  0  0  0  0  0  0  0  0  0  0  0
    0.1755   -0.0448    0.2063 C   0  0  1  0  0  0  0  0  0  0  0  0
    0.1227    0.5702    1.1101 H   0  0  0  0  0  0  0  0  0  0  0  0
    1.4739   -0.8768    0.3651 C   0  0  0  0  0  0  0  0  0  0  0  0
    1.4949   -1.6521   -0.4055 H   0  0  0  0  0  0  0  0  0  0  0  0
    2.3458   -0.2367    0.2170 H   0  0  0  0  0  0  0  0  0  0  0  0
    1.6451   -1.5380    1.7342 C   0  0  0  0  0  0  0  0  0  0  0  0
    1.1175   -0.9639    2.7246 O   0  5  0  0  0  0  0  0  0  0  0  0
    2.5358   -2.4198    1.8195 O   0  0  0  0  0  0  0  0  0  0  0  0
    0.2999    0.9985   -0.9269 C   0  0  0  0  0  0  0  0  0  0  0  0
   -0.5878    1.1382   -1.7662 O   0  0  0  0  0  0  0  0  0  0  0  0
    1.3006    1.9520   -0.8664 N   0  0  0  0  0  0  0  0  0  0  0  0
    2.0152    1.8121   -0.1561 H   0  0  0  0  0  0  0  0  0  0  0  0
    1.4715    3.0152   -1.8452 C   0  0  0  0  0  0  0  0  0  0  0  0
    0.5984    3.6755   -1.8502 H   0  0  0  0  0  0  0  0  0  0  0  0
    2.3551    3.6116   -1.5993 H   0  0  0  0  0  0  0  0  0  0  0  0
    1.6048    2.5950   -2.8472 H   0  0  0  0  0  0  0  0  0  0  0  0
  1  2  1  0  0  0  0
  2  3  1  0  0  0  0
  2  4  1  0  0  0  0
  2  5  1  0  0  0  0
  5  6  2  0  0  0  0
  5  7  1  0  0  0  0
  7  8  1  0  0  0  0
  7  9  1  0  0  0  0
  9 10  1  0  0  0  0
  9 11  1  0  0  0  0
  9 17  1  0  0  0  0
 11 12  1  0  0  0  0
 11 13  1  0  0  0  0
 11 14  1  0  0  0  0
 14 15  1  0  0  0  0
 14 16  2  0  0  0  0
 17 18  2  0  0  0  0
 17 19  1  0  0  0  0
 19 20  1  0  0  0  0
 19 21  1  0  0  0  0
 21 22  1  0  0  0  0
 21 23  1  0  0  0  0
 21 24  1  0  0  0  0
M  CHG  1  15  -1
M  END
$$$$

  -OEChem-01062216073D

 24 23  0     1  0  0  0  0  0999 V2000
   -3.0686   -3.3175    1.0970 H   0  0  0  0  0  0  0  0  0  0  0  0
   -2.9357   -2.2685    0.8176 C   0  0  0  0  0  0  0  0  0  0  0  0
   -3.2089   -1.6427    1.6707 H   0  0  0  0  0  0  0  0  0  0  0  0
   -3.5951   -2.0393   -0.0228 H   0  0  0  0  0  0  0  0  0  0  0  0
   -1.4899   -2.0098    0.4306 C   0  0  0  0  0  0  0  0  0  0  0  0
   -0.7657   -2.9680    0.2386 O   0  0  0  0  0  0  0  0  0  0  0  0
   -1.1348   -0.7305    0.0563 N   0  0  0  0  0  0  0  0  0  0  0  0
   -1.9198   -0.0911   -0.0175 H   0  0  0  0  0  0  0  0  0  0  0  0
    0.1684   -0.0379    0.1498 C   0  0  1  0  0  0  0  0  0  0  0  0
    0.1996    0.3648    1.1670 H   0  0  0  0  0  0  0  0  0  0  0  0
    1.4744   -0.8642    0.0093 C   0  0  0  0  0  0  0  0  0  0  0  0
    1.4198   -1.4508   -0.9115 H   0  0  0  0  0  0  0  0  0  0  0  0
    2.3352   -0.1981   -0.0680 H   0  0  0  0  0  0  0  0  0  0  0  0
    1.7713   -1.8121    1.1725 C   0  0  0  0  0  0  0  0  0  0  0  0
    1.3389   -1.4851    2.3105 O   0  5  0  0  0  0  0  0  0  0  0  0
    2.6693   -2.6682    0.9733 O   0  0  0  0  0  0  0  0  0  0  0  0
    0.1641    1.2315   -0.7347 C   0  0  0  0  0  0  0  0  0  0  0  0
   -0.8788    1.6309   -1.2511 O   0  0  0  0  0  0  0  0  0  0  0  0
    1.2827    2.0425   -0.8062 N   0  0  0  0  0  0  0  0  0  0  0  0
    2.1252    1.6936   -0.3555 H   0  0  0  0  0  0  0  0  0  0  0  0
    1.3392    3.2926   -1.5492 C   0  0  0  0  0  0  0  0  0  0  0  0
    0.6129    4.0078   -1.1502 H   0  0  0  0  0  0  0  0  0  0  0  0
    2.3378    3.7318   -1.4671 H   0  0  0  0  0  0  0  0  0  0  0  0
    1.1226    3.1189   -2.6082 H   0  0  0  0  0  0  0  0  0  0  0  0
  1  2  1  0  0  0  0
  2  3  1  0  0  0  0
  2  4  1  0  0  0  0
  2  5  1  0  0  0  0
  5  6  2  0  0  0  0
  5  7  1  0  0  0  0
  7  8  1  0  0  0  0
  7  9  1  0  0  0  0
  9 10  1  0  0  0  0
  9 11  1  0  0  0  0
  9 17  1  0  0  0  0
 11 12  1  0  0  0  0
 11 13  1  0  0  0  0
 11 14  1  0  0  0  0
 14 15  1  0  0  0  0
 14 16  2  0  0  0  0
 17 18  2  0  0  0  0
 17 19  1  0  0  0  0
 19 20  1  0  0  0  0
 19 21  1  0  0  0  0
 21 22  1  0  0  0  0
 21 23  1  0  0  0  0
 21 24  1  0  0  0  0
M  CHG  1  15  -1
M  END
$$$$

  -OEChem-01062216073D

 24 23  0     1  0  0  0  0  0999 V2000
   -2.9892   -3.3392    1.1295 H   0  0  0  0  0  0  0  0  0  0  0  0
   -2.8763   -2.2805    0.8788 C   0  0  0  0  0  0  0  0  0  0  0  0
   -3.0523   -1.6879    1.7800 H   0  0  0  0  0  0  0  0  0  0  0  0
   -3.6175   -2.0136    0.1218 H   0  0  0  0  0  0  0  0  0  0  0  0
   -1.4764   -2.0143    0.3539 C   0  0  0  0  0  0  0  0  0  0  0  0
   -0.7923   -2.9627    0.0148 O   0  0  0  0  0  0  0  0  0  0  0  0
   -1.1434   -0.7264   -0.0088 N   0  0  0  0  0  0  0  0  0  0  0  0
   -1.9294   -0.0846    0.0148 H   0  0  0  0  0  0  0  0  0  0  0  0
    0.1547   -0.0347    0.1402 C   0  0  1  0  0  0  0  0  0  0  0  0
    0.1591    0.3601    1.1609 H   0  0  0  0  0  0  0  0  0  0  0  0
    1.4578   -0.8716    0.0273 C   0  0  0  0  0  0  0  0  0  0  0  0
    1.4340   -1.4391   -0.9068 H   0  0  0  0  0  0  0  0  0  0  0  0
    2.3282   -0.2145    0.0028 H   0  0  0  0  0  0  0  0  0  0  0  0
    1.6991   -1.8407    1.1856 C   0  0  0  0  0  0  0  0  0  0  0  0
    1.2283   -1.5277    2.3120 O   0  5  0  0  0  0  0  0  0  0  0  0
    2.5860   -2.7114    1.0041 O   0  0  0  0  0  0  0  0  0  0  0  0
    0.1643    1.2393   -0.7405 C   0  0  0  0  0  0  0  0  0  0  0  0
   -0.8964    1.7486   -1.1003 O   0  0  0  0  0  0  0  0  0  0  0  0
    1.3413    1.9055   -1.0339 N   0  0  0  0  0  0  0  0  0  0  0  0
    2.2030    1.4524   -0.7403 H   0  0  0  0  0  0  0  0  0  0  0  0
    1.4148    3.1088   -1.8489 C   0  0  0  0  0  0  0  0  0  0  0  0
    0.8416    3.9193   -1.3876 H   0  0  0  0  0  0  0  0  0  0  0  0
    2.4553    3.4325   -1.9456 H   0  0  0  0  0  0  0  0  0  0  0  0
    1.0167    2.9168   -2.8505 H   0  0  0  0  0  0  0  0  0  0  0  0
  1  2  1  0  0  0  0
  2  3  1  0  0  0  0
  2  4  1  0  0  0  0
  2  5  1  0  0  0  0
  5  6  2  0  0  0  0
  5  7  1  0  0  0  0
  7  8  1  0  0  0  0
  7  9  1  0  0  0  0
  9 10  1  0  0  0  0
  9 11  1  0  0  0  0
  9 17  1  0  0  0  0
 11 12  1  0  0  0  0
 11 13  1  0  0  0  0
 11 14  1  0  0  0  0
 14 15  1  0  0  0  0
 14 16  2  0  0  0  0
 17 18  2  0  0  0  0
 17 19  1  0  0  0  0
 19 20  1  0  0  0  0
 19 21  1  0  0  0  0
 21 22  1  0  0  0  0
 21 23  1  0  0  0  0
 21 24  1  0  0  0  0
M  CHG  1  15  -1
M  END
$$$$

  -OEChem-01062216073D

 24 23  0     1  0  0  0  0  0999 V2000
   -2.8543   -3.3717    1.1958 H   0  0  0  0  0  0  0  0  0  0  0  0
   -2.7718   -2.3029    0.9791 C   0  0  0  0  0  0  0  0  0  0  0  0
   -2.7991   -1.7529    1.9233 H   0  0  0  0  0  0  0  0  0  0  0  0
   -3.6184   -1.9984    0.3595 H   0  0  0  0  0  0  0  0  0  0  0  0
   -1.4669   -2.0170    0.2581 C   0  0  0  0  0  0  0  0  0  0  0  0
   -0.8546   -2.9430   -0.2456 O   0  0  0  0  0  0  0  0  0  0  0  0
   -1.1744   -0.7224   -0.1116 N   0  0  0  0  0  0  0  0  0  0  0  0
   -1.9626   -0.0938    0.0045 H   0  0  0  0  0  0  0  0  0  0  0  0
    0.1116   -0.0286    0.1039 C   0  0  1  0  0  0  0  0  0  0  0  0
    0.0738    0.3659    1.1243 H   0  0  0  0  0  0  0  0  0  0  0  0
    1.4150   -0.8712    0.0396 C   0  0  0  0  0  0  0  0  0  0  0  0
    1.4382   -1.4255   -0.9027 H   0  0  0  0  0  0  0  0  0  0  0  0
    2.2861   -0.2147    0.0730 H   0  0  0  0  0  0  0  0  0  0  0  0
    1.5908   -1.8532    1.1987 C   0  0  0  0  0  0  0  0  0  0  0  0
    1.0670   -1.5489    2.3036 O   0  5  0  0  0  0  0  0  0  0  0  0
    2.4620   -2.7447    1.0481 O   0  0  0  0  0  0  0  0  0  0  0  0
    0.1523    1.2409   -0.7809 C   0  0  0  0  0  0  0  0  0  0  0  0
   -0.8845    1.8659   -0.9984 O   0  0  0  0  0  0  0  0  0  0  0  0
    1.3409    1.7460   -1.2777 N   0  0  0  0  0  0  0  0  0  0  0  0
    2.1711    1.1798   -1.1222 H   0  0  0  0  0  0  0  0  0  0  0  0
    1.4319    2.9198   -2.1329 C   0  0  0  0  0  0  0  0  0  0  0  0
    1.0448    3.8023   -1.6137 H   0  0  0  0  0  0  0  0  0  0  0  0
    2.4754    3.1072   -2.4025 H   0  0  0  0  0  0  0  0  0  0  0  0
    0.8578    2.7681   -3.0525 H   0  0  0  0  0  0  0  0  0  0  0  0
  1  2  1  0  0  0  0
  2  3  1  0  0  0  0
  2  4  1  0  0  0  0
  2  5  1  0  0  0  0
  5  6  2  0  0  0  0
  5  7  1  0  0  0  0
  7  8  1  0  0  0  0
  7  9  1  0  0  0  0
  9 10  1  0  0  0  0
  9 11  1  0  0  0  0
  9 17  1  0  0  0  0
 11 12  1  0  0  0  0
 11 13  1  0  0  0  0
 11 14  1  0  0  0  0
 14 15  1  0  0  0  0
 14 16  2  0  0  0  0
 17 18  2  0  0  0  0
 17 19  1  0  0  0  0
 19 20  1  0  0  0  0
 19 21  1  0  0  0  0
 21 22  1  0  0  0  0
 21 23  1  0  0  0  0
 21 24  1  0  0  0  0
M  CHG  1  15  -1
M  END
$$$$

  -OEChem-01062216073D

 24 23  0     1  0  0  0  0  0999 V2000
   -2.7574   -3.3986    1.2244 H   0  0  0  0  0  0  0  0  0  0  0  0
   -2.6607   -2.3197    1.0753 C   0  0  0  0  0  0  0  0  0  0  0  0
   -2.5163   -1.8453    2.0495 H   0  0  0  0  0  0  0  0  0  0  0  0
   -3.5781   -1.9388    0.6208 H   0  0  0  0  0  0  0  0  0  0  0  0
   -1.4693   -2.0213    0.1834 C   0  0  0  0  0  0  0  0  0  0  0  0
   -0.9429   -2.9279   -0.4403 O   0  0  0  0  0  0  0  0  0  0  0  0
   -1.2114   -0.7232   -0.1964 N   0  0  0  0  0  0  0  0  0  0  0  0
   -2.0038   -0.1134   -0.0241 H   0  0  0  0  0  0  0  0  0  0  0  0
    0.0585   -0.0222    0.0751 C   0  0  1  0  0  0  0  0  0  0  0  0
   -0.0172    0.3698    1.0946 H   0  0  0  0  0  0  0  0  0  0  0  0
    1.3648   -0.8611    0.0481 C   0  0  0  0  0  0  0  0  0  0  0  0
    1.4250   -1.4049   -0.8989 H   0  0  0  0  0  0  0  0  0  0  0  0
    2.2295   -0.1981    0.1213 H   0  0  0  0  0  0  0  0  0  0  0  0
    1.4972   -1.8566    1.2009 C   0  0  0  0  0  0  0  0  0  0  0  0
    0.9316   -1.5677    2.2887 O   0  5  0  0  0  0  0  0  0  0  0  0
    2.3536   -2.7636    1.0648 O   0  0  0  0  0  0  0  0  0  0  0  0
    0.1264    1.2419   -0.8124 C   0  0  0  0  0  0  0  0  0  0  0  0
   -0.8589    1.9716   -0.9020 O   0  0  0  0  0  0  0  0  0  0  0  0
    1.2721    1.5854   -1.5081 N   0  0  0  0  0  0  0  0  0  0  0  0
    2.0392    0.9188   -1.4684 H   0  0  0  0  0  0  0  0  0  0  0  0
    1.3679    2.7286   -2.4029 C   0  0  0  0  0  0  0  0  0  0  0  0
    1.1559    3.6564   -1.8620 H   0  0  0  0  0  0  0  0  0  0  0  0
    2.3771    2.7949   -2.8199 H   0  0  0  0  0  0  0  0  0  0  0  0
    0.6563    2.6279   -3.2286 H   0  0  0  0  0  0  0  0  0  0  0  0
  1  2  1  0  0  0  0
  2  3  1  0  0  0  0
  2  4  1  0  0  0  0
  2  5  1  0  0  0  0
  5  6  2  0  0  0  0
  5  7  1  0  0  0  0
  7  8  1  0  0  0  0
  7  9  1  0  0  0  0
  9 10  1  0  0  0  0
  9 11  1  0  0  0  0
  9 17  1  0  0  0  0
 11 12  1  0  0  0  0
 11 13  1  0  0  0  0
 11 14  1  0  0  0  0
 14 15  1  0  0  0  0
 14 16  2  0  0  0  0
 17 18  2  0  0  0  0
 17 19  1  0  0  0  0
 19 20  1  0  0  0  0
 19 21  1  0  0  0  0
 21 22  1  0  0  0  0
 21 23  1  0  0  0  0
 21 24  1  0  0  0  0
M  CHG  1  15  -1
M  END
$$$$

  -OEChem-01062216073D

 24 23  0     1  0  0  0  0  0999 V2000
   -2.6113   -3.4153    1.3084 H   0  0  0  0  0  0  0  0  0  0  0  0
   -2.5270   -2.3341    1.1688 C   0  0  0  0  0  0  0  0  0  0  0  0
   -2.2253   -1.8839    2.1185 H   0  0  0  0  0  0  0  0  0  0  0  0
   -3.4994   -1.9348    0.8726 H   0  0  0  0  0  0  0  0  0  0  0  0
   -1.4854   -2.0262    0.1086 C   0  0  0  0  0  0  0  0  0  0  0  0
   -1.0932   -2.9117   -0.6340 O   0  0  0  0  0  0  0  0  0  0  0  0
   -1.2554   -0.7254   -0.2769 N   0  0  0  0  0  0  0  0  0  0  0  0
   -2.0575   -0.1379   -0.0761 H   0  0  0  0  0  0  0  0  0  0  0  0
   -0.0088   -0.0114    0.0563 C   0  0  1  0  0  0  0  0  0  0  0  0
   -0.1245    0.3719    1.0757 H   0  0  0  0  0  0  0  0  0  0  0  0
    1.3026   -0.8415    0.0601 C   0  0  0  0  0  0  0  0  0  0  0  0
    1.3971   -1.3694   -0.8932 H   0  0  0  0  0  0  0  0  0  0  0  0
    2.1578   -0.1702    0.1695 H   0  0  0  0  0  0  0  0  0  0  0  0
    1.4016   -1.8594    1.1953 C   0  0  0  0  0  0  0  0  0  0  0  0
    0.7965   -1.5985    2.2681 O   0  5  0  0  0  0  0  0  0  0  0  0
    2.2405   -2.7814    1.0578 O   0  0  0  0  0  0  0  0  0  0  0  0
    0.0897    1.2505   -0.8283 C   0  0  0  0  0  0  0  0  0  0  0  0
   -0.8188    2.0771   -0.8045 O   0  0  0  0  0  0  0  0  0  0  0  0
    1.1475    1.4426   -1.6992 N   0  0  0  0  0  0  0  0  0  0  0  0
    1.8255    0.6863   -1.7550 H   0  0  0  0  0  0  0  0  0  0  0  0
    1.2368    2.5501   -2.6384 C   0  0  0  0  0  0  0  0  0  0  0  0
    1.2264    3.5062   -2.1054 H   0  0  0  0  0  0  0  0  0  0  0  0
    2.1677    2.4831   -3.2090 H   0  0  0  0  0  0  0  0  0  0  0  0
    0.3966    2.5251   -3.3396 H   0  0  0  0  0  0  0  0  0  0  0  0
  1  2  1  0  0  0  0
  2  3  1  0  0  0  0
  2  4  1  0  0  0  0
  2  5  1  0  0  0  0
  5  6  2  0  0  0  0
  5  7  1  0  0  0  0
  7  8  1  0  0  0  0
  7  9  1  0  0  0  0
  9 10  1  0  0  0  0
  9 11  1  0  0  0  0
  9 17  1  0  0  0  0
 11 12  1  0  0  0  0
 11 13  1  0  0  0  0
 11 14  1  0  0  0  0
 14 15  1  0  0  0  0
 14 16  2  0  0  0  0
 17 18  2  0  0  0  0
 17 19  1  0  0  0  0
 19 20  1  0  0  0  0
 19 21  1  0  0  0  0
 21 22  1  0  0  0  0
 21 23  1  0  0  0  0
 21 24  1  0  0  0  0
M  CHG  1  15  -1
M  END
$$$$

  -OEChem-01062216073D

 24 23  0     1  0  0  0  0  0999 V2000
   -0.6751   -3.0465    0.1206 H   0  0  0  0  0  0  0  0  0  0  0  0
   -1.5846   -2.8497    0.6915 C   0  0  0  0  0  0  0  0  0  0  0  0
   -1.3598   -2.8561    1.7603 H   0  0  0  0  0  0  0  0  0  0  0  0
   -2.2923   -3.6576    0.4894 H   0  0  0  0  0  0  0  0  0  0  0  0
   -2.1910   -1.5164    0.2869 C   0  0  0  0  0  0  0  0  0  0  0  0
   -3.3798   -1.4779    0.0070 O   0  0  0  0  0  0  0  0  0  0  0  0
   -1.5480   -0.3687   -0.1177 N   0  0  0  0  0  0  0  0  0  0  0  0
   -2.2366    0.2963   -0.4619 H   0  0  0  0  0  0  0  0  0  0  0  0
   -0.2404    0.2423    0.2092 C   0  0  1  0  0  0  0  0  0  0  0  0
   -0.3723    0.7777    1.1561 H   0  0  0  0  0  0  0  0  0  0  0  0
    1.0023   -0.6657    0.3967 C   0  0  0  0  0  0  0  0  0  0  0  0
    1.1082   -1.3078   -0.4820 H   0  0  0  0  0  0  0  0  0  0  0  0
    1.8928   -0.0352    0.4673 H   0  0  0  0  0  0  0  0  0  0  0  0
    1.0062   -1.5485    1.6351 C   0  0  0  0  0  0  0  0  0  0  0  0
    0.3912   -1.1523    2.6541 O   0  5  0  0  0  0  0  0  0  0  0  0
    1.6574   -2.6176    1.5605 O   0  0  0  0  0  0  0  0  0  0  0  0
    0.0499    1.3234   -0.8574 C   0  0  0  0  0  0  0  0  0  0  0  0
   -0.6500    2.3290   -0.9135 O   0  0  0  0  0  0  0  0  0  0  0  0
    0.9784    1.1088   -1.8617 N   0  0  0  0  0  0  0  0  0  0  0  0
    1.4977    0.2358   -1.8206 H   0  0  0  0  0  0  0  0  0  0  0  0
    1.2202    2.0313   -2.9610 C   0  0  0  0  0  0  0  0  0  0  0  0
    1.5348    3.0078   -2.5791 H   0  0  0  0  0  0  0  0  0  0  0  0
    2.0109    1.6425   -3.6094 H   0  0  0  0  0  0  0  0  0  0  0  0
    0.3126    2.1593   -3.5596 H   0  0  0  0  0  0  0  0  0  0  0  0
  1  2  1  0  0  0  0
  2  3  1  0  0  0  0
  2  4  1  0  0  0  0
  2  5  1  0  0  0  0
  5  6  2  0  0  0  0
  5  7  1  0  0  0  0
  7  8  1  0  0  0  0
  7  9  1  0  0  0  0
  9 10  1  0  0  0  0
  9 11  1  0  0  0  0
  9 17  1  0  0  0  0
 11 12  1  0  0  0  0
 11 13  1  0  0  0  0
 11 14  1  0  0  0  0
 14 15  1  0  0  0  0
 14 16  2  0  0  0  0
 17 18  2  0  0  0  0
 17 19  1  0  0  0  0
 19 20  1  0  0  0  0
 19 21  1  0  0  0  0
 21 22  1  0  0  0  0
 21 23  1  0  0  0  0
 21 24  1  0  0  0  0
M  CHG  1  15  -1
M  END
$$$$

  -OEChem-01062216073D

 24 23  0     1  0  0  0  0  0999 V2000
   -1.1542   -3.2712    1.4173 H   0  0  0  0  0  0  0  0  0  0  0  0
   -1.9804   -2.5584    1.3641 C   0  0  0  0  0  0  0  0  0  0  0  0
   -1.8880   -1.8278    2.1711 H   0  0  0  0  0  0  0  0  0  0  0  0
   -2.9162   -3.1052    1.5033 H   0  0  0  0  0  0  0  0  0  0  0  0
   -1.9829   -1.8569    0.0186 C   0  0  0  0  0  0  0  0  0  0  0  0
   -2.7839   -2.2149   -0.8319 O   0  0  0  0  0  0  0  0  0  0  0  0
   -1.4700   -0.6171   -0.2791 N   0  0  0  0  0  0  0  0  0  0  0  0
   -1.8842   -0.2844   -1.1445 H   0  0  0  0  0  0  0  0  0  0  0  0
   -0.2437    0.1004    0.1386 C   0  0  1  0  0  0  0  0  0  0  0  0
   -0.4074    0.5025    1.1445 H   0  0  0  0  0  0  0  0  0  0  0  0
    1.0708   -0.7277    0.1641 C   0  0  0  0  0  0  0  0  0  0  0  0
    1.1957   -1.2135   -0.8075 H   0  0  0  0  0  0  0  0  0  0  0  0
    1.9087   -0.0404    0.3093 H   0  0  0  0  0  0  0  0  0  0  0  0
    1.2189   -1.8027    1.2277 C   0  0  0  0  0  0  0  0  0  0  0  0
    0.6262   -1.6455    2.3203 O   0  5  0  0  0  0  0  0  0  0  0  0
    1.9397   -2.7869    0.9392 O   0  0  0  0  0  0  0  0  0  0  0  0
   -0.0372    1.2986   -0.8181 C   0  0  0  0  0  0  0  0  0  0  0  0
   -0.6358    2.3517   -0.6329 O   0  0  0  0  0  0  0  0  0  0  0  0
    0.7059    1.1602   -1.9781 N   0  0  0  0  0  0  0  0  0  0  0  0
    1.1911    0.2754   -2.1033 H   0  0  0  0  0  0  0  0  0  0  0  0
    0.9150    2.2280   -2.9444 C   0  0  0  0  0  0  0  0  0  0  0  0
    1.4053    3.0835   -2.4689 H   0  0  0  0  0  0  0  0  0  0  0  0
    1.5511    1.8746   -3.7613 H   0  0  0  0  0  0  0  0  0  0  0  0
   -0.0406    2.5553   -3.3664 H   0  0  0  0  0  0  0  0  0  0  0  0
  1  2  1  0  0  0  0
  2  3  1  0  0  0  0
  2  4  1  0  0  0  0
  2  5  1  0  0  0  0
  5  6  2  0  0  0  0
  5  7  1  0  0  0  0
  7  8  1  0  0  0  0
  7  9  1  0  0  0  0
  9 10  1  0  0  0  0
  9 11  1  0  0  0  0
  9 17  1  0  0  0  0
 11 12  1  0  0  0  0
 11 13  1  0  0  0  0
 11 14  1  0  0  0  0
 14 15  1  0  0  0  0
 14 16  2  0  0  0  0
 17 18  2  0  0  0  0
 17 19  1  0  0  0  0
 19 20  1  0  0  0  0
 19 21  1  0  0  0  0
 21 22  1  0  0  0  0
 21 23  1  0  0  0  0
 21 24  1  0  0  0  0
M  CHG  1  15  -1
M  END
$$$$

  -OEChem-01062216073D

 24 23  0     1  0  0  0  0  0999 V2000
   -1.2363   -3.2856    1.5341 H   0  0  0  0  0  0  0  0  0  0  0  0
   -2.0141   -2.5262    1.4222 C   0  0  0  0  0  0  0  0  0  0  0  0
   -1.8882   -1.7601    2.1909 H   0  0  0  0  0  0  0  0  0  0  0  0
   -2.9872   -3.0015    1.5667 H   0  0  0  0  0  0  0  0  0  0  0  0
   -1.9396   -1.9023    0.0406 C   0  0  0  0  0  0  0  0  0  0  0  0
   -2.6769   -2.3194   -0.8401 O   0  0  0  0  0  0  0  0  0  0  0  0
   -1.4792   -0.6440   -0.2603 N   0  0  0  0  0  0  0  0  0  0  0  0
   -1.8472   -0.3683   -1.1654 H   0  0  0  0  0  0  0  0  0  0  0  0
   -0.2681    0.0916    0.1682 C   0  0  1  0  0  0  0  0  0  0  0  0
   -0.4265    0.4659    1.1855 H   0  0  0  0  0  0  0  0  0  0  0  0
    1.0601   -0.7128    0.1435 C   0  0  0  0  0  0  0  0  0  0  0  0
    1.1828   -1.1589   -0.8472 H   0  0  0  0  0  0  0  0  0  0  0  0
    1.8873   -0.0154    0.3022 H   0  0  0  0  0  0  0  0  0  0  0  0
    1.2390   -1.8240    1.1651 C   0  0  0  0  0  0  0  0  0  0  0  0
    0.6585   -1.7173    2.2701 O   0  5  0  0  0  0  0  0  0  0  0  0
    1.9640   -2.7894    0.8279 O   0  0  0  0  0  0  0  0  0  0  0  0
   -0.0856    1.3047   -0.7703 C   0  0  0  0  0  0  0  0  0  0  0  0
   -0.4573    2.4229   -0.4352 O   0  0  0  0  0  0  0  0  0  0  0  0
    0.3857    1.1182   -2.0584 N   0  0  0  0  0  0  0  0  0  0  0  0
    0.7278    0.1877   -2.2845 H   0  0  0  0  0  0  0  0  0  0  0  0
    0.5888    2.1991   -3.0114 C   0  0  0  0  0  0  0  0  0  0  0  0
    1.2814    2.9428   -2.6045 H   0  0  0  0  0  0  0  0  0  0  0  0
    1.0104    1.8048   -3.9407 H   0  0  0  0  0  0  0  0  0  0  0  0
   -0.3626    2.6886   -3.2430 H   0  0  0  0  0  0  0  0  0  0  0  0
  1  2  1  0  0  0  0
  2  3  1  0  0  0  0
  2  4  1  0  0  0  0
  2  5  1  0  0  0  0
  5  6  2  0  0  0  0
  5  7  1  0  0  0  0
  7  8  1  0  0  0  0
  7  9  1  0  0  0  0
  9 10  1  0  0  0  0
  9 11  1  0  0  0  0
  9 17  1  0  0  0  0
 11 12  1  0  0  0  0
 11 13  1  0  0  0  0
 11 14  1  0  0  0  0
 14 15  1  0  0  0  0
 14 16  2  0  0  0  0
 17 18  2  0  0  0  0
 17 19  1  0  0  0  0
 19 20  1  0  0  0  0
 19 21  1  0  0  0  0
 21 22  1  0  0  0  0
 21 23  1  0  0  0  0
 21 24  1  0  0  0  0
M  CHG  1  15  -1
M  END
$$$$

  -OEChem-01062216073D

 24 23  0     1  0  0  0  0  0999 V2000
   -1.2239   -3.3140    1.5133 H   0  0  0  0  0  0  0  0  0  0  0  0
   -2.0072   -2.5572    1.4242 C   0  0  0  0  0  0  0  0  0  0  0  0
   -1.8791   -1.8069    2.2080 H   0  0  0  0  0  0  0  0  0  0  0  0
   -2.9759   -3.0416    1.5672 H   0  0  0  0  0  0  0  0  0  0  0  0
   -1.9488   -1.9045    0.0553 C   0  0  0  0  0  0  0  0  0  0  0  0
   -2.6941   -2.3035   -0.8272 O   0  0  0  0  0  0  0  0  0  0  0  0
   -1.4928   -0.6408   -0.2291 N   0  0  0  0  0  0  0  0  0  0  0  0
   -1.8701   -0.3498   -1.1254 H   0  0  0  0  0  0  0  0  0  0  0  0
   -0.2885    0.1001    0.2116 C   0  0  1  0  0  0  0  0  0  0  0  0
   -0.4452    0.4571    1.2354 H   0  0  0  0  0  0  0  0  0  0  0  0
    1.0472   -0.6873    0.1571 C   0  0  0  0  0  0  0  0  0  0  0  0
    1.1711   -1.1005   -0.8477 H   0  0  0  0  0  0  0  0  0  0  0  0
    1.8668    0.0153    0.3321 H   0  0  0  0  0  0  0  0  0  0  0  0
    1.2434   -1.8230    1.1485 C   0  0  0  0  0  0  0  0  0  0  0  0
    0.6677   -1.7508    2.2591 O   0  5  0  0  0  0  0  0  0  0  0  0
    1.9661   -2.7782    0.7785 O   0  0  0  0  0  0  0  0  0  0  0  0
   -0.1136    1.3212   -0.7156 C   0  0  0  0  0  0  0  0  0  0  0  0
   -0.2218    2.4651   -0.2906 O   0  0  0  0  0  0  0  0  0  0  0  0
    0.0589    1.1219   -2.0749 N   0  0  0  0  0  0  0  0  0  0  0  0
    0.2411    0.1657   -2.3695 H   0  0  0  0  0  0  0  0  0  0  0  0
    0.2621    2.2038   -3.0268 C   0  0  0  0  0  0  0  0  0  0  0  0
    1.1619    2.7732   -2.7726 H   0  0  0  0  0  0  0  0  0  0  0  0
    0.3813    1.7978   -4.0356 H   0  0  0  0  0  0  0  0  0  0  0  0
   -0.5983    2.8807   -3.0265 H   0  0  0  0  0  0  0  0  0  0  0  0
  1  2  1  0  0  0  0
  2  3  1  0  0  0  0
  2  4  1  0  0  0  0
  2  5  1  0  0  0  0
  5  6  2  0  0  0  0
  5  7  1  0  0  0  0
  7  8  1  0  0  0  0
  7  9  1  0  0  0  0
  9 10  1  0  0  0  0
  9 11  1  0  0  0  0
  9 17  1  0  0  0  0
 11 12  1  0  0  0  0
 11 13  1  0  0  0  0
 11 14  1  0  0  0  0
 14 15  1  0  0  0  0
 14 16  2  0  0  0  0
 17 18  2  0  0  0  0
 17 19  1  0  0  0  0
 19 20  1  0  0  0  0
 19 21  1  0  0  0  0
 21 22  1  0  0  0  0
 21 23  1  0  0  0  0
 21 24  1  0  0  0  0
M  CHG  1  15  -1
M  END
$$$$

  -OEChem-01062216073D

 24 23  0     1  0  0  0  0  0999 V2000
   -1.1709   -3.3457    1.4582 H   0  0  0  0  0  0  0  0  0  0  0  0
   -1.9768   -2.6088    1.4197 C   0  0  0  0  0  0  0  0  0  0  0  0
   -1.8507   -1.8873    2.2304 H   0  0  0  0  0  0  0  0  0  0  0  0
   -2.9273   -3.1269    1.5666 H   0  0  0  0  0  0  0  0  0  0  0  0
   -1.9721   -1.8993    0.0784 C   0  0  0  0  0  0  0  0  0  0  0  0
   -2.7543   -2.2588   -0.7889 O   0  0  0  0  0  0  0  0  0  0  0  0
   -1.5064   -0.6353   -0.1893 N   0  0  0  0  0  0  0  0  0  0  0  0
   -1.9276   -0.3026   -1.0505 H   0  0  0  0  0  0  0  0  0  0  0  0
   -0.3044    0.1106    0.2531 C   0  0  1  0  0  0  0  0  0  0  0  0
   -0.4565    0.4572    1.2812 H   0  0  0  0  0  0  0  0  0  0  0  0
    1.0343   -0.6665    0.1757 C   0  0  0  0  0  0  0  0  0  0  0  0
    1.1508   -1.0604   -0.8378 H   0  0  0  0  0  0  0  0  0  0  0  0
    1.8513    0.0380    0.3542 H   0  0  0  0  0  0  0  0  0  0  0  0
    1.2458   -1.8151    1.1486 C   0  0  0  0  0  0  0  0  0  0  0  0
    0.6788   -1.7617    2.2650 O   0  5  0  0  0  0  0  0  0  0  0  0
    1.9637   -2.7652    0.7564 O   0  0  0  0  0  0  0  0  0  0  0  0
   -0.1299    1.3385   -0.6658 C   0  0  0  0  0  0  0  0  0  0  0  0
    0.0404    2.4611   -0.2061 O   0  0  0  0  0  0  0  0  0  0  0  0
   -0.2664    1.1846   -2.0360 N   0  0  0  0  0  0  0  0  0  0  0  0
   -0.2496    0.2276   -2.3793 H   0  0  0  0  0  0  0  0  0  0  0  0
   -0.0548    2.2689   -2.9838 C   0  0  0  0  0  0  0  0  0  0  0  0
    0.9711    2.6444   -2.9128 H   0  0  0  0  0  0  0  0  0  0  0  0
   -0.2253    1.9135   -4.0044 H   0  0  0  0  0  0  0  0  0  0  0  0
   -0.7485    3.0921   -2.7852 H   0  0  0  0  0  0  0  0  0  0  0  0
  1  2  1  0  0  0  0
  2  3  1  0  0  0  0
  2  4  1  0  0  0  0
  2  5  1  0  0  0  0
  5  6  2  0  0  0  0
  5  7  1  0  0  0  0
  7  8  1  0  0  0  0
  7  9  1  0  0  0  0
  9 10  1  0  0  0  0
  9 11  1  0  0  0  0
  9 17  1  0  0  0  0
 11 12  1  0  0  0  0
 11 13  1  0  0  0  0
 11 14  1  0  0  0  0
 14 15  1  0  0  0  0
 14 16  2  0  0  0  0
 17 18  2  0  0  0  0
 17 19  1  0  0  0  0
 19 20  1  0  0  0  0
 19 21  1  0  0  0  0
 21 22  1  0  0  0  0
 21 23  1  0  0  0  0
 21 24  1  0  0  0  0
M  CHG  1  15  -1
M  END
$$$$

  -OEChem-01062216073D

 24 23  0     1  0  0  0  0  0999 V2000
   -0.9402   -3.3384    1.0600 H   0  0  0  0  0  0  0  0  0  0  0  0
   -1.8531   -2.7729    1.2569 C   0  0  0  0  0  0  0  0  0  0  0  0
   -1.7724   -2.2548    2.2148 H   0  0  0  0  0  0  0  0  0  0  0  0
   -2.6825   -3.4813    1.3237 H   0  0  0  0  0  0  0  0  0  0  0  0
   -2.1118   -1.7747    0.1446 C   0  0  0  0  0  0  0  0  0  0  0  0
   -3.0839   -1.9305   -0.5795 O   0  0  0  0  0  0  0  0  0  0  0  0
   -1.5351   -0.5520   -0.1084 N   0  0  0  0  0  0  0  0  0  0  0  0
   -2.1089   -0.0528   -0.7804 H   0  0  0  0  0  0  0  0  0  0  0  0
   -0.2913    0.1501    0.2996 C   0  0  1  0  0  0  0  0  0  0  0  0
   -0.4287    0.5326    1.3170 H   0  0  0  0  0  0  0  0  0  0  0  0
    1.0244   -0.6655    0.2586 C   0  0  0  0  0  0  0  0  0  0  0  0
    1.1298   -1.1039   -0.7379 H   0  0  0  0  0  0  0  0  0  0  0  0
    1.8621    0.0212    0.4096 H   0  0  0  0  0  0  0  0  0  0  0  0
    1.1974   -1.7740    1.2825 C   0  0  0  0  0  0  0  0  0  0  0  0
    0.6266   -1.6504    2.3926 O   0  5  0  0  0  0  0  0  0  0  0  0
    1.8742   -2.7707    0.9340 O   0  0  0  0  0  0  0  0  0  0  0  0
   -0.0782    1.3551   -0.6448 C   0  0  0  0  0  0  0  0  0  0  0  0
    0.4010    2.4068   -0.2383 O   0  0  0  0  0  0  0  0  0  0  0  0
   -0.5354    1.2901   -1.9517 N   0  0  0  0  0  0  0  0  0  0  0  0
   -0.7612    0.3600   -2.2946 H   0  0  0  0  0  0  0  0  0  0  0  0
   -0.3302    2.3571   -2.9204 C   0  0  0  0  0  0  0  0  0  0  0  0
    0.7391    2.5215   -3.0874 H   0  0  0  0  0  0  0  0  0  0  0  0
   -0.7952    2.0916   -3.8743 H   0  0  0  0  0  0  0  0  0  0  0  0
   -0.7816    3.2893   -2.5655 H   0  0  0  0  0  0  0  0  0  0  0  0
  1  2  1  0  0  0  0
  2  3  1  0  0  0  0
  2  4  1  0  0  0  0
  2  5  1  0  0  0  0
  5  6  2  0  0  0  0
  5  7  1  0  0  0  0
  7  8  1  0  0  0  0
  7  9  1  0  0  0  0
  9 10  1  0  0  0  0
  9 11  1  0  0  0  0
  9 17  1  0  0  0  0
 11 12  1  0  0  0  0
 11 13  1  0  0  0  0
 11 14  1  0  0  0  0
 14 15  1  0  0  0  0
 14 16  2  0  0  0  0
 17 18  2  0  0  0  0
 17 19  1  0  0  0  0
 19 20  1  0  0  0  0
 19 21  1  0  0  0  0
 21 22  1  0  0  0  0
 21 23  1  0  0  0  0
 21 24  1  0  0  0  0
M  CHG  1  15  -1
M  END
$$$$

  -OEChem-01062216073D

 24 23  0     1  0  0  0  0  0999 V2000
   -0.7215   -3.0368   -0.0039 H   0  0  0  0  0  0  0  0  0  0  0  0
   -1.5761   -2.9284    0.6672 C   0  0  0  0  0  0  0  0  0  0  0  0
   -1.2563   -3.0957    1.6984 H   0  0  0  0  0  0  0  0  0  0  0  0
   -2.3100   -3.6959    0.4094 H   0  0  0  0  0  0  0  0  0  0  0  0
   -2.1975   -1.5483    0.5265 C   0  0  0  0  0  0  0  0  0  0  0  0
   -3.4104   -1.4576    0.4111 O   0  0  0  0  0  0  0  0  0  0  0  0
   -1.6034   -0.3861    0.0933 N   0  0  0  0  0  0  0  0  0  0  0  0
   -2.3447    0.2944   -0.0432 H   0  0  0  0  0  0  0  0  0  0  0  0
   -0.2773    0.2235    0.3709 C   0  0  1  0  0  0  0  0  0  0  0  0
   -0.3531    0.7266    1.3412 H   0  0  0  0  0  0  0  0  0  0  0  0
    0.9576   -0.7056    0.4382 C   0  0  0  0  0  0  0  0  0  0  0  0
    1.0071   -1.2996   -0.4782 H   0  0  0  0  0  0  0  0  0  0  0  0
    1.8620   -0.0932    0.4871 H   0  0  0  0  0  0  0  0  0  0  0  0
    1.0024   -1.6418    1.6376 C   0  0  0  0  0  0  0  0  0  0  0  0
    0.4450   -1.2762    2.7016 O   0  5  0  0  0  0  0  0  0  0  0  0
    1.5896   -2.7392    1.4793 O   0  0  0  0  0  0  0  0  0  0  0  0
   -0.0018    1.3318   -0.6754 C   0  0  0  0  0  0  0  0  0  0  0  0
    0.8273    2.2119   -0.4759 O   0  0  0  0  0  0  0  0  0  0  0  0
   -0.7664    1.3983   -1.8289 N   0  0  0  0  0  0  0  0  0  0  0  0
   -1.3525    0.5897   -2.0185 H   0  0  0  0  0  0  0  0  0  0  0  0
   -0.5518    2.3786   -2.8835 C   0  0  0  0  0  0  0  0  0  0  0  0
    0.4552    2.2773   -3.3005 H   0  0  0  0  0  0  0  0  0  0  0  0
   -1.2781    2.2297   -3.6880 H   0  0  0  0  0  0  0  0  0  0  0  0
   -0.6739    3.3939   -2.4926 H   0  0  0  0  0  0  0  0  0  0  0  0
  1  2  1  0  0  0  0
  2  3  1  0  0  0  0
  2  4  1  0  0  0  0
  2  5  1  0  0  0  0
  5  6  2  0  0  0  0
  5  7  1  0  0  0  0
  7  8  1  0  0  0  0
  7  9  1  0  0  0  0
  9 10  1  0  0  0  0
  9 11  1  0  0  0  0
  9 17  1  0  0  0  0
 11 12  1  0  0  0  0
 11 13  1  0  0  0  0
 11 14  1  0  0  0  0
 14 15  1  0  0  0  0
 14 16  2  0  0  0  0
 17 18  2  0  0  0  0
 17 19  1  0  0  0  0
 19 20  1  0  0  0  0
 19 21  1  0  0  0  0
 21 22  1  0  0  0  0
 21 23  1  0  0  0  0
 21 24  1  0  0  0  0
M  CHG  1  15  -1
M  END
$$$$

  -OEChem-01062216073D

 24 23  0     1  0  0  0  0  0999 V2000
   -1.3613   -3.3663    1.6730 H   0  0  0  0  0  0  0  0  0  0  0  0
   -2.0522   -2.5484    1.4518 C   0  0  0  0  0  0  0  0  0  0  0  0
   -1.9311   -1.7658    2.2045 H   0  0  0  0  0  0  0  0  0  0  0  0
   -3.0755   -2.9271    1.5067 H   0  0  0  0  0  0  0  0  0  0  0  0
   -1.7725   -1.9966    0.0644 C   0  0  0  0  0  0  0  0  0  0  0  0
   -2.3586   -2.4713   -0.8967 O   0  0  0  0  0  0  0  0  0  0  0  0
   -1.4173   -0.6996   -0.2053 N   0  0  0  0  0  0  0  0  0  0  0  0
   -1.5819   -0.5905   -1.1993 H   0  0  0  0  0  0  0  0  0  0  0  0
   -0.2325    0.0584    0.2696 C   0  0  1  0  0  0  0  0  0  0  0  0
   -0.4029    0.3621    1.3079 H   0  0  0  0  0  0  0  0  0  0  0  0
    1.0946   -0.7458    0.1955 C   0  0  0  0  0  0  0  0  0  0  0  0
    1.2173   -1.1255   -0.8227 H   0  0  0  0  0  0  0  0  0  0  0  0
    1.9308   -0.0724    0.4003 H   0  0  0  0  0  0  0  0  0  0  0  0
    1.2510   -1.9088    1.1649 C   0  0  0  0  0  0  0  0  0  0  0  0
    0.6589   -1.8413    2.2689 O   0  5  0  0  0  0  0  0  0  0  0  0
    1.9388   -2.8852    0.7841 O   0  0  0  0  0  0  0  0  0  0  0  0
   -0.0518    1.3507   -0.5742 C   0  0  0  0  0  0  0  0  0  0  0  0
    0.8538    2.1454   -0.3482 O   0  0  0  0  0  0  0  0  0  0  0  0
   -0.9323    1.6568   -1.6024 N   0  0  0  0  0  0  0  0  0  0  0  0
   -1.7858    1.1114   -1.6469 H   0  0  0  0  0  0  0  0  0  0  0  0
   -0.8552    2.8846   -2.3821 C   0  0  0  0  0  0  0  0  0  0  0  0
    0.1120    2.9549   -2.8905 H   0  0  0  0  0  0  0  0  0  0  0  0
   -1.6442    2.8973   -3.1400 H   0  0  0  0  0  0  0  0  0  0  0  0
   -0.9801    3.7585   -1.7346 H   0  0  0  0  0  0  0  0  0  0  0  0
  1  2  1  0  0  0  0
  2  3  1  0  0  0  0
  2  4  1  0  0  0  0
  2  5  1  0  0  0  0
  5  6  2  0  0  0  0
  5  7  1  0  0  0  0
  7  8  1  0  0  0  0
  7  9  1  0  0  0  0
  9 10  1  0  0  0  0
  9 11  1  0  0  0  0
  9 17  1  0  0  0  0
 11 12  1  0  0  0  0
 11 13  1  0  0  0  0
 11 14  1  0  0  0  0
 14 15  1  0  0  0  0
 14 16  2  0  0  0  0
 17 18  2  0  0  0  0
 17 19  1  0  0  0  0
 19 20  1  0  0  0  0
 19 21  1  0  0  0  0
 21 22  1  0  0  0  0
 21 23  1  0  0  0  0
 21 24  1  0  0  0  0
M  CHG  1  15  -1
M  END
$$$$

  -OEChem-01062216073D

 24 23  0     1  0  0  0  0  0999 V2000
   -1.3609   -3.3677    1.5913 H   0  0  0  0  0  0  0  0  0  0  0  0
   -2.0511   -2.5445    1.3893 C   0  0  0  0  0  0  0  0  0  0  0  0
   -1.9350   -1.7820    2.1634 H   0  0  0  0  0  0  0  0  0  0  0  0
   -3.0739   -2.9259    1.4296 H   0  0  0  0  0  0  0  0  0  0  0  0
   -1.7669   -1.9556    0.0181 C   0  0  0  0  0  0  0  0  0  0  0  0
   -2.3756   -2.3847   -0.9502 O   0  0  0  0  0  0  0  0  0  0  0  0
   -1.3763   -0.6612   -0.2148 N   0  0  0  0  0  0  0  0  0  0  0  0
   -1.5524   -0.5038   -1.2021 H   0  0  0  0  0  0  0  0  0  0  0  0
   -0.1737    0.0598    0.2736 C   0  0  1  0  0  0  0  0  0  0  0  0
   -0.3433    0.3565    1.3138 H   0  0  0  0  0  0  0  0  0  0  0  0
    1.1351   -0.7755    0.2085 C   0  0  0  0  0  0  0  0  0  0  0  0
    1.2608   -1.1530   -0.8102 H   0  0  0  0  0  0  0  0  0  0  0  0
    1.9854   -0.1250    0.4283 H   0  0  0  0  0  0  0  0  0  0  0  0
    1.2490   -1.9447    1.1762 C   0  0  0  0  0  0  0  0  0  0  0  0
    0.6446   -1.8618    2.2728 O   0  5  0  0  0  0  0  0  0  0  0  0
    1.9128   -2.9402    0.8027 O   0  0  0  0  0  0  0  0  0  0  0  0
    0.0076    1.3625   -0.5551 C   0  0  0  0  0  0  0  0  0  0  0  0
    1.0395    2.0240   -0.5361 O   0  0  0  0  0  0  0  0  0  0  0  0
   -1.0407    1.8309   -1.3338 N   0  0  0  0  0  0  0  0  0  0  0  0
   -1.9408    1.3837   -1.1879 H   0  0  0  0  0  0  0  0  0  0  0  0
   -0.9983    3.0894   -2.0655 C   0  0  0  0  0  0  0  0  0  0  0  0
   -0.1779    3.0831   -2.7906 H   0  0  0  0  0  0  0  0  0  0  0  0
   -1.9364    3.2396   -2.6079 H   0  0  0  0  0  0  0  0  0  0  0  0
   -0.8565    3.9282   -1.3764 H   0  0  0  0  0  0  0  0  0  0  0  0
  1  2  1  0  0  0  0
  2  3  1  0  0  0  0
  2  4  1  0  0  0  0
  2  5  1  0  0  0  0
  5  6  2  0  0  0  0
  5  7  1  0  0  0  0
  7  8  1  0  0  0  0
  7  9  1  0  0  0  0
  9 10  1  0  0  0  0
  9 11  1  0  0  0  0
  9 17  1  0  0  0  0
 11 12  1  0  0  0  0
 11 13  1  0  0  0  0
 11 14  1  0  0  0  0
 14 15  1  0  0  0  0
 14 16  2  0  0  0  0
 17 18  2  0  0  0  0
 17 19  1  0  0  0  0
 19 20  1  0  0  0  0
 19 21  1  0  0  0  0
 21 22  1  0  0  0  0
 21 23  1  0  0  0  0
 21 24  1  0  0  0  0
M  CHG  1  15  -1
M  END
$$$$

  -OEChem-01062216073D

 24 23  0     1  0  0  0  0  0999 V2000
   -1.3226   -3.3580    1.4932 H   0  0  0  0  0  0  0  0  0  0  0  0
   -2.0397   -2.5494    1.3298 C   0  0  0  0  0  0  0  0  0  0  0  0
   -1.9403   -1.8123    2.1302 H   0  0  0  0  0  0  0  0  0  0  0  0
   -3.0492   -2.9657    1.3666 H   0  0  0  0  0  0  0  0  0  0  0  0
   -1.7909   -1.9006   -0.0208 C   0  0  0  0  0  0  0  0  0  0  0  0
   -2.4477   -2.2690   -0.9827 O   0  0  0  0  0  0  0  0  0  0  0  0
   -1.3503   -0.6159   -0.2208 N   0  0  0  0  0  0  0  0  0  0  0  0
   -1.5577   -0.3983   -1.1912 H   0  0  0  0  0  0  0  0  0  0  0  0
   -0.1303    0.0681    0.2776 C   0  0  1  0  0  0  0  0  0  0  0  0
   -0.3027    0.3658    1.3170 H   0  0  0  0  0  0  0  0  0  0  0  0
    1.1612   -0.7946    0.2345 C   0  0  0  0  0  0  0  0  0  0  0  0
    1.2934   -1.1793   -0.7805 H   0  0  0  0  0  0  0  0  0  0  0  0
    2.0209   -0.1600    0.4636 H   0  0  0  0  0  0  0  0  0  0  0  0
    1.2370   -1.9600    1.2099 C   0  0  0  0  0  0  0  0  0  0  0  0
    0.6190   -1.8546    2.2973 O   0  5  0  0  0  0  0  0  0  0  0  0
    1.8821   -2.9737    0.8531 O   0  0  0  0  0  0  0  0  0  0  0  0
    0.0634    1.3729   -0.5435 C   0  0  0  0  0  0  0  0  0  0  0  0
    1.1565    1.8799   -0.7683 O   0  0  0  0  0  0  0  0  0  0  0  0
   -1.0581    2.0156   -1.0442 N   0  0  0  0  0  0  0  0  0  0  0  0
   -1.9579    1.6496   -0.7458 H   0  0  0  0  0  0  0  0  0  0  0  0
   -1.0139    3.2779   -1.7688 C   0  0  0  0  0  0  0  0  0  0  0  0
   -0.3820    3.1869   -2.6583 H   0  0  0  0  0  0  0  0  0  0  0  0
   -2.0206    3.5619   -2.0894 H   0  0  0  0  0  0  0  0  0  0  0  0
   -0.6151    4.0719   -1.1294 H   0  0  0  0  0  0  0  0  0  0  0  0
  1  2  1  0  0  0  0
  2  3  1  0  0  0  0
  2  4  1  0  0  0  0
  2  5  1  0  0  0  0
  5  6  2  0  0  0  0
  5  7  1  0  0  0  0
  7  8  1  0  0  0  0
  7  9  1  0  0  0  0
  9 10  1  0  0  0  0
  9 11  1  0  0  0  0
  9 17  1  0  0  0  0
 11 12  1  0  0  0  0
 11 13  1  0  0  0  0
 11 14  1  0  0  0  0
 14 15  1  0  0  0  0
 14 16  2  0  0  0  0
 17 18  2  0  0  0  0
 17 19  1  0  0  0  0
 19 20  1  0  0  0  0
 19 21  1  0  0  0  0
 21 22  1  0  0  0  0
 21 23  1  0  0  0  0
 21 24  1  0  0  0  0
M  CHG  1  15  -1
M  END
$$$$

  -OEChem-01062216073D

 24 23  0     1  0  0  0  0  0999 V2000
   -1.3143   -3.3389    1.4346 H   0  0  0  0  0  0  0  0  0  0  0  0
   -2.0389   -2.5340    1.2875 C   0  0  0  0  0  0  0  0  0  0  0  0
   -1.9465   -1.8108    2.1011 H   0  0  0  0  0  0  0  0  0  0  0  0
   -3.0439   -2.9611    1.3184 H   0  0  0  0  0  0  0  0  0  0  0  0
   -1.8004   -1.8576   -0.0511 C   0  0  0  0  0  0  0  0  0  0  0  0
   -2.4796   -2.1942   -1.0093 O   0  0  0  0  0  0  0  0  0  0  0  0
   -1.3269   -0.5815   -0.2336 N   0  0  0  0  0  0  0  0  0  0  0  0
   -1.5502   -0.3268   -1.1915 H   0  0  0  0  0  0  0  0  0  0  0  0
   -0.0957    0.0731    0.2735 C   0  0  1  0  0  0  0  0  0  0  0  0
   -0.2717    0.3725    1.3118 H   0  0  0  0  0  0  0  0  0  0  0  0
    1.1833   -0.8083    0.2513 C   0  0  0  0  0  0  0  0  0  0  0  0
    1.3213   -1.2024   -0.7594 H   0  0  0  0  0  0  0  0  0  0  0  0
    2.0481   -0.1817    0.4850 H   0  0  0  0  0  0  0  0  0  0  0  0
    1.2298   -1.9685    1.2344 C   0  0  0  0  0  0  0  0  0  0  0  0
    0.5992   -1.8447    2.3128 O   0  5  0  0  0  0  0  0  0  0  0  0
    1.8697   -2.9924    0.8975 O   0  0  0  0  0  0  0  0  0  0  0  0
    0.1157    1.3768   -0.5409 C   0  0  0  0  0  0  0  0  0  0  0  0
    1.1902    1.7258   -1.0166 O   0  0  0  0  0  0  0  0  0  0  0  0
   -0.9832    2.1912   -0.7580 N   0  0  0  0  0  0  0  0  0  0  0  0
   -1.8559    1.9011   -0.3257 H   0  0  0  0  0  0  0  0  0  0  0  0
   -0.9329    3.4518   -1.4842 C   0  0  0  0  0  0  0  0  0  0  0  0
   -0.5728    3.2914   -2.5054 H   0  0  0  0  0  0  0  0  0  0  0  0
   -1.9317    3.8951   -1.5358 H   0  0  0  0  0  0  0  0  0  0  0  0
   -0.2655    4.1575   -0.9791 H   0  0  0  0  0  0  0  0  0  0  0  0
  1  2  1  0  0  0  0
  2  3  1  0  0  0  0
  2  4  1  0  0  0  0
  2  5  1  0  0  0  0
  5  6  2  0  0  0  0
  5  7  1  0  0  0  0
  7  8  1  0  0  0  0
  7  9  1  0  0  0  0
  9 10  1  0  0  0  0
  9 11  1  0  0  0  0
  9 17  1  0  0  0  0
 11 12  1  0  0  0  0
 11 13  1  0  0  0  0
 11 14  1  0  0  0  0
 14 15  1  0  0  0  0
 14 16  2  0  0  0  0
 17 18  2  0  0  0  0
 17 19  1  0  0  0  0
 19 20  1  0  0  0  0
 19 21  1  0  0  0  0
 21 22  1  0  0  0  0
 21 23  1  0  0  0  0
 21 24  1  0  0  0  0
M  CHG  1  15  -1
M  END
$$$$

  -OEChem-01062216073D

 24 23  0     1  0  0  0  0  0999 V2000
   -1.3057   -3.3175    1.3937 H   0  0  0  0  0  0  0  0  0  0  0  0
   -2.0419   -2.5218    1.2541 C   0  0  0  0  0  0  0  0  0  0  0  0
   -1.9640   -1.8071    2.0767 H   0  0  0  0  0  0  0  0  0  0  0  0
   -3.0402   -2.9654    1.2771 H   0  0  0  0  0  0  0  0  0  0  0  0
   -1.8107   -1.8251   -0.0753 C   0  0  0  0  0  0  0  0  0  0  0  0
   -2.5024   -2.1417   -1.0312 O   0  0  0  0  0  0  0  0  0  0  0  0
   -1.3085   -0.5587   -0.2510 N   0  0  0  0  0  0  0  0  0  0  0  0
   -1.5315   -0.2856   -1.2040 H   0  0  0  0  0  0  0  0  0  0  0  0
   -0.0753    0.0787    0.2684 C   0  0  1  0  0  0  0  0  0  0  0  0
   -0.2635    0.3863    1.3021 H   0  0  0  0  0  0  0  0  0  0  0  0
    1.1969   -0.8104    0.2798 C   0  0  0  0  0  0  0  0  0  0  0  0
    1.3478   -1.2191   -0.7234 H   0  0  0  0  0  0  0  0  0  0  0  0
    2.0604   -0.1831    0.5165 H   0  0  0  0  0  0  0  0  0  0  0  0
    1.2187   -1.9595    1.2764 C   0  0  0  0  0  0  0  0  0  0  0  0
    0.5692   -1.8179    2.3417 O   0  5  0  0  0  0  0  0  0  0  0  0
    1.8646   -2.9885    0.9682 O   0  0  0  0  0  0  0  0  0  0  0  0
    0.1640    1.3732   -0.5478 C   0  0  0  0  0  0  0  0  0  0  0  0
    1.1435    1.5648   -1.2598 O   0  0  0  0  0  0  0  0  0  0  0  0
   -0.8192    2.3468   -0.5155 N   0  0  0  0  0  0  0  0  0  0  0  0
   -1.6356    2.1520    0.0572 H   0  0  0  0  0  0  0  0  0  0  0  0
   -0.7510    3.5978   -1.2569 C   0  0  0  0  0  0  0  0  0  0  0  0
   -0.6742    3.4029   -2.3315 H   0  0  0  0  0  0  0  0  0  0  0  0
   -1.6527    4.1904   -1.0763 H   0  0  0  0  0  0  0  0  0  0  0  0
    0.1179    4.1832   -0.9392 H   0  0  0  0  0  0  0  0  0  0  0  0
  1  2  1  0  0  0  0
  2  3  1  0  0  0  0
  2  4  1  0  0  0  0
  2  5  1  0  0  0  0
  5  6  2  0  0  0  0
  5  7  1  0  0  0  0
  7  8  1  0  0  0  0
  7  9  1  0  0  0  0
  9 10  1  0  0  0  0
  9 11  1  0  0  0  0
  9 17  1  0  0  0  0
 11 12  1  0  0  0  0
 11 13  1  0  0  0  0
 11 14  1  0  0  0  0
 14 15  1  0  0  0  0
 14 16  2  0  0  0  0
 17 18  2  0  0  0  0
 17 19  1  0  0  0  0
 19 20  1  0  0  0  0
 19 21  1  0  0  0  0
 21 22  1  0  0  0  0
 21 23  1  0  0  0  0
 21 24  1  0  0  0  0
M  CHG  1  15  -1
M  END
$$$$

  -OEChem-01062216073D

 24 23  0     1  0  0  0  0  0999 V2000
   -1.3066   -3.2989    1.3822 H   0  0  0  0  0  0  0  0  0  0  0  0
   -2.0449   -2.5065    1.2355 C   0  0  0  0  0  0  0  0  0  0  0  0
   -1.9735   -1.7875    2.0548 H   0  0  0  0  0  0  0  0  0  0  0  0
   -3.0415   -2.9539    1.2559 H   0  0  0  0  0  0  0  0  0  0  0  0
   -1.8106   -1.8152   -0.0960 C   0  0  0  0  0  0  0  0  0  0  0  0
   -2.4990   -2.1387   -1.0520 O   0  0  0  0  0  0  0  0  0  0  0  0
   -1.2986   -0.5530   -0.2756 N   0  0  0  0  0  0  0  0  0  0  0  0
   -1.5100   -0.2817   -1.2321 H   0  0  0  0  0  0  0  0  0  0  0  0
   -0.0672    0.0786    0.2516 C   0  0  1  0  0  0  0  0  0  0  0  0
   -0.2663    0.3883    1.2826 H   0  0  0  0  0  0  0  0  0  0  0  0
    1.2057   -0.8079    0.2844 C   0  0  0  0  0  0  0  0  0  0  0  0
    1.3663   -1.2264   -0.7135 H   0  0  0  0  0  0  0  0  0  0  0  0
    2.0652   -0.1752    0.5205 H   0  0  0  0  0  0  0  0  0  0  0  0
    1.2195   -1.9500    1.2893 C   0  0  0  0  0  0  0  0  0  0  0  0
    0.5579   -1.8012    2.3461 O   0  5  0  0  0  0  0  0  0  0  0  0
    1.8832   -2.9737    1.0031 O   0  0  0  0  0  0  0  0  0  0  0  0
    0.1988    1.3666   -0.5628 C   0  0  0  0  0  0  0  0  0  0  0  0
    1.0037    1.4258   -1.4854 O   0  0  0  0  0  0  0  0  0  0  0  0
   -0.5922    2.4738   -0.3123 N   0  0  0  0  0  0  0  0  0  0  0  0
   -1.2927    2.3810    0.4173 H   0  0  0  0  0  0  0  0  0  0  0  0
   -0.5018    3.7216   -1.0569 C   0  0  0  0  0  0  0  0  0  0  0  0
   -0.7148    3.5512   -2.1172 H   0  0  0  0  0  0  0  0  0  0  0  0
   -1.2273    4.4428   -0.6692 H   0  0  0  0  0  0  0  0  0  0  0  0
    0.5002    4.1523   -0.9607 H   0  0  0  0  0  0  0  0  0  0  0  0
  1  2  1  0  0  0  0
  2  3  1  0  0  0  0
  2  4  1  0  0  0  0
  2  5  1  0  0  0  0
  5  6  2  0  0  0  0
  5  7  1  0  0  0  0
  7  8  1  0  0  0  0
  7  9  1  0  0  0  0
  9 10  1  0  0  0  0
  9 11  1  0  0  0  0
  9 17  1  0  0  0  0
 11 12  1  0  0  0  0
 11 13  1  0  0  0  0
 11 14  1  0  0  0  0
 14 15  1  0  0  0  0
 14 16  2  0  0  0  0
 17 18  2  0  0  0  0
 17 19  1  0  0  0  0
 19 20  1  0  0  0  0
 19 21  1  0  0  0  0
 21 22  1  0  0  0  0
 21 23  1  0  0  0  0
 21 24  1  0  0  0  0
M  CHG  1  15  -1
M  END
$$$$

  -OEChem-01062216073D

 24 23  0     1  0  0  0  0  0999 V2000
   -1.3372   -3.2704    1.3909 H   0  0  0  0  0  0  0  0  0  0  0  0
   -2.0649   -2.4711    1.2294 C   0  0  0  0  0  0  0  0  0  0  0  0
   -1.9879   -1.7409    2.0383 H   0  0  0  0  0  0  0  0  0  0  0  0
   -3.0675   -2.9047    1.2520 H   0  0  0  0  0  0  0  0  0  0  0  0
   -1.8158   -1.8032   -0.1113 C   0  0  0  0  0  0  0  0  0  0  0  0
   -2.4963   -2.1414   -1.0679 O   0  0  0  0  0  0  0  0  0  0  0  0
   -1.2896   -0.5489   -0.3036 N   0  0  0  0  0  0  0  0  0  0  0  0
   -1.4786   -0.2892   -1.2685 H   0  0  0  0  0  0  0  0  0  0  0  0
   -0.0600    0.0761    0.2323 C   0  0  1  0  0  0  0  0  0  0  0  0
   -0.2720    0.3950    1.2577 H   0  0  0  0  0  0  0  0  0  0  0  0
    1.2113   -0.8104    0.2885 C   0  0  0  0  0  0  0  0  0  0  0  0
    1.3825   -1.2382   -0.7034 H   0  0  0  0  0  0  0  0  0  0  0  0
    2.0681   -0.1756    0.5279 H   0  0  0  0  0  0  0  0  0  0  0  0
    1.2140   -1.9447    1.3019 C   0  0  0  0  0  0  0  0  0  0  0  0
    0.5397   -1.7879    2.3493 O   0  5  0  0  0  0  0  0  0  0  0  0
    1.8959   -2.9629    1.0396 O   0  0  0  0  0  0  0  0  0  0  0  0
    0.2387    1.3485   -0.5913 C   0  0  0  0  0  0  0  0  0  0  0  0
    0.8078    1.3094   -1.6762 O   0  0  0  0  0  0  0  0  0  0  0  0
   -0.3008    2.5524   -0.1742 N   0  0  0  0  0  0  0  0  0  0  0  0
   -0.8351    2.5423    0.6894 H   0  0  0  0  0  0  0  0  0  0  0  0
   -0.1882    3.7942   -0.9255 C   0  0  0  0  0  0  0  0  0  0  0  0
   -0.6564    3.6900   -1.9095 H   0  0  0  0  0  0  0  0  0  0  0  0
   -0.6888    4.6047   -0.3878 H   0  0  0  0  0  0  0  0  0  0  0  0
    0.8639    4.0654   -1.0596 H   0  0  0  0  0  0  0  0  0  0  0  0
  1  2  1  0  0  0  0
  2  3  1  0  0  0  0
  2  4  1  0  0  0  0
  2  5  1  0  0  0  0
  5  6  2  0  0  0  0
  5  7  1  0  0  0  0
  7  8  1  0  0  0  0
  7  9  1  0  0  0  0
  9 10  1  0  0  0  0
  9 11  1  0  0  0  0
  9 17  1  0  0  0  0
 11 12  1  0  0  0  0
 11 13  1  0  0  0  0
 11 14  1  0  0  0  0
 14 15  1  0  0  0  0
 14 16  2  0  0  0  0
 17 18  2  0  0  0  0
 17 19  1  0  0  0  0
 19 20  1  0  0  0  0
 19 21  1  0  0  0  0
 21 22  1  0  0  0  0
 21 23  1  0  0  0  0
 21 24  1  0  0  0  0
M  CHG  1  15  -1
M  END
$$$$

  -OEChem-01062216073D

 24 23  0     1  0  0  0  0  0999 V2000
   -2.9668   -3.3811    1.0940 H   0  0  0  0  0  0  0  0  0  0  0  0
   -2.8770   -2.3159    0.8628 C   0  0  0  0  0  0  0  0  0  0  0  0
   -3.0612   -1.7442    1.7756 H   0  0  0  0  0  0  0  0  0  0  0  0
   -3.6275   -2.0517    0.1141 H   0  0  0  0  0  0  0  0  0  0  0  0
   -1.4848   -2.0127    0.3365 C   0  0  0  0  0  0  0  0  0  0  0  0
   -0.7697   -2.9451    0.0222 O   0  0  0  0  0  0  0  0  0  0  0  0
   -1.1864   -0.7120   -0.0154 N   0  0  0  0  0  0  0  0  0  0  0  0
   -1.9851   -0.0968    0.0673 H   0  0  0  0  0  0  0  0  0  0  0  0
    0.1151   -0.0195    0.1116 C   0  0  1  0  0  0  0  0  0  0  0  0
    0.1104    0.3472    1.1419 H   0  0  0  0  0  0  0  0  0  0  0  0
    1.4375   -0.8141    0.0037 C   0  0  0  0  0  0  0  0  0  0  0  0
    1.4274   -1.3968   -0.9214 H   0  0  0  0  0  0  0  0  0  0  0  0
    2.2747   -0.1135   -0.0477 H   0  0  0  0  0  0  0  0  0  0  0  0
    1.7083   -1.7578    1.1790 C   0  0  0  0  0  0  0  0  0  0  0  0
    1.2274   -1.4347    2.3006 O   0  5  0  0  0  0  0  0  0  0  0  0
    2.6051   -2.6222    1.0170 O   0  0  0  0  0  0  0  0  0  0  0  0
    0.1462    1.2775   -0.7242 C   0  0  0  0  0  0  0  0  0  0  0  0
    0.0675    1.2674   -1.9474 O   0  0  0  0  0  0  0  0  0  0  0  0
    0.0474    2.4953   -0.0719 N   0  0  0  0  0  0  0  0  0  0  0  0
    0.2045    2.4808    0.9321 H   0  0  0  0  0  0  0  0  0  0  0  0
    0.0618    3.7765   -0.7635 C   0  0  0  0  0  0  0  0  0  0  0  0
   -0.7687    3.8382   -1.4742 H   0  0  0  0  0  0  0  0  0  0  0  0
   -0.0407    4.5930   -0.0427 H   0  0  0  0  0  0  0  0  0  0  0  0
    1.0036    3.9073   -1.3060 H   0  0  0  0  0  0  0  0  0  0  0  0
  1  2  1  0  0  0  0
  2  3  1  0  0  0  0
  2  4  1  0  0  0  0
  2  5  1  0  0  0  0
  5  6  2  0  0  0  0
  5  7  1  0  0  0  0
  7  8  1  0  0  0  0
  7  9  1  0  0  0  0
  9 10  1  0  0  0  0
  9 11  1  0  0  0  0
  9 17  1  0  0  0  0
 11 12  1  0  0  0  0
 11 13  1  0  0  0  0
 11 14  1  0  0  0  0
 14 15  1  0  0  0  0
 14 16  2  0  0  0  0
 17 18  2  0  0  0  0
 17 19  1  0  0  0  0
 19 20  1  0  0  0  0
 19 21  1  0  0  0  0
 21 22  1  0  0  0  0
 21 23  1  0  0  0  0
 21 24  1  0  0  0  0
M  CHG  1  15  -1
M  END
$$$$

  -OEChem-01062216073D

 24 23  0     1  0  0  0  0  0999 V2000
   -3.1444   -3.3025    1.0443 H   0  0  0  0  0  0  0  0  0  0  0  0
   -2.9954   -2.2668    0.7254 C   0  0  0  0  0  0  0  0  0  0  0  0
   -3.3963   -1.6033    1.4954 H   0  0  0  0  0  0  0  0  0  0  0  0
   -3.5377   -2.1034   -0.2089 H   0  0  0  0  0  0  0  0  0  0  0  0
   -1.5158   -1.9893    0.5218 C   0  0  0  0  0  0  0  0  0  0  0  0
   -0.7536   -2.9343    0.5361 O   0  0  0  0  0  0  0  0  0  0  0  0
   -1.1481   -0.7124    0.1474 N   0  0  0  0  0  0  0  0  0  0  0  0
   -1.9323   -0.1026   -0.0510 H   0  0  0  0  0  0  0  0  0  0  0  0
    0.1657   -0.0326    0.1729 C   0  0  1  0  0  0  0  0  0  0  0  0
    0.2289    0.3469    1.1969 H   0  0  0  0  0  0  0  0  0  0  0  0
    1.4807   -0.8236   -0.0142 C   0  0  0  0  0  0  0  0  0  0  0  0
    1.4027   -1.4185   -0.9281 H   0  0  0  0  0  0  0  0  0  0  0  0
    2.3068   -0.1195   -0.1399 H   0  0  0  0  0  0  0  0  0  0  0  0
    1.8618   -1.7543    1.1387 C   0  0  0  0  0  0  0  0  0  0  0  0
    1.4758   -1.4300    2.2950 O   0  5  0  0  0  0  0  0  0  0  0  0
    2.7629   -2.5978    0.9010 O   0  0  0  0  0  0  0  0  0  0  0  0
    0.1469    1.2475   -0.6867 C   0  0  0  0  0  0  0  0  0  0  0  0
   -0.3571    1.2574   -1.8054 O   0  0  0  0  0  0  0  0  0  0  0  0
    0.4187    2.4633   -0.0837 N   0  0  0  0  0  0  0  0  0  0  0  0
    0.8532    2.4240    0.8349 H   0  0  0  0  0  0  0  0  0  0  0  0
    0.3510    3.7417   -0.7769 C   0  0  0  0  0  0  0  0  0  0  0  0
   -0.6705    3.9394   -1.1172 H   0  0  0  0  0  0  0  0  0  0  0  0
    0.6534    4.5493   -0.1037 H   0  0  0  0  0  0  0  0  0  0  0  0
    1.0206    3.7436   -1.6430 H   0  0  0  0  0  0  0  0  0  0  0  0
  1  2  1  0  0  0  0
  2  3  1  0  0  0  0
  2  4  1  0  0  0  0
  2  5  1  0  0  0  0
  5  6  2  0  0  0  0
  5  7  1  0  0  0  0
  7  8  1  0  0  0  0
  7  9  1  0  0  0  0
  9 10  1  0  0  0  0
  9 11  1  0  0  0  0
  9 17  1  0  0  0  0
 11 12  1  0  0  0  0
 11 13  1  0  0  0  0
 11 14  1  0  0  0  0
 14 15  1  0  0  0  0
 14 16  2  0  0  0  0
 17 18  2  0  0  0  0
 17 19  1  0  0  0  0
 19 20  1  0  0  0  0
 19 21  1  0  0  0  0
 21 22  1  0  0  0  0
 21 23  1  0  0  0  0
 21 24  1  0  0  0  0
M  CHG  1  15  -1
M  END
$$$$

  -OEChem-01062216073D

 24 23  0     1  0  0  0  0  0999 V2000
   -3.1793   -3.2834    1.0325 H   0  0  0  0  0  0  0  0  0  0  0  0
   -3.0125   -2.2560    0.6962 C   0  0  0  0  0  0  0  0  0  0  0  0
   -3.4626   -1.5733    1.4208 H   0  0  0  0  0  0  0  0  0  0  0  0
   -3.4947   -2.1196   -0.2748 H   0  0  0  0  0  0  0  0  0  0  0  0
   -1.5235   -1.9782    0.5791 C   0  0  0  0  0  0  0  0  0  0  0  0
   -0.7622   -2.9182    0.6814 O   0  0  0  0  0  0  0  0  0  0  0  0
   -1.1397   -0.7100    0.1922 N   0  0  0  0  0  0  0  0  0  0  0  0
   -1.9098   -0.1158   -0.0954 H   0  0  0  0  0  0  0  0  0  0  0  0
    0.1757   -0.0337    0.1927 C   0  0  1  0  0  0  0  0  0  0  0  0
    0.2578    0.3548    1.2125 H   0  0  0  0  0  0  0  0  0  0  0  0
    1.4849   -0.8288   -0.0186 C   0  0  0  0  0  0  0  0  0  0  0  0
    1.3852   -1.4242   -0.9299 H   0  0  0  0  0  0  0  0  0  0  0  0
    2.3102   -0.1276   -0.1635 H   0  0  0  0  0  0  0  0  0  0  0  0
    1.8935   -1.7610    1.1222 C   0  0  0  0  0  0  0  0  0  0  0  0
    1.5366   -1.4389    2.2877 O   0  5  0  0  0  0  0  0  0  0  0  0
    2.7903   -2.6016    0.8589 O   0  0  0  0  0  0  0  0  0  0  0  0
    0.1455    1.2377   -0.6788 C   0  0  0  0  0  0  0  0  0  0  0  0
   -0.6025    1.3225   -1.6496 O   0  0  0  0  0  0  0  0  0  0  0  0
    0.7213    2.3972   -0.1913 N   0  0  0  0  0  0  0  0  0  0  0  0
    1.3318    2.2939    0.6159 H   0  0  0  0  0  0  0  0  0  0  0  0
    0.6658    3.6796   -0.8773 C   0  0  0  0  0  0  0  0  0  0  0  0
   -0.3712    4.0164   -0.9758 H   0  0  0  0  0  0  0  0  0  0  0  0
    1.2212    4.4321   -0.3097 H   0  0  0  0  0  0  0  0  0  0  0  0
    1.1098    3.5995   -1.8747 H   0  0  0  0  0  0  0  0  0  0  0  0
  1  2  1  0  0  0  0
  2  3  1  0  0  0  0
  2  4  1  0  0  0  0
  2  5  1  0  0  0  0
  5  6  2  0  0  0  0
  5  7  1  0  0  0  0
  7  8  1  0  0  0  0
  7  9  1  0  0  0  0
  9 10  1  0  0  0  0
  9 11  1  0  0  0  0
  9 17  1  0  0  0  0
 11 12  1  0  0  0  0
 11 13  1  0  0  0  0
 11 14  1  0  0  0  0
 14 15  1  0  0  0  0
 14 16  2  0  0  0  0
 17 18  2  0  0  0  0
 17 19  1  0  0  0  0
 19 20  1  0  0  0  0
 19 21  1  0  0  0  0
 21 22  1  0  0  0  0
 21 23  1  0  0  0  0
 21 24  1  0  0  0  0
M  CHG  1  15  -1
M  END
$$$$

  -OEChem-01062216073D

 24 23  0     1  0  0  0  0  0999 V2000
   -3.1746   -3.2803    1.0464 H   0  0  0  0  0  0  0  0  0  0  0  0
   -3.0071   -2.2519    0.7140 C   0  0  0  0  0  0  0  0  0  0  0  0
   -3.4374   -1.5715    1.4527 H   0  0  0  0  0  0  0  0  0  0  0  0
   -3.5085   -2.1044   -0.2455 H   0  0  0  0  0  0  0  0  0  0  0  0
   -1.5188   -1.9836    0.5687 C   0  0  0  0  0  0  0  0  0  0  0  0
   -0.7614   -2.9297    0.6421 O   0  0  0  0  0  0  0  0  0  0  0  0
   -1.1338   -0.7165    0.1810 N   0  0  0  0  0  0  0  0  0  0  0  0
   -1.9048   -0.1125   -0.0853 H   0  0  0  0  0  0  0  0  0  0  0  0
    0.1787   -0.0352    0.1917 C   0  0  1  0  0  0  0  0  0  0  0  0
    0.2582    0.3595    1.2094 H   0  0  0  0  0  0  0  0  0  0  0  0
    1.4869   -0.8352   -0.0174 C   0  0  0  0  0  0  0  0  0  0  0  0
    1.3883   -1.4273   -0.9311 H   0  0  0  0  0  0  0  0  0  0  0  0
    2.3182   -0.1403   -0.1566 H   0  0  0  0  0  0  0  0  0  0  0  0
    1.8858   -1.7734    1.1217 C   0  0  0  0  0  0  0  0  0  0  0  0
    1.5247   -1.4549    2.2866 O   0  5  0  0  0  0  0  0  0  0  0  0
    2.7834   -2.6133    0.8589 O   0  0  0  0  0  0  0  0  0  0  0  0
    0.1481    1.2322   -0.6870 C   0  0  0  0  0  0  0  0  0  0  0  0
   -0.7473    1.4116   -1.5101 O   0  0  0  0  0  0  0  0  0  0  0  0
    0.9660    2.2981   -0.3585 N   0  0  0  0  0  0  0  0  0  0  0  0
    1.6850    2.1191    0.3387 H   0  0  0  0  0  0  0  0  0  0  0  0
    0.9493    3.5788   -1.0494 C   0  0  0  0  0  0  0  0  0  0  0  0
   -0.0379    4.0449   -0.9682 H   0  0  0  0  0  0  0  0  0  0  0  0
    1.6871    4.2535   -0.6054 H   0  0  0  0  0  0  0  0  0  0  0  0
    1.1934    3.4452   -2.1082 H   0  0  0  0  0  0  0  0  0  0  0  0
  1  2  1  0  0  0  0
  2  3  1  0  0  0  0
  2  4  1  0  0  0  0
  2  5  1  0  0  0  0
  5  6  2  0  0  0  0
  5  7  1  0  0  0  0
  7  8  1  0  0  0  0
  7  9  1  0  0  0  0
  9 10  1  0  0  0  0
  9 11  1  0  0  0  0
  9 17  1  0  0  0  0
 11 12  1  0  0  0  0
 11 13  1  0  0  0  0
 11 14  1  0  0  0  0
 14 15  1  0  0  0  0
 14 16  2  0  0  0  0
 17 18  2  0  0  0  0
 17 19  1  0  0  0  0
 19 20  1  0  0  0  0
 19 21  1  0  0  0  0
 21 22  1  0  0  0  0
 21 23  1  0  0  0  0
 21 24  1  0  0  0  0
M  CHG  1  15  -1
M  END
$$$$

  -OEChem-01062216073D

 24 23  0     1  0  0  0  0  0999 V2000
   -3.1449   -3.2889    1.0614 H   0  0  0  0  0  0  0  0  0  0  0  0
   -2.9862   -2.2523    0.7510 C   0  0  0  0  0  0  0  0  0  0  0  0
   -3.3576   -1.5908    1.5374 H   0  0  0  0  0  0  0  0  0  0  0  0
   -3.5469   -2.0681   -0.1684 H   0  0  0  0  0  0  0  0  0  0  0  0
   -1.5073   -1.9962    0.5177 C   0  0  0  0  0  0  0  0  0  0  0  0
   -0.7590   -2.9530    0.4941 O   0  0  0  0  0  0  0  0  0  0  0  0
   -1.1286   -0.7252    0.1372 N   0  0  0  0  0  0  0  0  0  0  0  0
   -1.9057   -0.1017   -0.0582 H   0  0  0  0  0  0  0  0  0  0  0  0
    0.1799   -0.0374    0.1796 C   0  0  1  0  0  0  0  0  0  0  0  0
    0.2432    0.3612    1.1970 H   0  0  0  0  0  0  0  0  0  0  0  0
    1.4868   -0.8488   -0.0072 C   0  0  0  0  0  0  0  0  0  0  0  0
    1.4000   -1.4385   -0.9235 H   0  0  0  0  0  0  0  0  0  0  0  0
    2.3314   -0.1672   -0.1264 H   0  0  0  0  0  0  0  0  0  0  0  0
    1.8483   -1.7936    1.1392 C   0  0  0  0  0  0  0  0  0  0  0  0
    1.4620   -1.4736    2.2955 O   0  5  0  0  0  0  0  0  0  0  0  0
    2.7480   -2.6374    0.8976 O   0  0  0  0  0  0  0  0  0  0  0  0
    0.1561    1.2303   -0.7024 C   0  0  0  0  0  0  0  0  0  0  0  0
   -0.8346    1.5142   -1.3738 O   0  0  0  0  0  0  0  0  0  0  0  0
    1.1543    2.1781   -0.5665 N   0  0  0  0  0  0  0  0  0  0  0  0
    1.9494    1.9197    0.0133 H   0  0  0  0  0  0  0  0  0  0  0  0
    1.1752    3.4468   -1.2789 C   0  0  0  0  0  0  0  0  0  0  0  0
    0.2925    4.0428   -1.0254 H   0  0  0  0  0  0  0  0  0  0  0  0
    2.0676    4.0166   -1.0034 H   0  0  0  0  0  0  0  0  0  0  0  0
    1.1914    3.2777   -2.3603 H   0  0  0  0  0  0  0  0  0  0  0  0
  1  2  1  0  0  0  0
  2  3  1  0  0  0  0
  2  4  1  0  0  0  0
  2  5  1  0  0  0  0
  5  6  2  0  0  0  0
  5  7  1  0  0  0  0
  7  8  1  0  0  0  0
  7  9  1  0  0  0  0
  9 10  1  0  0  0  0
  9 11  1  0  0  0  0
  9 17  1  0  0  0  0
 11 12  1  0  0  0  0
 11 13  1  0  0  0  0
 11 14  1  0  0  0  0
 14 15  1  0  0  0  0
 14 16  2  0  0  0  0
 17 18  2  0  0  0  0
 17 19  1  0  0  0  0
 19 20  1  0  0  0  0
 19 21  1  0  0  0  0
 21 22  1  0  0  0  0
 21 23  1  0  0  0  0
 21 24  1  0  0  0  0
M  CHG  1  15  -1
M  END
$$$$
