@<TRIPOS>MOLECULE
default_name
   18    17     1     0     0
SMALL
No Charge or Current Charge


@<TRIPOS>ATOM
      1 H1          25.8340    25.1250    24.3370 H          1 ACE       0.112300
      2 CH3         25.9250    26.1880    24.1230 C.3        1 ACE      -0.366200
      3 H2          25.4510    26.7690    24.9120 H          1 ACE       0.112300
      4 H3          25.4620    26.4180    23.1660 H          1 ACE       0.112300
      5 C           27.3910    26.5540    24.0610 C.2        1 ACE       0.597200
      6 O           28.2380    25.6830    24.2280 O.2        1 ACE      -0.567900
      7 N           27.6600    27.8350    23.8120 N.am       2 CSE      -0.567900
      8 H           26.8880    28.4880    23.7410 H          2 CSE      -0.567900
      9 CA          28.9730    28.4990    23.8170 C.3        2 CSE      -0.567900
     10 HA          29.5440    28.1780    24.6860 H          2 CSE      -0.567900
     11 CB          29.7520    28.1340    22.5510 C.3        2 CSE      -0.567900
     12 HB2         29.8950    27.0530    22.4960 H          2 CSE      -0.567900
     13 HB3         29.2020    28.4780    21.6730 H          2 CSE      -0.567900
     14 OG          31.0020    28.7810    22.6160 O.3        2 CSE      -0.567900
     15 HG          30.8000    29.6420    23.0590 H          2 CSE      -0.567900
     16 C           28.7920    30.0190    23.9320 C.2        2 CSE      -0.567900
     17 O           27.6210    30.4560    23.9840 O.co2      2 CSE      -0.567900
     18 OXT         29.8380    30.7060    23.9270 O.co2      2 CSE      -0.567900
@<TRIPOS>BOND
     1     5     6 2   
     2     5     7 am  
     3     2     3 1   
     4     2     4 1   
     5     2     5 1   
     6     1     2 1   
     7    16    17 1   
     8    16    18 1   
     9    14    15 1   
    10    11    12 1   
    11    11    13 1   
    12    11    14 1   
    13     9    10 1   
    14     9    11 1   
    15     9    16 1   
    16     7     8 1   
    17     7     9 1   
@<TRIPOS>SUBSTRUCTURE
     1 ACE         1 TEMP              0 ****  ****    0 ROOT
