@<TRIPOS>MOLECULE
default_name
   32    33     1     0     0
SMALL
No Charge or Current Charge


@<TRIPOS>ATOM
      1 N           27.4180    25.5000    23.9080 N.4        1 NTR       0.000000
      2 H1          27.9080    24.8050    23.3610 H          1 NTR       0.000000
      3 H2          26.5230    25.7070    23.4870 H          1 NTR       0.000000
      4 H3          27.2830    25.1140    24.8350 H          1 NTR       0.000000
      5 CA          28.2450    26.7220    24.0160 C.3        1 NTR       0.000000
      6 HA          28.4660    27.0960    23.0170 H          1 NTR       0.000000
      7 CB          27.4970    27.8230    24.7830 C.3        1 NTR       0.000000
      8 HB2         26.5830    28.0710    24.2420 H          1 NTR       0.000000
      9 HB3         27.2100    27.4400    25.7650 H          1 NTR       0.000000
     10 CG          28.2760    29.0860    24.9740 C.2        1 NTR       0.000000
     11 CD1         28.6510    29.6100    26.1630 C.2        1 NTR       0.000000
     12 HD1         28.4140    29.1940    27.1380 H          1 NTR       0.000000
     13 NE1         29.3930    30.7550    25.9500 N.pl3      1 NTR       0.000000
     14 HE1         29.7680    31.3280    26.6960 H          1 NTR       0.000000
     15 CE2         29.5460    31.0230    24.6090 C.ar       1 NTR       0.000000
     16 CZ2         30.2240    32.0270    23.9060 C.ar       1 NTR       0.000000
     17 HZ2         30.7650    32.7980    24.4360 H          1 NTR       0.000000
     18 CH2         30.1880    32.0210    22.5020 C.ar       1 NTR       0.000000
     19 HH2         30.7020    32.7920    21.9420 H          1 NTR       0.000000
     20 CZ3         29.4740    31.0160    21.8250 C.ar       1 NTR       0.000000
     21 HZ3         29.4410    31.0290    20.7430 H          1 NTR       0.000000
     22 CE3         28.7950    30.0100    22.5400 C.ar       1 NTR       0.000000
     23 HE3         28.2390    29.2650    21.9940 H          1 NTR       0.000000
     24 CD2         28.8180    29.9850    23.9530 C.ar       1 NTR       0.000000
     25 C           29.5770    26.3570    24.6670 C.2        1 NTR       0.000000
     26 O           29.6470    25.2810    25.2490 O.2        1 NTR       0.000000
     27 N           30.6160    27.1910    24.5390 N.am       2 NME      -0.415700
     28 H           30.4780    28.0860    24.0870 H          2 NME       0.271900
     29 CH3         31.9450    26.9330    25.0940 C.3        2 NME      -0.149000
     30 HH31        32.2560    25.9090    24.8760 H          2 NME       0.097600
     31 HH32        32.6720    27.6230    24.6600 H          2 NME       0.097600
     32 HH33        31.9300    27.0700    26.1770 H          2 NME       0.097600
@<TRIPOS>BOND
     1    25    26 2   
     2    25    27 am  
     3    22    23 1   
     4    22    24 ar  
     5    20    21 1   
     6    20    22 ar  
     7    18    19 1   
     8    18    20 ar  
     9    16    17 1   
    10    16    18 ar  
    11    15    16 ar  
    12    15    24 ar  
    13    13    14 1   
    14    13    15 1   
    15    11    12 1   
    16    11    13 1   
    17    10    11 2   
    18    10    24 1   
    19     7     8 1   
    20     7     9 1   
    21     7    10 1   
    22     5     6 1   
    23     5     7 1   
    24     5    25 1   
    25     1     2 1   
    26     1     3 1   
    27     1     4 1   
    28     1     5 1   
    29    29    30 1   
    30    29    31 1   
    31    29    32 1   
    32    27    28 1   
    33    27    29 1   
@<TRIPOS>SUBSTRUCTURE
     1 NTR         1 TEMP              0 ****  ****    0 ROOT
