
  -OEChem-01062216093D

 26 25  0     1  0  0  0  0  0999 V2000
   -3.1884   -2.9933    1.3539 H   0  0  0  0  0  0  0  0  0  0  0  0
   -3.0158   -2.0955    0.7541 C   0  0  0  0  0  0  0  0  0  0  0  0
   -3.8476   -1.4035    0.9062 H   0  0  0  0  0  0  0  0  0  0  0  0
   -2.9744   -2.3790   -0.3003 H   0  0  0  0  0  0  0  0  0  0  0  0
   -1.7123   -1.4359    1.1628 C   0  0  0  0  0  0  0  0  0  0  0  0
   -1.0972   -1.8587    2.1289 O   0  0  0  0  0  0  0  0  0  0  0  0
   -1.3024   -0.2896    0.5193 N   0  0  0  0  0  0  0  0  0  0  0  0
   -1.9081    0.0361   -0.2334 H   0  0  0  0  0  0  0  0  0  0  0  0
    0.0518    0.3039    0.5079 C   0  0  1  0  0  0  0  0  0  0  0  0
    0.3324    0.5649    1.5325 H   0  0  0  0  0  0  0  0  0  0  0  0
    1.1578   -0.6063   -0.1115 C   0  0  1  0  0  0  0  0  0  0  0  0
    2.0972   -0.0450   -0.0794 H   0  0  0  0  0  0  0  0  0  0  0  0
    1.4395   -1.9273    0.5997 C   0  0  0  0  0  0  0  0  0  0  0  0
    0.6450   -2.6539    0.4095 H   0  0  0  0  0  0  0  0  0  0  0  0
    2.3797   -2.3539    0.2385 H   0  0  0  0  0  0  0  0  0  0  0  0
    1.5288   -1.7692    1.6788 H   0  0  0  0  0  0  0  0  0  0  0  0
    0.8550   -0.8988   -1.4784 O   0  0  0  0  0  0  0  0  0  0  0  0
    1.5270   -1.4879   -1.8619 H   0  0  0  0  0  0  0  0  0  0  0  0
    0.0278    1.5979   -0.3454 C   0  0  0  0  0  0  0  0  0  0  0  0
   -1.0251    1.9998   -0.8351 O   0  0  0  0  0  0  0  0  0  0  0  0
    1.1692    2.3635   -0.5268 N   0  0  0  0  0  0  0  0  0  0  0  0
    2.0371    2.0165   -0.1313 H   0  0  0  0  0  0  0  0  0  0  0  0
    1.1980    3.5882   -1.3174 C   0  0  0  0  0  0  0  0  0  0  0  0
    0.5125    4.3320   -0.8980 H   0  0  0  0  0  0  0  0  0  0  0  0
    2.2067    4.0120   -1.3207 H   0  0  0  0  0  0  0  0  0  0  0  0
    0.9056    3.3829   -2.3525 H   0  0  0  0  0  0  0  0  0  0  0  0
  1  2  1  0  0  0  0
  2  3  1  0  0  0  0
  2  4  1  0  0  0  0
  2  5  1  0  0  0  0
  5  6  2  0  0  0  0
  5  7  1  0  0  0  0
  7  8  1  0  0  0  0
  7  9  1  0  0  0  0
  9 10  1  0  0  0  0
  9 11  1  0  0  0  0
  9 19  1  0  0  0  0
 11 12  1  0  0  0  0
 11 13  1  0  0  0  0
 11 17  1  0  0  0  0
 13 14  1  0  0  0  0
 13 15  1  0  0  0  0
 13 16  1  0  0  0  0
 17 18  1  0  0  0  0
 19 20  2  0  0  0  0
 19 21  1  0  0  0  0
 21 22  1  0  0  0  0
 21 23  1  0  0  0  0
 23 24  1  0  0  0  0
 23 25  1  0  0  0  0
 23 26  1  0  0  0  0
M  END
$$$$

  -OEChem-01062216093D

 26 25  0     1  0  0  0  0  0999 V2000
   -3.2265   -2.9611    1.3082 H   0  0  0  0  0  0  0  0  0  0  0  0
   -3.0394   -2.0467    0.7384 C   0  0  0  0  0  0  0  0  0  0  0  0
   -3.8441   -1.3349    0.9381 H   0  0  0  0  0  0  0  0  0  0  0  0
   -3.0334   -2.2903   -0.3267 H   0  0  0  0  0  0  0  0  0  0  0  0
   -1.7054   -1.4450    1.1375 C   0  0  0  0  0  0  0  0  0  0  0  0
   -1.0917   -1.9130    2.0828 O   0  0  0  0  0  0  0  0  0  0  0  0
   -1.2725   -0.2953    0.5153 N   0  0  0  0  0  0  0  0  0  0  0  0
   -1.8980    0.0877   -0.1924 H   0  0  0  0  0  0  0  0  0  0  0  0
    0.0857    0.2917    0.5160 C   0  0  1  0  0  0  0  0  0  0  0  0
    0.3615    0.5482    1.5430 H   0  0  0  0  0  0  0  0  0  0  0  0
    1.1948   -0.6227   -0.0949 C   0  0  1  0  0  0  0  0  0  0  0  0
    2.1384   -0.0699   -0.0478 H   0  0  0  0  0  0  0  0  0  0  0  0
    1.4637   -1.9477    0.6137 C   0  0  0  0  0  0  0  0  0  0  0  0
    0.6747   -2.6743    0.4019 H   0  0  0  0  0  0  0  0  0  0  0  0
    2.4119   -2.3709    0.2699 H   0  0  0  0  0  0  0  0  0  0  0  0
    1.5313   -1.7962    1.6954 H   0  0  0  0  0  0  0  0  0  0  0  0
    0.9025   -0.9112   -1.4652 O   0  0  0  0  0  0  0  0  0  0  0  0
    1.5459   -1.5436   -1.8287 H   0  0  0  0  0  0  0  0  0  0  0  0
    0.0530    1.5965   -0.3265 C   0  0  0  0  0  0  0  0  0  0  0  0
   -1.0249    2.1181   -0.6018 O   0  0  0  0  0  0  0  0  0  0  0  0
    1.2063    2.2229   -0.7743 N   0  0  0  0  0  0  0  0  0  0  0  0
    2.0835    1.7307   -0.6402 H   0  0  0  0  0  0  0  0  0  0  0  0
    1.1958    3.4087   -1.6226 C   0  0  0  0  0  0  0  0  0  0  0  0
    0.6686    4.2308   -1.1271 H   0  0  0  0  0  0  0  0  0  0  0  0
    2.2199    3.7329   -1.8308 H   0  0  0  0  0  0  0  0  0  0  0  0
    0.6993    3.1938   -2.5746 H   0  0  0  0  0  0  0  0  0  0  0  0
  1  2  1  0  0  0  0
  2  3  1  0  0  0  0
  2  4  1  0  0  0  0
  2  5  1  0  0  0  0
  5  6  2  0  0  0  0
  5  7  1  0  0  0  0
  7  8  1  0  0  0  0
  7  9  1  0  0  0  0
  9 10  1  0  0  0  0
  9 11  1  0  0  0  0
  9 19  1  0  0  0  0
 11 12  1  0  0  0  0
 11 13  1  0  0  0  0
 11 17  1  0  0  0  0
 13 14  1  0  0  0  0
 13 15  1  0  0  0  0
 13 16  1  0  0  0  0
 17 18  1  0  0  0  0
 19 20  2  0  0  0  0
 19 21  1  0  0  0  0
 21 22  1  0  0  0  0
 21 23  1  0  0  0  0
 23 24  1  0  0  0  0
 23 25  1  0  0  0  0
 23 26  1  0  0  0  0
M  END
$$$$

  -OEChem-01062216093D

 26 25  0     1  0  0  0  0  0999 V2000
   -3.2487   -2.9427    1.2387 H   0  0  0  0  0  0  0  0  0  0  0  0
   -3.0652   -1.9963    0.7226 C   0  0  0  0  0  0  0  0  0  0  0  0
   -3.8463   -1.2846    1.0008 H   0  0  0  0  0  0  0  0  0  0  0  0
   -3.1067   -2.1702   -0.3553 H   0  0  0  0  0  0  0  0  0  0  0  0
   -1.7043   -1.4460    1.1055 C   0  0  0  0  0  0  0  0  0  0  0  0
   -1.0911   -1.9520    2.0309 O   0  0  0  0  0  0  0  0  0  0  0  0
   -1.2502   -0.2971    0.4960 N   0  0  0  0  0  0  0  0  0  0  0  0
   -1.8917    0.1338   -0.1675 H   0  0  0  0  0  0  0  0  0  0  0  0
    0.1146    0.2760    0.5036 C   0  0  1  0  0  0  0  0  0  0  0  0
    0.3805    0.5352    1.5326 H   0  0  0  0  0  0  0  0  0  0  0  0
    1.2361   -0.6409   -0.0819 C   0  0  1  0  0  0  0  0  0  0  0  0
    2.1766   -0.0834   -0.0192 H   0  0  0  0  0  0  0  0  0  0  0  0
    1.4975   -1.9588    0.6422 C   0  0  0  0  0  0  0  0  0  0  0  0
    0.7166   -2.6913    0.4207 H   0  0  0  0  0  0  0  0  0  0  0  0
    2.4544   -2.3802    0.3206 H   0  0  0  0  0  0  0  0  0  0  0  0
    1.5433   -1.7984    1.7237 H   0  0  0  0  0  0  0  0  0  0  0  0
    0.9725   -0.9462   -1.4546 O   0  0  0  0  0  0  0  0  0  0  0  0
    1.5833   -1.6325   -1.7756 H   0  0  0  0  0  0  0  0  0  0  0  0
    0.0796    1.5859   -0.3326 C   0  0  0  0  0  0  0  0  0  0  0  0
   -0.9591    2.2394   -0.3770 O   0  0  0  0  0  0  0  0  0  0  0  0
    1.1713    2.0637   -1.0414 N   0  0  0  0  0  0  0  0  0  0  0  0
    1.9330    1.4063   -1.1797 H   0  0  0  0  0  0  0  0  0  0  0  0
    1.1054    3.2306   -1.9137 C   0  0  0  0  0  0  0  0  0  0  0  0
    0.7688    4.1105   -1.3552 H   0  0  0  0  0  0  0  0  0  0  0  0
    2.0939    3.4472   -2.3297 H   0  0  0  0  0  0  0  0  0  0  0  0
    0.4111    3.0509   -2.7411 H   0  0  0  0  0  0  0  0  0  0  0  0
  1  2  1  0  0  0  0
  2  3  1  0  0  0  0
  2  4  1  0  0  0  0
  2  5  1  0  0  0  0
  5  6  2  0  0  0  0
  5  7  1  0  0  0  0
  7  8  1  0  0  0  0
  7  9  1  0  0  0  0
  9 10  1  0  0  0  0
  9 11  1  0  0  0  0
  9 19  1  0  0  0  0
 11 12  1  0  0  0  0
 11 13  1  0  0  0  0
 11 17  1  0  0  0  0
 13 14  1  0  0  0  0
 13 15  1  0  0  0  0
 13 16  1  0  0  0  0
 17 18  1  0  0  0  0
 19 20  2  0  0  0  0
 19 21  1  0  0  0  0
 21 22  1  0  0  0  0
 21 23  1  0  0  0  0
 23 24  1  0  0  0  0
 23 25  1  0  0  0  0
 23 26  1  0  0  0  0
M  END
$$$$

  -OEChem-01062216093D

 26 25  0     1  0  0  0  0  0999 V2000
   -3.2660   -2.9128    1.2366 H   0  0  0  0  0  0  0  0  0  0  0  0
   -3.0738   -1.9713    0.7149 C   0  0  0  0  0  0  0  0  0  0  0  0
   -3.8428   -1.2479    0.9963 H   0  0  0  0  0  0  0  0  0  0  0  0
   -3.1263   -2.1492   -0.3619 H   0  0  0  0  0  0  0  0  0  0  0  0
   -1.7026   -1.4394    1.0859 C   0  0  0  0  0  0  0  0  0  0  0  0
   -1.0878   -1.9591    2.0019 O   0  0  0  0  0  0  0  0  0  0  0  0
   -1.2409   -0.2926    0.4772 N   0  0  0  0  0  0  0  0  0  0  0  0
   -1.8896    0.1525   -0.1683 H   0  0  0  0  0  0  0  0  0  0  0  0
    0.1297    0.2672    0.4793 C   0  0  1  0  0  0  0  0  0  0  0  0
    0.3935    0.5305    1.5081 H   0  0  0  0  0  0  0  0  0  0  0  0
    1.2560   -0.6577   -0.0859 C   0  0  1  0  0  0  0  0  0  0  0  0
    2.1916   -0.0907   -0.0249 H   0  0  0  0  0  0  0  0  0  0  0  0
    1.5194   -1.9607    0.6635 C   0  0  0  0  0  0  0  0  0  0  0  0
    0.7483   -2.7040    0.4435 H   0  0  0  0  0  0  0  0  0  0  0  0
    2.4847   -2.3777    0.3623 H   0  0  0  0  0  0  0  0  0  0  0  0
    1.5485   -1.7816    1.7427 H   0  0  0  0  0  0  0  0  0  0  0  0
    1.0125   -0.9902   -1.4572 O   0  0  0  0  0  0  0  0  0  0  0  0
    1.6044   -1.7092   -1.7411 H   0  0  0  0  0  0  0  0  0  0  0  0
    0.0990    1.5781   -0.3523 C   0  0  0  0  0  0  0  0  0  0  0  0
   -0.8357    2.3563   -0.1925 O   0  0  0  0  0  0  0  0  0  0  0  0
    1.0577    1.9036   -1.2981 N   0  0  0  0  0  0  0  0  0  0  0  0
    1.6386    1.1253   -1.6034 H   0  0  0  0  0  0  0  0  0  0  0  0
    0.9488    3.0633   -2.1751 C   0  0  0  0  0  0  0  0  0  0  0  0
    0.8625    3.9830   -1.5868 H   0  0  0  0  0  0  0  0  0  0  0  0
    1.8387    3.1427   -2.8066 H   0  0  0  0  0  0  0  0  0  0  0  0
    0.0696    2.9744   -2.8215 H   0  0  0  0  0  0  0  0  0  0  0  0
  1  2  1  0  0  0  0
  2  3  1  0  0  0  0
  2  4  1  0  0  0  0
  2  5  1  0  0  0  0
  5  6  2  0  0  0  0
  5  7  1  0  0  0  0
  7  8  1  0  0  0  0
  7  9  1  0  0  0  0
  9 10  1  0  0  0  0
  9 11  1  0  0  0  0
  9 19  1  0  0  0  0
 11 12  1  0  0  0  0
 11 13  1  0  0  0  0
 11 17  1  0  0  0  0
 13 14  1  0  0  0  0
 13 15  1  0  0  0  0
 13 16  1  0  0  0  0
 17 18  1  0  0  0  0
 19 20  2  0  0  0  0
 19 21  1  0  0  0  0
 21 22  1  0  0  0  0
 21 23  1  0  0  0  0
 23 24  1  0  0  0  0
 23 25  1  0  0  0  0
 23 26  1  0  0  0  0
M  END
$$$$

  -OEChem-01062216093D

 26 25  0     1  0  0  0  0  0999 V2000
   -3.2759   -2.8910    1.2682 H   0  0  0  0  0  0  0  0  0  0  0  0
   -3.0729   -1.9679    0.7179 C   0  0  0  0  0  0  0  0  0  0  0  0
   -3.8398   -1.2314    0.9701 H   0  0  0  0  0  0  0  0  0  0  0  0
   -3.1178   -2.1801   -0.3530 H   0  0  0  0  0  0  0  0  0  0  0  0
   -1.7009   -1.4325    1.0821 C   0  0  0  0  0  0  0  0  0  0  0  0
   -1.0843   -1.9472    1.9995 O   0  0  0  0  0  0  0  0  0  0  0  0
   -1.2428   -0.2881    0.4653 N   0  0  0  0  0  0  0  0  0  0  0  0
   -1.8921    0.1404   -0.1894 H   0  0  0  0  0  0  0  0  0  0  0  0
    0.1315    0.2633    0.4496 C   0  0  1  0  0  0  0  0  0  0  0  0
    0.4008    0.5308    1.4760 H   0  0  0  0  0  0  0  0  0  0  0  0
    1.2528   -0.6766   -0.1037 C   0  0  1  0  0  0  0  0  0  0  0  0
    2.1845   -0.1008   -0.0627 H   0  0  0  0  0  0  0  0  0  0  0  0
    1.5266   -1.9582    0.6780 C   0  0  0  0  0  0  0  0  0  0  0  0
    0.7632   -2.7138    0.4736 H   0  0  0  0  0  0  0  0  0  0  0  0
    2.4967   -2.3729    0.3894 H   0  0  0  0  0  0  0  0  0  0  0  0
    1.5511   -1.7532    1.7528 H   0  0  0  0  0  0  0  0  0  0  0  0
    1.0157   -1.0449   -1.4686 O   0  0  0  0  0  0  0  0  0  0  0  0
    1.6209   -1.7615   -1.7315 H   0  0  0  0  0  0  0  0  0  0  0  0
    0.1116    1.5739   -0.3793 C   0  0  0  0  0  0  0  0  0  0  0  0
   -0.6619    2.4650   -0.0489 O   0  0  0  0  0  0  0  0  0  0  0  0
    0.8682    1.7635   -1.5231 N   0  0  0  0  0  0  0  0  0  0  0  0
    1.2898    0.9158   -1.9024 H   0  0  0  0  0  0  0  0  0  0  0  0
    0.7285    2.9223   -2.3968 C   0  0  0  0  0  0  0  0  0  0  0  0
    0.9027    3.8480   -1.8383 H   0  0  0  0  0  0  0  0  0  0  0  0
    1.4581    2.8706   -3.2105 H   0  0  0  0  0  0  0  0  0  0  0  0
   -0.2759    2.9565   -2.8312 H   0  0  0  0  0  0  0  0  0  0  0  0
  1  2  1  0  0  0  0
  2  3  1  0  0  0  0
  2  4  1  0  0  0  0
  2  5  1  0  0  0  0
  5  6  2  0  0  0  0
  5  7  1  0  0  0  0
  7  8  1  0  0  0  0
  7  9  1  0  0  0  0
  9 10  1  0  0  0  0
  9 11  1  0  0  0  0
  9 19  1  0  0  0  0
 11 12  1  0  0  0  0
 11 13  1  0  0  0  0
 11 17  1  0  0  0  0
 13 14  1  0  0  0  0
 13 15  1  0  0  0  0
 13 16  1  0  0  0  0
 17 18  1  0  0  0  0
 19 20  2  0  0  0  0
 19 21  1  0  0  0  0
 21 22  1  0  0  0  0
 21 23  1  0  0  0  0
 23 24  1  0  0  0  0
 23 25  1  0  0  0  0
 23 26  1  0  0  0  0
M  END
$$$$

  -OEChem-01062216093D

 26 25  0     1  0  0  0  0  0999 V2000
   -3.2412   -2.9112    1.2897 H   0  0  0  0  0  0  0  0  0  0  0  0
   -3.0554   -1.9905    0.7294 C   0  0  0  0  0  0  0  0  0  0  0  0
   -3.8424   -1.2698    0.9646 H   0  0  0  0  0  0  0  0  0  0  0  0
   -3.0843   -2.2174   -0.3389 H   0  0  0  0  0  0  0  0  0  0  0  0
   -1.7004   -1.4174    1.1001 C   0  0  0  0  0  0  0  0  0  0  0  0
   -1.0845   -1.8982    2.0360 O   0  0  0  0  0  0  0  0  0  0  0  0
   -1.2569   -0.2781    0.4630 N   0  0  0  0  0  0  0  0  0  0  0  0
   -1.8979    0.0999   -0.2289 H   0  0  0  0  0  0  0  0  0  0  0  0
    0.1190    0.2681    0.4223 C   0  0  1  0  0  0  0  0  0  0  0  0
    0.3999    0.5434    1.4439 H   0  0  0  0  0  0  0  0  0  0  0  0
    1.2287   -0.6893   -0.1255 C   0  0  1  0  0  0  0  0  0  0  0  0
    2.1591   -0.1102   -0.1115 H   0  0  0  0  0  0  0  0  0  0  0  0
    1.5145   -1.9509    0.6843 C   0  0  0  0  0  0  0  0  0  0  0  0
    0.7493   -2.7121    0.5095 H   0  0  0  0  0  0  0  0  0  0  0  0
    2.4810   -2.3721    0.3933 H   0  0  0  0  0  0  0  0  0  0  0  0
    1.5533   -1.7192    1.7532 H   0  0  0  0  0  0  0  0  0  0  0  0
    0.9832   -1.0911   -1.4805 O   0  0  0  0  0  0  0  0  0  0  0  0
    1.6146   -1.7862   -1.7404 H   0  0  0  0  0  0  0  0  0  0  0  0
    0.1088    1.5716   -0.4138 C   0  0  0  0  0  0  0  0  0  0  0  0
   -0.4487    2.5600    0.0456 O   0  0  0  0  0  0  0  0  0  0  0  0
    0.6058    1.6485   -1.7022 N   0  0  0  0  0  0  0  0  0  0  0  0
    0.9027    0.7614   -2.1105 H   0  0  0  0  0  0  0  0  0  0  0  0
    0.4639    2.8154   -2.5639 C   0  0  0  0  0  0  0  0  0  0  0  0
    0.9077    3.6979   -2.0911 H   0  0  0  0  0  0  0  0  0  0  0  0
    0.9727    2.6438   -3.5173 H   0  0  0  0  0  0  0  0  0  0  0  0
   -0.5934    3.0168   -2.7649 H   0  0  0  0  0  0  0  0  0  0  0  0
  1  2  1  0  0  0  0
  2  3  1  0  0  0  0
  2  4  1  0  0  0  0
  2  5  1  0  0  0  0
  5  6  2  0  0  0  0
  5  7  1  0  0  0  0
  7  8  1  0  0  0  0
  7  9  1  0  0  0  0
  9 10  1  0  0  0  0
  9 11  1  0  0  0  0
  9 19  1  0  0  0  0
 11 12  1  0  0  0  0
 11 13  1  0  0  0  0
 11 17  1  0  0  0  0
 13 14  1  0  0  0  0
 13 15  1  0  0  0  0
 13 16  1  0  0  0  0
 17 18  1  0  0  0  0
 19 20  2  0  0  0  0
 19 21  1  0  0  0  0
 21 22  1  0  0  0  0
 21 23  1  0  0  0  0
 23 24  1  0  0  0  0
 23 25  1  0  0  0  0
 23 26  1  0  0  0  0
M  END
$$$$

  -OEChem-01062216093D

 26 25  0     1  0  0  0  0  0999 V2000
   -3.2258   -2.9251    1.3873 H   0  0  0  0  0  0  0  0  0  0  0  0
   -3.0389   -2.0457    0.7646 C   0  0  0  0  0  0  0  0  0  0  0  0
   -3.8435   -1.3238    0.9248 H   0  0  0  0  0  0  0  0  0  0  0  0
   -3.0350   -2.3521   -0.2842 H   0  0  0  0  0  0  0  0  0  0  0  0
   -1.7039   -1.4224    1.1271 C   0  0  0  0  0  0  0  0  0  0  0  0
   -1.0764   -1.8615    2.0756 O   0  0  0  0  0  0  0  0  0  0  0  0
   -1.2916   -0.2853    0.4654 N   0  0  0  0  0  0  0  0  0  0  0  0
   -1.9297    0.0369   -0.2564 H   0  0  0  0  0  0  0  0  0  0  0  0
    0.0780    0.2743    0.4002 C   0  0  1  0  0  0  0  0  0  0  0  0
    0.3683    0.5609    1.4162 H   0  0  0  0  0  0  0  0  0  0  0  0
    1.1900   -0.6763   -0.1525 C   0  0  1  0  0  0  0  0  0  0  0  0
    2.1124   -0.0845   -0.1589 H   0  0  0  0  0  0  0  0  0  0  0  0
    1.5013   -1.9240    0.6695 C   0  0  0  0  0  0  0  0  0  0  0  0
    0.7396   -2.6938    0.5191 H   0  0  0  0  0  0  0  0  0  0  0  0
    2.4664   -2.3408    0.3671 H   0  0  0  0  0  0  0  0  0  0  0  0
    1.5566   -1.6771    1.7343 H   0  0  0  0  0  0  0  0  0  0  0  0
    0.9337   -1.0976   -1.5001 O   0  0  0  0  0  0  0  0  0  0  0  0
    1.5965   -1.7580   -1.7722 H   0  0  0  0  0  0  0  0  0  0  0  0
    0.0550    1.5660   -0.4502 C   0  0  0  0  0  0  0  0  0  0  0  0
   -0.2373    2.6259    0.0869 O   0  0  0  0  0  0  0  0  0  0  0  0
    0.2537    1.5611   -1.8183 N   0  0  0  0  0  0  0  0  0  0  0  0
    0.4820    0.6562   -2.2325 H   0  0  0  0  0  0  0  0  0  0  0  0
    0.1995    2.7477   -2.6623 C   0  0  0  0  0  0  0  0  0  0  0  0
    0.9622    3.4710   -2.3551 H   0  0  0  0  0  0  0  0  0  0  0  0
    0.3803    2.4761   -3.7068 H   0  0  0  0  0  0  0  0  0  0  0  0
   -0.7852    3.2220   -2.5941 H   0  0  0  0  0  0  0  0  0  0  0  0
  1  2  1  0  0  0  0
  2  3  1  0  0  0  0
  2  4  1  0  0  0  0
  2  5  1  0  0  0  0
  5  6  2  0  0  0  0
  5  7  1  0  0  0  0
  7  8  1  0  0  0  0
  7  9  1  0  0  0  0
  9 10  1  0  0  0  0
  9 11  1  0  0  0  0
  9 19  1  0  0  0  0
 11 12  1  0  0  0  0
 11 13  1  0  0  0  0
 11 17  1  0  0  0  0
 13 14  1  0  0  0  0
 13 15  1  0  0  0  0
 13 16  1  0  0  0  0
 17 18  1  0  0  0  0
 19 20  2  0  0  0  0
 19 21  1  0  0  0  0
 21 22  1  0  0  0  0
 21 23  1  0  0  0  0
 23 24  1  0  0  0  0
 23 25  1  0  0  0  0
 23 26  1  0  0  0  0
M  END
$$$$

  -OEChem-01062216093D

 26 25  0     1  0  0  0  0  0999 V2000
   -3.1747   -2.9882    1.4187 H   0  0  0  0  0  0  0  0  0  0  0  0
   -3.0275   -2.0961    0.8034 C   0  0  0  0  0  0  0  0  0  0  0  0
   -3.8543   -1.4046    0.9830 H   0  0  0  0  0  0  0  0  0  0  0  0
   -3.0283   -2.3914   -0.2485 H   0  0  0  0  0  0  0  0  0  0  0  0
   -1.7099   -1.4309    1.1546 C   0  0  0  0  0  0  0  0  0  0  0  0
   -1.0676   -1.8404    2.1064 O   0  0  0  0  0  0  0  0  0  0  0  0
   -1.3276   -0.2927    0.4765 N   0  0  0  0  0  0  0  0  0  0  0  0
   -1.9645   -0.0107   -0.2629 H   0  0  0  0  0  0  0  0  0  0  0  0
    0.0330    0.2871    0.3998 C   0  0  1  0  0  0  0  0  0  0  0  0
    0.3301    0.5782    1.4129 H   0  0  0  0  0  0  0  0  0  0  0  0
    1.1491   -0.6446   -0.1716 C   0  0  1  0  0  0  0  0  0  0  0  0
    2.0640   -0.0411   -0.1871 H   0  0  0  0  0  0  0  0  0  0  0  0
    1.4846   -1.8937    0.6388 C   0  0  0  0  0  0  0  0  0  0  0  0
    0.7246   -2.6675    0.5017 H   0  0  0  0  0  0  0  0  0  0  0  0
    2.4456   -2.3035    0.3148 H   0  0  0  0  0  0  0  0  0  0  0  0
    1.5606   -1.6499    1.7030 H   0  0  0  0  0  0  0  0  0  0  0  0
    0.8767   -1.0570   -1.5187 O   0  0  0  0  0  0  0  0  0  0  0  0
    1.5651   -1.6771   -1.8202 H   0  0  0  0  0  0  0  0  0  0  0  0
   -0.0041    1.5690   -0.4607 C   0  0  0  0  0  0  0  0  0  0  0  0
   -0.0127    2.6627    0.0879 O   0  0  0  0  0  0  0  0  0  0  0  0
   -0.1111    1.5167   -1.8384 N   0  0  0  0  0  0  0  0  0  0  0  0
    0.0452    0.5958   -2.2508 H   0  0  0  0  0  0  0  0  0  0  0  0
   -0.0772    2.6937   -2.6970 C   0  0  0  0  0  0  0  0  0  0  0  0
    0.8801    3.2153   -2.5943 H   0  0  0  0  0  0  0  0  0  0  0  0
   -0.2032    2.4008   -3.7437 H   0  0  0  0  0  0  0  0  0  0  0  0
   -0.8852    3.3842   -2.4335 H   0  0  0  0  0  0  0  0  0  0  0  0
  1  2  1  0  0  0  0
  2  3  1  0  0  0  0
  2  4  1  0  0  0  0
  2  5  1  0  0  0  0
  5  6  2  0  0  0  0
  5  7  1  0  0  0  0
  7  8  1  0  0  0  0
  7  9  1  0  0  0  0
  9 10  1  0  0  0  0
  9 11  1  0  0  0  0
  9 19  1  0  0  0  0
 11 12  1  0  0  0  0
 11 13  1  0  0  0  0
 11 17  1  0  0  0  0
 13 14  1  0  0  0  0
 13 15  1  0  0  0  0
 13 16  1  0  0  0  0
 17 18  1  0  0  0  0
 19 20  2  0  0  0  0
 19 21  1  0  0  0  0
 21 22  1  0  0  0  0
 21 23  1  0  0  0  0
 23 24  1  0  0  0  0
 23 25  1  0  0  0  0
 23 26  1  0  0  0  0
M  END
$$$$

  -OEChem-01062216093D

 26 25  0     1  0  0  0  0  0999 V2000
   -3.1471   -3.0198    1.4388 H   0  0  0  0  0  0  0  0  0  0  0  0
   -3.0206   -2.1215    0.8280 C   0  0  0  0  0  0  0  0  0  0  0  0
   -3.8598   -1.4473    1.0154 H   0  0  0  0  0  0  0  0  0  0  0  0
   -3.0205   -2.4107   -0.2255 H   0  0  0  0  0  0  0  0  0  0  0  0
   -1.7147   -1.4325    1.1768 C   0  0  0  0  0  0  0  0  0  0  0  0
   -1.0657   -1.8255    2.1311 O   0  0  0  0  0  0  0  0  0  0  0  0
   -1.3466   -0.2944    0.4907 N   0  0  0  0  0  0  0  0  0  0  0  0
   -1.9817   -0.0266   -0.2556 H   0  0  0  0  0  0  0  0  0  0  0  0
    0.0083    0.3004    0.4220 C   0  0  1  0  0  0  0  0  0  0  0  0
    0.3071    0.5885    1.4354 H   0  0  0  0  0  0  0  0  0  0  0  0
    1.1223   -0.6138   -0.1748 C   0  0  1  0  0  0  0  0  0  0  0  0
    2.0367   -0.0096   -0.1843 H   0  0  0  0  0  0  0  0  0  0  0  0
    1.4621   -1.8828    0.6021 C   0  0  0  0  0  0  0  0  0  0  0  0
    0.6928   -2.6472    0.4640 H   0  0  0  0  0  0  0  0  0  0  0  0
    2.4130   -2.2933    0.2506 H   0  0  0  0  0  0  0  0  0  0  0  0
    1.5609   -1.6622    1.6694 H   0  0  0  0  0  0  0  0  0  0  0  0
    0.8310   -0.9910   -1.5283 O   0  0  0  0  0  0  0  0  0  0  0  0
    1.5412   -1.5625   -1.8720 H   0  0  0  0  0  0  0  0  0  0  0  0
   -0.0273    1.5743   -0.4465 C   0  0  0  0  0  0  0  0  0  0  0  0
    0.2252    2.6612    0.0558 O   0  0  0  0  0  0  0  0  0  0  0  0
   -0.4213    1.5166   -1.7717 N   0  0  0  0  0  0  0  0  0  0  0  0
   -0.3679    0.5851   -2.1847 H   0  0  0  0  0  0  0  0  0  0  0  0
   -0.3863    2.6726   -2.6588 C   0  0  0  0  0  0  0  0  0  0  0  0
    0.6395    3.0388   -2.7709 H   0  0  0  0  0  0  0  0  0  0  0  0
   -0.7695    2.4015   -3.6471 H   0  0  0  0  0  0  0  0  0  0  0  0
   -1.0076    3.4815   -2.2600 H   0  0  0  0  0  0  0  0  0  0  0  0
  1  2  1  0  0  0  0
  2  3  1  0  0  0  0
  2  4  1  0  0  0  0
  2  5  1  0  0  0  0
  5  6  2  0  0  0  0
  5  7  1  0  0  0  0
  7  8  1  0  0  0  0
  7  9  1  0  0  0  0
  9 10  1  0  0  0  0
  9 11  1  0  0  0  0
  9 19  1  0  0  0  0
 11 12  1  0  0  0  0
 11 13  1  0  0  0  0
 11 17  1  0  0  0  0
 13 14  1  0  0  0  0
 13 15  1  0  0  0  0
 13 16  1  0  0  0  0
 17 18  1  0  0  0  0
 19 20  2  0  0  0  0
 19 21  1  0  0  0  0
 21 22  1  0  0  0  0
 21 23  1  0  0  0  0
 23 24  1  0  0  0  0
 23 25  1  0  0  0  0
 23 26  1  0  0  0  0
M  END
$$$$

  -OEChem-01062216093D

 26 25  0     1  0  0  0  0  0999 V2000
   -3.1377   -3.0371    1.4696 H   0  0  0  0  0  0  0  0  0  0  0  0
   -3.0190   -2.1414    0.8534 C   0  0  0  0  0  0  0  0  0  0  0  0
   -3.8623   -1.4719    1.0393 H   0  0  0  0  0  0  0  0  0  0  0  0
   -3.0198   -2.4365   -0.1986 H   0  0  0  0  0  0  0  0  0  0  0  0
   -1.7167   -1.4421    1.1951 C   0  0  0  0  0  0  0  0  0  0  0  0
   -1.0622   -1.8255    2.1495 O   0  0  0  0  0  0  0  0  0  0  0  0
   -1.3577   -0.3054    0.5018 N   0  0  0  0  0  0  0  0  0  0  0  0
   -1.9986   -0.0370   -0.2388 H   0  0  0  0  0  0  0  0  0  0  0  0
   -0.0098    0.3080    0.4443 C   0  0  1  0  0  0  0  0  0  0  0  0
    0.2876    0.5943    1.4584 H   0  0  0  0  0  0  0  0  0  0  0  0
    1.1025   -0.5907   -0.1726 C   0  0  1  0  0  0  0  0  0  0  0  0
    2.0178    0.0128   -0.1777 H   0  0  0  0  0  0  0  0  0  0  0  0
    1.4452   -1.8768    0.5749 C   0  0  0  0  0  0  0  0  0  0  0  0
    0.6709   -2.6347    0.4300 H   0  0  0  0  0  0  0  0  0  0  0  0
    2.3906   -2.2847    0.2057 H   0  0  0  0  0  0  0  0  0  0  0  0
    1.5557   -1.6775    1.6453 H   0  0  0  0  0  0  0  0  0  0  0  0
    0.7890   -0.9335   -1.5303 O   0  0  0  0  0  0  0  0  0  0  0  0
    1.5092   -1.4667   -1.9120 H   0  0  0  0  0  0  0  0  0  0  0  0
   -0.0344    1.5741   -0.4337 C   0  0  0  0  0  0  0  0  0  0  0  0
    0.4493    2.6170   -0.0141 O   0  0  0  0  0  0  0  0  0  0  0  0
   -0.6854    1.5661   -1.6559 N   0  0  0  0  0  0  0  0  0  0  0  0
   -0.7749    0.6403   -2.0713 H   0  0  0  0  0  0  0  0  0  0  0  0
   -0.6785    2.7177   -2.5501 C   0  0  0  0  0  0  0  0  0  0  0  0
    0.3432    2.9498   -2.8685 H   0  0  0  0  0  0  0  0  0  0  0  0
   -1.2817    2.5090   -3.4388 H   0  0  0  0  0  0  0  0  0  0  0  0
   -1.0990    3.5959   -2.0486 H   0  0  0  0  0  0  0  0  0  0  0  0
  1  2  1  0  0  0  0
  2  3  1  0  0  0  0
  2  4  1  0  0  0  0
  2  5  1  0  0  0  0
  5  6  2  0  0  0  0
  5  7  1  0  0  0  0
  7  8  1  0  0  0  0
  7  9  1  0  0  0  0
  9 10  1  0  0  0  0
  9 11  1  0  0  0  0
  9 19  1  0  0  0  0
 11 12  1  0  0  0  0
 11 13  1  0  0  0  0
 11 17  1  0  0  0  0
 13 14  1  0  0  0  0
 13 15  1  0  0  0  0
 13 16  1  0  0  0  0
 17 18  1  0  0  0  0
 19 20  2  0  0  0  0
 19 21  1  0  0  0  0
 21 22  1  0  0  0  0
 21 23  1  0  0  0  0
 23 24  1  0  0  0  0
 23 25  1  0  0  0  0
 23 26  1  0  0  0  0
M  END
$$$$

  -OEChem-01062216093D

 26 25  0     1  0  0  0  0  0999 V2000
   -3.1105   -3.0709    1.5033 H   0  0  0  0  0  0  0  0  0  0  0  0
   -3.0065   -2.1769    0.8819 C   0  0  0  0  0  0  0  0  0  0  0  0
   -3.8610   -1.5207    1.0637 H   0  0  0  0  0  0  0  0  0  0  0  0
   -3.0020   -2.4784   -0.1682 H   0  0  0  0  0  0  0  0  0  0  0  0
   -1.7162   -1.4539    1.2194 C   0  0  0  0  0  0  0  0  0  0  0  0
   -1.0568   -1.8177    2.1780 O   0  0  0  0  0  0  0  0  0  0  0  0
   -1.3717   -0.3198    0.5142 N   0  0  0  0  0  0  0  0  0  0  0  0
   -2.0204   -0.0601   -0.2211 H   0  0  0  0  0  0  0  0  0  0  0  0
   -0.0312    0.3128    0.4586 C   0  0  1  0  0  0  0  0  0  0  0  0
    0.2665    0.6014    1.4720 H   0  0  0  0  0  0  0  0  0  0  0  0
    1.0779   -0.5793   -0.1701 C   0  0  1  0  0  0  0  0  0  0  0  0
    1.9945    0.0224   -0.1809 H   0  0  0  0  0  0  0  0  0  0  0  0
    1.4279   -1.8721    0.5623 C   0  0  0  0  0  0  0  0  0  0  0  0
    0.6521   -2.6289    0.4194 H   0  0  0  0  0  0  0  0  0  0  0  0
    2.3690   -2.2763    0.1785 H   0  0  0  0  0  0  0  0  0  0  0  0
    1.5508   -1.6821    1.6329 H   0  0  0  0  0  0  0  0  0  0  0  0
    0.7427   -0.9069   -1.5258 O   0  0  0  0  0  0  0  0  0  0  0  0
    1.4675   -1.4135   -1.9332 H   0  0  0  0  0  0  0  0  0  0  0  0
   -0.0399    1.5733   -0.4297 C   0  0  0  0  0  0  0  0  0  0  0  0
    0.6552    2.5338   -0.1238 O   0  0  0  0  0  0  0  0  0  0  0  0
   -0.9081    1.6762   -1.5053 N   0  0  0  0  0  0  0  0  0  0  0  0
   -1.1936    0.7850   -1.9017 H   0  0  0  0  0  0  0  0  0  0  0  0
   -0.9180    2.8401   -2.3837 C   0  0  0  0  0  0  0  0  0  0  0  0
    0.0467    2.9464   -2.8910 H   0  0  0  0  0  0  0  0  0  0  0  0
   -1.7004    2.7348   -3.1413 H   0  0  0  0  0  0  0  0  0  0  0  0
   -1.1167    3.7520   -1.8105 H   0  0  0  0  0  0  0  0  0  0  0  0
  1  2  1  0  0  0  0
  2  3  1  0  0  0  0
  2  4  1  0  0  0  0
  2  5  1  0  0  0  0
  5  6  2  0  0  0  0
  5  7  1  0  0  0  0
  7  8  1  0  0  0  0
  7  9  1  0  0  0  0
  9 10  1  0  0  0  0
  9 11  1  0  0  0  0
  9 19  1  0  0  0  0
 11 12  1  0  0  0  0
 11 13  1  0  0  0  0
 11 17  1  0  0  0  0
 13 14  1  0  0  0  0
 13 15  1  0  0  0  0
 13 16  1  0  0  0  0
 17 18  1  0  0  0  0
 19 20  2  0  0  0  0
 19 21  1  0  0  0  0
 21 22  1  0  0  0  0
 21 23  1  0  0  0  0
 23 24  1  0  0  0  0
 23 25  1  0  0  0  0
 23 26  1  0  0  0  0
M  END
$$$$

  -OEChem-01062216093D

 26 25  0     1  0  0  0  0  0999 V2000
   -2.9903   -3.1456    1.5471 H   0  0  0  0  0  0  0  0  0  0  0  0
   -2.9208   -2.2687    0.8973 C   0  0  0  0  0  0  0  0  0  0  0  0
   -3.8297   -1.6730    1.0109 H   0  0  0  0  0  0  0  0  0  0  0  0
   -2.8391   -2.6059   -0.1388 H   0  0  0  0  0  0  0  0  0  0  0  0
   -1.7071   -1.4386    1.2706 C   0  0  0  0  0  0  0  0  0  0  0  0
   -1.0713   -1.7154    2.2737 O   0  0  0  0  0  0  0  0  0  0  0  0
   -1.4068   -0.3086    0.5393 N   0  0  0  0  0  0  0  0  0  0  0  0
   -1.9935   -0.1934   -0.2776 H   0  0  0  0  0  0  0  0  0  0  0  0
   -0.0672    0.3269    0.4619 C   0  0  1  0  0  0  0  0  0  0  0  0
    0.2441    0.6180    1.4705 H   0  0  0  0  0  0  0  0  0  0  0  0
    1.0208   -0.5900   -0.1718 C   0  0  1  0  0  0  0  0  0  0  0  0
    1.9471   -0.0044   -0.2097 H   0  0  0  0  0  0  0  0  0  0  0  0
    1.3714   -1.8785    0.5703 C   0  0  0  0  0  0  0  0  0  0  0  0
    0.5842   -2.6281    0.4569 H   0  0  0  0  0  0  0  0  0  0  0  0
    2.2981   -2.2996    0.1699 H   0  0  0  0  0  0  0  0  0  0  0  0
    1.5227   -1.6756    1.6351 H   0  0  0  0  0  0  0  0  0  0  0  0
    0.6468   -0.9262   -1.5146 O   0  0  0  0  0  0  0  0  0  0  0  0
    1.3744   -1.4011   -1.9538 H   0  0  0  0  0  0  0  0  0  0  0  0
   -0.0499    1.5882   -0.4321 C   0  0  0  0  0  0  0  0  0  0  0  0
    0.8522    2.4060   -0.2960 O   0  0  0  0  0  0  0  0  0  0  0  0
   -1.0799    1.8796   -1.3144 N   0  0  0  0  0  0  0  0  0  0  0  0
   -1.6943    1.1141   -1.5633 H   0  0  0  0  0  0  0  0  0  0  0  0
   -1.0685    3.0568   -2.1751 C   0  0  0  0  0  0  0  0  0  0  0  0
   -0.2155    3.0218   -2.8609 H   0  0  0  0  0  0  0  0  0  0  0  0
   -1.9884    3.1022   -2.7658 H   0  0  0  0  0  0  0  0  0  0  0  0
   -1.0011    3.9702   -1.5748 H   0  0  0  0  0  0  0  0  0  0  0  0
  1  2  1  0  0  0  0
  2  3  1  0  0  0  0
  2  4  1  0  0  0  0
  2  5  1  0  0  0  0
  5  6  2  0  0  0  0
  5  7  1  0  0  0  0
  7  8  1  0  0  0  0
  7  9  1  0  0  0  0
  9 10  1  0  0  0  0
  9 11  1  0  0  0  0
  9 19  1  0  0  0  0
 11 12  1  0  0  0  0
 11 13  1  0  0  0  0
 11 17  1  0  0  0  0
 13 14  1  0  0  0  0
 13 15  1  0  0  0  0
 13 16  1  0  0  0  0
 17 18  1  0  0  0  0
 19 20  2  0  0  0  0
 19 21  1  0  0  0  0
 21 22  1  0  0  0  0
 21 23  1  0  0  0  0
 23 24  1  0  0  0  0
 23 25  1  0  0  0  0
 23 26  1  0  0  0  0
M  END
$$$$

  -OEChem-01062216093D

 26 25  0     1  0  0  0  0  0999 V2000
   -2.9609   -3.1109    1.5697 H   0  0  0  0  0  0  0  0  0  0  0  0
   -2.8425   -2.2973    0.8485 C   0  0  0  0  0  0  0  0  0  0  0  0
   -3.7744   -1.7286    0.8043 H   0  0  0  0  0  0  0  0  0  0  0  0
   -2.6364   -2.7263   -0.1352 H   0  0  0  0  0  0  0  0  0  0  0  0
   -1.6999   -1.3917    1.2676 C   0  0  0  0  0  0  0  0  0  0  0  0
   -1.1143   -1.5983    2.3173 O   0  0  0  0  0  0  0  0  0  0  0  0
   -1.4054   -0.2721    0.5187 N   0  0  0  0  0  0  0  0  0  0  0  0
   -1.8993   -0.2782   -0.3683 H   0  0  0  0  0  0  0  0  0  0  0  0
   -0.0519    0.3312    0.4316 C   0  0  1  0  0  0  0  0  0  0  0  0
    0.2661    0.6339    1.4344 H   0  0  0  0  0  0  0  0  0  0  0  0
    1.0128   -0.6326   -0.1754 C   0  0  1  0  0  0  0  0  0  0  0  0
    1.9553   -0.0759   -0.2285 H   0  0  0  0  0  0  0  0  0  0  0  0
    1.3336   -1.9090    0.6013 C   0  0  0  0  0  0  0  0  0  0  0  0
    0.5334   -2.6468    0.5038 H   0  0  0  0  0  0  0  0  0  0  0  0
    2.2536   -2.3576    0.2155 H   0  0  0  0  0  0  0  0  0  0  0  0
    1.4845   -1.6820    1.6611 H   0  0  0  0  0  0  0  0  0  0  0  0
    0.6275   -0.9908   -1.5083 O   0  0  0  0  0  0  0  0  0  0  0  0
    1.3659   -1.4340   -1.9616 H   0  0  0  0  0  0  0  0  0  0  0  0
   -0.0349    1.5860   -0.4752 C   0  0  0  0  0  0  0  0  0  0  0  0
    0.9952    2.2338   -0.6224 O   0  0  0  0  0  0  0  0  0  0  0  0
   -1.1895    2.0342   -1.0988 N   0  0  0  0  0  0  0  0  0  0  0  0
   -2.0615    1.6104   -0.8028 H   0  0  0  0  0  0  0  0  0  0  0  0
   -1.2442    3.2606   -1.8855 C   0  0  0  0  0  0  0  0  0  0  0  0
   -0.5309    3.2156   -2.7153 H   0  0  0  0  0  0  0  0  0  0  0  0
   -2.2468    3.3982   -2.3016 H   0  0  0  0  0  0  0  0  0  0  0  0
   -1.0049    4.1280   -1.2614 H   0  0  0  0  0  0  0  0  0  0  0  0
  1  2  1  0  0  0  0
  2  3  1  0  0  0  0
  2  4  1  0  0  0  0
  2  5  1  0  0  0  0
  5  6  2  0  0  0  0
  5  7  1  0  0  0  0
  7  8  1  0  0  0  0
  7  9  1  0  0  0  0
  9 10  1  0  0  0  0
  9 11  1  0  0  0  0
  9 19  1  0  0  0  0
 11 12  1  0  0  0  0
 11 13  1  0  0  0  0
 11 17  1  0  0  0  0
 13 14  1  0  0  0  0
 13 15  1  0  0  0  0
 13 16  1  0  0  0  0
 17 18  1  0  0  0  0
 19 20  2  0  0  0  0
 19 21  1  0  0  0  0
 21 22  1  0  0  0  0
 21 23  1  0  0  0  0
 23 24  1  0  0  0  0
 23 25  1  0  0  0  0
 23 26  1  0  0  0  0
M  END
$$$$

  -OEChem-01062216093D

 26 25  0     1  0  0  0  0  0999 V2000
   -2.9337   -3.1242    1.5287 H   0  0  0  0  0  0  0  0  0  0  0  0
   -2.8370   -2.2881    0.8302 C   0  0  0  0  0  0  0  0  0  0  0  0
   -3.7758   -1.7293    0.8173 H   0  0  0  0  0  0  0  0  0  0  0  0
   -2.6422   -2.6862   -0.1687 H   0  0  0  0  0  0  0  0  0  0  0  0
   -1.6984   -1.3813    1.2570 C   0  0  0  0  0  0  0  0  0  0  0  0
   -1.1244   -1.5819    2.3144 O   0  0  0  0  0  0  0  0  0  0  0  0
   -1.3953   -0.2638    0.5088 N   0  0  0  0  0  0  0  0  0  0  0  0
   -1.8926   -0.2575   -0.3776 H   0  0  0  0  0  0  0  0  0  0  0  0
   -0.0388    0.3323    0.4201 C   0  0  1  0  0  0  0  0  0  0  0  0
    0.2804    0.6415    1.4203 H   0  0  0  0  0  0  0  0  0  0  0  0
    1.0207   -0.6457   -0.1761 C   0  0  1  0  0  0  0  0  0  0  0  0
    1.9683   -0.0979   -0.2302 H   0  0  0  0  0  0  0  0  0  0  0  0
    1.3292   -1.9188    0.6110 C   0  0  0  0  0  0  0  0  0  0  0  0
    0.5252   -2.6524    0.5130 H   0  0  0  0  0  0  0  0  0  0  0  0
    2.2483   -2.3758    0.2335 H   0  0  0  0  0  0  0  0  0  0  0  0
    1.4754   -1.6859    1.6700 H   0  0  0  0  0  0  0  0  0  0  0  0
    0.6339   -1.0129   -1.5061 O   0  0  0  0  0  0  0  0  0  0  0  0
    1.3786   -1.4395   -1.9647 H   0  0  0  0  0  0  0  0  0  0  0  0
   -0.0401    1.5849   -0.4919 C   0  0  0  0  0  0  0  0  0  0  0  0
    1.0026    2.1278   -0.8401 O   0  0  0  0  0  0  0  0  0  0  0  0
   -1.2399    2.1854   -0.8413 N   0  0  0  0  0  0  0  0  0  0  0  0
   -2.0686    1.8481   -0.3614 H   0  0  0  0  0  0  0  0  0  0  0  0
   -1.3192    3.4481   -1.5667 C   0  0  0  0  0  0  0  0  0  0  0  0
   -0.7987    3.3720   -2.5273 H   0  0  0  0  0  0  0  0  0  0  0  0
   -2.3643    3.7066   -1.7624 H   0  0  0  0  0  0  0  0  0  0  0  0
   -0.8646    4.2550   -0.9824 H   0  0  0  0  0  0  0  0  0  0  0  0
  1  2  1  0  0  0  0
  2  3  1  0  0  0  0
  2  4  1  0  0  0  0
  2  5  1  0  0  0  0
  5  6  2  0  0  0  0
  5  7  1  0  0  0  0
  7  8  1  0  0  0  0
  7  9  1  0  0  0  0
  9 10  1  0  0  0  0
  9 11  1  0  0  0  0
  9 19  1  0  0  0  0
 11 12  1  0  0  0  0
 11 13  1  0  0  0  0
 11 17  1  0  0  0  0
 13 14  1  0  0  0  0
 13 15  1  0  0  0  0
 13 16  1  0  0  0  0
 17 18  1  0  0  0  0
 19 20  2  0  0  0  0
 19 21  1  0  0  0  0
 21 22  1  0  0  0  0
 21 23  1  0  0  0  0
 23 24  1  0  0  0  0
 23 25  1  0  0  0  0
 23 26  1  0  0  0  0
M  END
$$$$

  -OEChem-01062216093D

 26 25  0     1  0  0  0  0  0999 V2000
   -2.9309   -3.1251    1.5029 H   0  0  0  0  0  0  0  0  0  0  0  0
   -2.8399   -2.2793    0.8155 C   0  0  0  0  0  0  0  0  0  0  0  0
   -3.7796   -1.7218    0.8159 H   0  0  0  0  0  0  0  0  0  0  0  0
   -2.6506   -2.6633   -0.1900 H   0  0  0  0  0  0  0  0  0  0  0  0
   -1.6995   -1.3771    1.2474 C   0  0  0  0  0  0  0  0  0  0  0  0
   -1.1295   -1.5803    2.3065 O   0  0  0  0  0  0  0  0  0  0  0  0
   -1.3909   -0.2586    0.5034 N   0  0  0  0  0  0  0  0  0  0  0  0
   -1.9023   -0.2307   -0.3749 H   0  0  0  0  0  0  0  0  0  0  0  0
   -0.0327    0.3316    0.4090 C   0  0  1  0  0  0  0  0  0  0  0  0
    0.2897    0.6439    1.4071 H   0  0  0  0  0  0  0  0  0  0  0  0
    1.0233   -0.6563   -0.1781 C   0  0  1  0  0  0  0  0  0  0  0  0
    1.9712   -0.1098   -0.2379 H   0  0  0  0  0  0  0  0  0  0  0  0
    1.3329   -1.9208    0.6223 C   0  0  0  0  0  0  0  0  0  0  0  0
    0.5304   -2.6571    0.5308 H   0  0  0  0  0  0  0  0  0  0  0  0
    2.2532   -2.3801    0.2500 H   0  0  0  0  0  0  0  0  0  0  0  0
    1.4773   -1.6765    1.6792 H   0  0  0  0  0  0  0  0  0  0  0  0
    0.6356   -1.0360   -1.5042 O   0  0  0  0  0  0  0  0  0  0  0  0
    1.3928   -1.4235   -1.9763 H   0  0  0  0  0  0  0  0  0  0  0  0
   -0.0522    1.5858   -0.5016 C   0  0  0  0  0  0  0  0  0  0  0  0
    0.9529    2.0174   -1.0560 O   0  0  0  0  0  0  0  0  0  0  0  0
   -1.2094    2.3447   -0.5706 N   0  0  0  0  0  0  0  0  0  0  0  0
   -1.9679    2.0695    0.0471 H   0  0  0  0  0  0  0  0  0  0  0  0
   -1.2873    3.6333   -1.2487 C   0  0  0  0  0  0  0  0  0  0  0  0
   -0.9987    3.5318   -2.3003 H   0  0  0  0  0  0  0  0  0  0  0  0
   -2.3102    4.0198   -1.2090 H   0  0  0  0  0  0  0  0  0  0  0  0
   -0.6225    4.3592   -0.7689 H   0  0  0  0  0  0  0  0  0  0  0  0
  1  2  1  0  0  0  0
  2  3  1  0  0  0  0
  2  4  1  0  0  0  0
  2  5  1  0  0  0  0
  5  6  2  0  0  0  0
  5  7  1  0  0  0  0
  7  8  1  0  0  0  0
  7  9  1  0  0  0  0
  9 10  1  0  0  0  0
  9 11  1  0  0  0  0
  9 19  1  0  0  0  0
 11 12  1  0  0  0  0
 11 13  1  0  0  0  0
 11 17  1  0  0  0  0
 13 14  1  0  0  0  0
 13 15  1  0  0  0  0
 13 16  1  0  0  0  0
 17 18  1  0  0  0  0
 19 20  2  0  0  0  0
 19 21  1  0  0  0  0
 21 22  1  0  0  0  0
 21 23  1  0  0  0  0
 23 24  1  0  0  0  0
 23 25  1  0  0  0  0
 23 26  1  0  0  0  0
M  END
$$$$

  -OEChem-01062216093D

 26 25  0     1  0  0  0  0  0999 V2000
   -2.9587   -3.1098    1.4945 H   0  0  0  0  0  0  0  0  0  0  0  0
   -2.8560   -2.2663    0.8060 C   0  0  0  0  0  0  0  0  0  0  0  0
   -3.7866   -1.6937    0.8089 H   0  0  0  0  0  0  0  0  0  0  0  0
   -2.6756   -2.6545   -0.1995 H   0  0  0  0  0  0  0  0  0  0  0  0
   -1.6998   -1.3821    1.2331 C   0  0  0  0  0  0  0  0  0  0  0  0
   -1.1264   -1.5960    2.2885 O   0  0  0  0  0  0  0  0  0  0  0  0
   -1.3889   -0.2584    0.4985 N   0  0  0  0  0  0  0  0  0  0  0  0
   -1.9154   -0.2083   -0.3700 H   0  0  0  0  0  0  0  0  0  0  0  0
   -0.0312    0.3295    0.3992 C   0  0  1  0  0  0  0  0  0  0  0  0
    0.2928    0.6402    1.3971 H   0  0  0  0  0  0  0  0  0  0  0  0
    1.0263   -0.6621   -0.1808 C   0  0  1  0  0  0  0  0  0  0  0  0
    1.9693   -0.1074   -0.2454 H   0  0  0  0  0  0  0  0  0  0  0  0
    1.3456   -1.9170    0.6306 C   0  0  0  0  0  0  0  0  0  0  0  0
    0.5492   -2.6602    0.5430 H   0  0  0  0  0  0  0  0  0  0  0  0
    2.2702   -2.3715    0.2634 H   0  0  0  0  0  0  0  0  0  0  0  0
    1.4860   -1.6639    1.6857 H   0  0  0  0  0  0  0  0  0  0  0  0
    0.6447   -1.0566   -1.5044 O   0  0  0  0  0  0  0  0  0  0  0  0
    1.4143   -1.4075   -1.9849 H   0  0  0  0  0  0  0  0  0  0  0  0
   -0.0661    1.5903   -0.5020 C   0  0  0  0  0  0  0  0  0  0  0  0
    0.8471    1.9144   -1.2536 O   0  0  0  0  0  0  0  0  0  0  0  0
   -1.0940    2.4976   -0.3070 N   0  0  0  0  0  0  0  0  0  0  0  0
   -1.7697    2.2737    0.4189 H   0  0  0  0  0  0  0  0  0  0  0  0
   -1.1568    3.8028   -0.9542 C   0  0  0  0  0  0  0  0  0  0  0  0
   -1.1428    3.6920   -2.0436 H   0  0  0  0  0  0  0  0  0  0  0  0
   -2.0791    4.3199   -0.6728 H   0  0  0  0  0  0  0  0  0  0  0  0
   -0.3058    4.4218   -0.6517 H   0  0  0  0  0  0  0  0  0  0  0  0
  1  2  1  0  0  0  0
  2  3  1  0  0  0  0
  2  4  1  0  0  0  0
  2  5  1  0  0  0  0
  5  6  2  0  0  0  0
  5  7  1  0  0  0  0
  7  8  1  0  0  0  0
  7  9  1  0  0  0  0
  9 10  1  0  0  0  0
  9 11  1  0  0  0  0
  9 19  1  0  0  0  0
 11 12  1  0  0  0  0
 11 13  1  0  0  0  0
 11 17  1  0  0  0  0
 13 14  1  0  0  0  0
 13 15  1  0  0  0  0
 13 16  1  0  0  0  0
 17 18  1  0  0  0  0
 19 20  2  0  0  0  0
 19 21  1  0  0  0  0
 21 22  1  0  0  0  0
 21 23  1  0  0  0  0
 23 24  1  0  0  0  0
 23 25  1  0  0  0  0
 23 26  1  0  0  0  0
M  END
$$$$

  -OEChem-01062216093D

 26 25  0     1  0  0  0  0  0999 V2000
   -2.9604   -3.1179    1.4715 H   0  0  0  0  0  0  0  0  0  0  0  0
   -2.8604   -2.2675    0.7912 C   0  0  0  0  0  0  0  0  0  0  0  0
   -3.7916   -1.6960    0.8014 H   0  0  0  0  0  0  0  0  0  0  0  0
   -2.6821   -2.6454   -0.2186 H   0  0  0  0  0  0  0  0  0  0  0  0
   -1.7044   -1.3860    1.2248 C   0  0  0  0  0  0  0  0  0  0  0  0
   -1.1320   -1.6060    2.2797 O   0  0  0  0  0  0  0  0  0  0  0  0
   -1.3963   -0.2542    0.5019 N   0  0  0  0  0  0  0  0  0  0  0  0
   -1.9333   -0.1890   -0.3592 H   0  0  0  0  0  0  0  0  0  0  0  0
   -0.0390    0.3293    0.3931 C   0  0  1  0  0  0  0  0  0  0  0  0
    0.2918    0.6323    1.3913 H   0  0  0  0  0  0  0  0  0  0  0  0
    1.0162   -0.6675   -0.1828 C   0  0  1  0  0  0  0  0  0  0  0  0
    1.9526   -0.1031   -0.2600 H   0  0  0  0  0  0  0  0  0  0  0  0
    1.3517   -1.9089    0.6428 C   0  0  0  0  0  0  0  0  0  0  0  0
    0.5631   -2.6618    0.5661 H   0  0  0  0  0  0  0  0  0  0  0  0
    2.2801   -2.3578    0.2780 H   0  0  0  0  0  0  0  0  0  0  0  0
    1.4922   -1.6417    1.6945 H   0  0  0  0  0  0  0  0  0  0  0  0
    0.6399   -1.0805   -1.5019 O   0  0  0  0  0  0  0  0  0  0  0  0
    1.4209   -1.3827   -1.9962 H   0  0  0  0  0  0  0  0  0  0  0  0
   -0.0800    1.6019   -0.4905 C   0  0  0  0  0  0  0  0  0  0  0  0
    0.6721    1.8143   -1.4352 O   0  0  0  0  0  0  0  0  0  0  0  0
   -0.8904    2.6419   -0.0689 N   0  0  0  0  0  0  0  0  0  0  0  0
   -1.4536    2.4802    0.7621 H   0  0  0  0  0  0  0  0  0  0  0  0
   -0.9317    3.9514   -0.7092 C   0  0  0  0  0  0  0  0  0  0  0  0
   -1.2154    3.8545   -1.7626 H   0  0  0  0  0  0  0  0  0  0  0  0
   -1.6662    4.5922   -0.2117 H   0  0  0  0  0  0  0  0  0  0  0  0
    0.0480    4.4375   -0.6505 H   0  0  0  0  0  0  0  0  0  0  0  0
  1  2  1  0  0  0  0
  2  3  1  0  0  0  0
  2  4  1  0  0  0  0
  2  5  1  0  0  0  0
  5  6  2  0  0  0  0
  5  7  1  0  0  0  0
  7  8  1  0  0  0  0
  7  9  1  0  0  0  0
  9 10  1  0  0  0  0
  9 11  1  0  0  0  0
  9 19  1  0  0  0  0
 11 12  1  0  0  0  0
 11 13  1  0  0  0  0
 11 17  1  0  0  0  0
 13 14  1  0  0  0  0
 13 15  1  0  0  0  0
 13 16  1  0  0  0  0
 17 18  1  0  0  0  0
 19 20  2  0  0  0  0
 19 21  1  0  0  0  0
 21 22  1  0  0  0  0
 21 23  1  0  0  0  0
 23 24  1  0  0  0  0
 23 25  1  0  0  0  0
 23 26  1  0  0  0  0
M  END
$$$$

  -OEChem-01062216093D

 26 25  0     1  0  0  0  0  0999 V2000
   -2.9722   -3.1210    1.4367 H   0  0  0  0  0  0  0  0  0  0  0  0
   -2.8688   -2.2613    0.7689 C   0  0  0  0  0  0  0  0  0  0  0  0
   -3.7978   -1.6867    0.7865 H   0  0  0  0  0  0  0  0  0  0  0  0
   -2.6907   -2.6248   -0.2462 H   0  0  0  0  0  0  0  0  0  0  0  0
   -1.7101   -1.3903    1.2150 C   0  0  0  0  0  0  0  0  0  0  0  0
   -1.1368   -1.6275    2.2659 O   0  0  0  0  0  0  0  0  0  0  0  0
   -1.4019   -0.2473    0.5106 N   0  0  0  0  0  0  0  0  0  0  0  0
   -1.9473   -0.1631   -0.3438 H   0  0  0  0  0  0  0  0  0  0  0  0
   -0.0438    0.3286    0.3945 C   0  0  1  0  0  0  0  0  0  0  0  0
    0.2923    0.6151    1.3957 H   0  0  0  0  0  0  0  0  0  0  0  0
    1.0117   -0.6682   -0.1823 C   0  0  1  0  0  0  0  0  0  0  0  0
    1.9411   -0.0934   -0.2662 H   0  0  0  0  0  0  0  0  0  0  0  0
    1.3598   -1.8998    0.6525 C   0  0  0  0  0  0  0  0  0  0  0  0
    0.5803   -2.6623    0.5774 H   0  0  0  0  0  0  0  0  0  0  0  0
    2.2947   -2.3398    0.2938 H   0  0  0  0  0  0  0  0  0  0  0  0
    1.4933   -1.6249    1.7030 H   0  0  0  0  0  0  0  0  0  0  0  0
    0.6476   -1.0951   -1.4996 O   0  0  0  0  0  0  0  0  0  0  0  0
    1.4332   -1.3860   -1.9927 H   0  0  0  0  0  0  0  0  0  0  0  0
   -0.0805    1.6188   -0.4630 C   0  0  0  0  0  0  0  0  0  0  0  0
    0.4106    1.7306   -1.5798 O   0  0  0  0  0  0  0  0  0  0  0  0
   -0.6017    2.7581    0.1254 N   0  0  0  0  0  0  0  0  0  0  0  0
   -1.0104    2.6561    1.0506 H   0  0  0  0  0  0  0  0  0  0  0  0
   -0.6482    4.0612   -0.5274 C   0  0  0  0  0  0  0  0  0  0  0  0
   -1.2399    4.0083   -1.4472 H   0  0  0  0  0  0  0  0  0  0  0  0
   -1.1066    4.8002    0.1368 H   0  0  0  0  0  0  0  0  0  0  0  0
    0.3625    4.4014   -0.7768 H   0  0  0  0  0  0  0  0  0  0  0  0
  1  2  1  0  0  0  0
  2  3  1  0  0  0  0
  2  4  1  0  0  0  0
  2  5  1  0  0  0  0
  5  6  2  0  0  0  0
  5  7  1  0  0  0  0
  7  8  1  0  0  0  0
  7  9  1  0  0  0  0
  9 10  1  0  0  0  0
  9 11  1  0  0  0  0
  9 19  1  0  0  0  0
 11 12  1  0  0  0  0
 11 13  1  0  0  0  0
 11 17  1  0  0  0  0
 13 14  1  0  0  0  0
 13 15  1  0  0  0  0
 13 16  1  0  0  0  0
 17 18  1  0  0  0  0
 19 20  2  0  0  0  0
 19 21  1  0  0  0  0
 21 22  1  0  0  0  0
 21 23  1  0  0  0  0
 23 24  1  0  0  0  0
 23 25  1  0  0  0  0
 23 26  1  0  0  0  0
M  END
$$$$

  -OEChem-01062216093D

 26 25  0     1  0  0  0  0  0999 V2000
   -3.0305   -3.0789    1.3808 H   0  0  0  0  0  0  0  0  0  0  0  0
   -2.9058   -2.2086    0.7304 C   0  0  0  0  0  0  0  0  0  0  0  0
   -3.8168   -1.6064    0.7673 H   0  0  0  0  0  0  0  0  0  0  0  0
   -2.7464   -2.5554   -0.2936 H   0  0  0  0  0  0  0  0  0  0  0  0
   -1.7179   -1.3825    1.1857 C   0  0  0  0  0  0  0  0  0  0  0  0
   -1.1405   -1.6646    2.2234 O   0  0  0  0  0  0  0  0  0  0  0  0
   -1.3845   -0.2310    0.5077 N   0  0  0  0  0  0  0  0  0  0  0  0
   -1.9321   -0.1029   -0.3406 H   0  0  0  0  0  0  0  0  0  0  0  0
   -0.0177    0.3209    0.4034 C   0  0  1  0  0  0  0  0  0  0  0  0
    0.3087    0.5845    1.4139 H   0  0  0  0  0  0  0  0  0  0  0  0
    1.0520   -0.6612   -0.1719 C   0  0  1  0  0  0  0  0  0  0  0  0
    1.9791   -0.0803   -0.2320 H   0  0  0  0  0  0  0  0  0  0  0  0
    1.3848   -1.8994    0.6590 C   0  0  0  0  0  0  0  0  0  0  0  0
    0.6033   -2.6581    0.5667 H   0  0  0  0  0  0  0  0  0  0  0  0
    2.3237   -2.3397    0.3116 H   0  0  0  0  0  0  0  0  0  0  0  0
    1.5027   -1.6331    1.7137 H   0  0  0  0  0  0  0  0  0  0  0  0
    0.7262   -1.0831   -1.4990 O   0  0  0  0  0  0  0  0  0  0  0  0
    1.4946   -1.4921   -1.9308 H   0  0  0  0  0  0  0  0  0  0  0  0
   -0.0366    1.6275   -0.4254 C   0  0  0  0  0  0  0  0  0  0  0  0
   -0.0049    1.6615   -1.6487 O   0  0  0  0  0  0  0  0  0  0  0  0
   -0.2260    2.8222    0.2484 N   0  0  0  0  0  0  0  0  0  0  0  0
   -0.3682    2.7713    1.2534 H   0  0  0  0  0  0  0  0  0  0  0  0
   -0.3769    4.1109   -0.4174 C   0  0  0  0  0  0  0  0  0  0  0  0
   -1.2758    4.1163   -1.0425 H   0  0  0  0  0  0  0  0  0  0  0  0
   -0.4656    4.9107    0.3241 H   0  0  0  0  0  0  0  0  0  0  0  0
    0.4930    4.3216   -1.0483 H   0  0  0  0  0  0  0  0  0  0  0  0
  1  2  1  0  0  0  0
  2  3  1  0  0  0  0
  2  4  1  0  0  0  0
  2  5  1  0  0  0  0
  5  6  2  0  0  0  0
  5  7  1  0  0  0  0
  7  8  1  0  0  0  0
  7  9  1  0  0  0  0
  9 10  1  0  0  0  0
  9 11  1  0  0  0  0
  9 19  1  0  0  0  0
 11 12  1  0  0  0  0
 11 13  1  0  0  0  0
 11 17  1  0  0  0  0
 13 14  1  0  0  0  0
 13 15  1  0  0  0  0
 13 16  1  0  0  0  0
 17 18  1  0  0  0  0
 19 20  2  0  0  0  0
 19 21  1  0  0  0  0
 21 22  1  0  0  0  0
 21 23  1  0  0  0  0
 23 24  1  0  0  0  0
 23 25  1  0  0  0  0
 23 26  1  0  0  0  0
M  END
$$$$

  -OEChem-01062216093D

 26 25  0     1  0  0  0  0  0999 V2000
   -3.0905   -3.0260    1.3535 H   0  0  0  0  0  0  0  0  0  0  0  0
   -2.9432   -2.1498    0.7161 C   0  0  0  0  0  0  0  0  0  0  0  0
   -3.8321   -1.5172    0.7737 H   0  0  0  0  0  0  0  0  0  0  0  0
   -2.8079   -2.4845   -0.3153 H   0  0  0  0  0  0  0  0  0  0  0  0
   -1.7229   -1.3720    1.1705 C   0  0  0  0  0  0  0  0  0  0  0  0
   -1.1423   -1.6931    2.1952 O   0  0  0  0  0  0  0  0  0  0  0  0
   -1.3545   -0.2266    0.5008 N   0  0  0  0  0  0  0  0  0  0  0  0
   -1.8966   -0.0597   -0.3455 H   0  0  0  0  0  0  0  0  0  0  0  0
    0.0186    0.3101    0.4241 C   0  0  1  0  0  0  0  0  0  0  0  0
    0.3269    0.5669    1.4417 H   0  0  0  0  0  0  0  0  0  0  0  0
    1.1023   -0.6514   -0.1539 C   0  0  1  0  0  0  0  0  0  0  0  0
    2.0335   -0.0744   -0.1759 H   0  0  0  0  0  0  0  0  0  0  0  0
    1.4017   -1.9143    0.6517 C   0  0  0  0  0  0  0  0  0  0  0  0
    0.6082   -2.6563    0.5295 H   0  0  0  0  0  0  0  0  0  0  0  0
    2.3383   -2.3633    0.3091 H   0  0  0  0  0  0  0  0  0  0  0  0
    1.5068   -1.6752    1.7143 H   0  0  0  0  0  0  0  0  0  0  0  0
    0.8034   -1.0400   -1.4962 O   0  0  0  0  0  0  0  0  0  0  0  0
    1.5467   -1.5256   -1.8909 H   0  0  0  0  0  0  0  0  0  0  0  0
    0.0107    1.6108   -0.4089 C   0  0  0  0  0  0  0  0  0  0  0  0
   -0.3586    1.6318   -1.5770 O   0  0  0  0  0  0  0  0  0  0  0  0
    0.1322    2.8233    0.2494 N   0  0  0  0  0  0  0  0  0  0  0  0
    0.2695    2.7960    1.2557 H   0  0  0  0  0  0  0  0  0  0  0  0
   -0.0901    4.1146   -0.3914 C   0  0  0  0  0  0  0  0  0  0  0  0
   -1.1347    4.2121   -0.7053 H   0  0  0  0  0  0  0  0  0  0  0  0
    0.1401    4.9264    0.3052 H   0  0  0  0  0  0  0  0  0  0  0  0
    0.5540    4.2233   -1.2705 H   0  0  0  0  0  0  0  0  0  0  0  0
  1  2  1  0  0  0  0
  2  3  1  0  0  0  0
  2  4  1  0  0  0  0
  2  5  1  0  0  0  0
  5  6  2  0  0  0  0
  5  7  1  0  0  0  0
  7  8  1  0  0  0  0
  7  9  1  0  0  0  0
  9 10  1  0  0  0  0
  9 11  1  0  0  0  0
  9 19  1  0  0  0  0
 11 12  1  0  0  0  0
 11 13  1  0  0  0  0
 11 17  1  0  0  0  0
 13 14  1  0  0  0  0
 13 15  1  0  0  0  0
 13 16  1  0  0  0  0
 17 18  1  0  0  0  0
 19 20  2  0  0  0  0
 19 21  1  0  0  0  0
 21 22  1  0  0  0  0
 21 23  1  0  0  0  0
 23 24  1  0  0  0  0
 23 25  1  0  0  0  0
 23 26  1  0  0  0  0
M  END
$$$$

  -OEChem-01062216093D

 26 25  0     1  0  0  0  0  0999 V2000
   -3.1234   -3.0103    1.3571 H   0  0  0  0  0  0  0  0  0  0  0  0
   -2.9674   -2.1312    0.7258 C   0  0  0  0  0  0  0  0  0  0  0  0
   -3.8428   -1.4817    0.8015 H   0  0  0  0  0  0  0  0  0  0  0  0
   -2.8526   -2.4582   -0.3106 H   0  0  0  0  0  0  0  0  0  0  0  0
   -1.7262   -1.3811    1.1706 C   0  0  0  0  0  0  0  0  0  0  0  0
   -1.1372   -1.7240    2.1836 O   0  0  0  0  0  0  0  0  0  0  0  0
   -1.3427   -0.2407    0.5013 N   0  0  0  0  0  0  0  0  0  0  0  0
   -1.8867   -0.0469   -0.3387 H   0  0  0  0  0  0  0  0  0  0  0  0
    0.0279    0.3038    0.4452 C   0  0  1  0  0  0  0  0  0  0  0  0
    0.3230    0.5629    1.4660 H   0  0  0  0  0  0  0  0  0  0  0  0
    1.1236   -0.6358   -0.1410 C   0  0  1  0  0  0  0  0  0  0  0  0
    2.0549   -0.0585   -0.1397 H   0  0  0  0  0  0  0  0  0  0  0  0
    1.4109   -1.9180    0.6368 C   0  0  0  0  0  0  0  0  0  0  0  0
    0.6129   -2.6514    0.4935 H   0  0  0  0  0  0  0  0  0  0  0  0
    2.3463   -2.3653    0.2889 H   0  0  0  0  0  0  0  0  0  0  0  0
    1.5113   -1.7037    1.7051 H   0  0  0  0  0  0  0  0  0  0  0  0
    0.8334   -0.9941   -1.4934 O   0  0  0  0  0  0  0  0  0  0  0  0
    1.5598   -1.5117   -1.8793 H   0  0  0  0  0  0  0  0  0  0  0  0
    0.0215    1.5956   -0.3999 C   0  0  0  0  0  0  0  0  0  0  0  0
   -0.5823    1.6516   -1.4663 O   0  0  0  0  0  0  0  0  0  0  0  0
    0.4286    2.7859    0.1797 N   0  0  0  0  0  0  0  0  0  0  0  0
    0.7821    2.7480    1.1314 H   0  0  0  0  0  0  0  0  0  0  0  0
    0.2471    4.0894   -0.4489 C   0  0  0  0  0  0  0  0  0  0  0  0
   -0.8183    4.3210   -0.5503 H   0  0  0  0  0  0  0  0  0  0  0  0
    0.7156    4.8702    0.1580 H   0  0  0  0  0  0  0  0  0  0  0  0
    0.7074    4.1041   -1.4426 H   0  0  0  0  0  0  0  0  0  0  0  0
  1  2  1  0  0  0  0
  2  3  1  0  0  0  0
  2  4  1  0  0  0  0
  2  5  1  0  0  0  0
  5  6  2  0  0  0  0
  5  7  1  0  0  0  0
  7  8  1  0  0  0  0
  7  9  1  0  0  0  0
  9 10  1  0  0  0  0
  9 11  1  0  0  0  0
  9 19  1  0  0  0  0
 11 12  1  0  0  0  0
 11 13  1  0  0  0  0
 11 17  1  0  0  0  0
 13 14  1  0  0  0  0
 13 15  1  0  0  0  0
 13 16  1  0  0  0  0
 17 18  1  0  0  0  0
 19 20  2  0  0  0  0
 19 21  1  0  0  0  0
 21 22  1  0  0  0  0
 21 23  1  0  0  0  0
 23 24  1  0  0  0  0
 23 25  1  0  0  0  0
 23 26  1  0  0  0  0
M  END
$$$$

  -OEChem-01062216093D

 26 25  0     1  0  0  0  0  0999 V2000
   -3.1362   -3.0202    1.3591 H   0  0  0  0  0  0  0  0  0  0  0  0
   -2.9846   -2.1315    0.7404 C   0  0  0  0  0  0  0  0  0  0  0  0
   -3.8531   -1.4764    0.8436 H   0  0  0  0  0  0  0  0  0  0  0  0
   -2.8920   -2.4410   -0.3035 H   0  0  0  0  0  0  0  0  0  0  0  0
   -1.7291   -1.3994    1.1746 C   0  0  0  0  0  0  0  0  0  0  0  0
   -1.1284   -1.7599    2.1746 O   0  0  0  0  0  0  0  0  0  0  0  0
   -1.3421   -0.2595    0.5068 N   0  0  0  0  0  0  0  0  0  0  0  0
   -1.8975   -0.0407   -0.3199 H   0  0  0  0  0  0  0  0  0  0  0  0
    0.0221    0.3021    0.4630 C   0  0  1  0  0  0  0  0  0  0  0  0
    0.3089    0.5633    1.4857 H   0  0  0  0  0  0  0  0  0  0  0  0
    1.1273   -0.6172   -0.1340 C   0  0  1  0  0  0  0  0  0  0  0  0
    2.0555   -0.0347   -0.1222 H   0  0  0  0  0  0  0  0  0  0  0  0
    1.4206   -1.9097    0.6238 C   0  0  0  0  0  0  0  0  0  0  0  0
    0.6271   -2.6455    0.4675 H   0  0  0  0  0  0  0  0  0  0  0  0
    2.3602   -2.3454    0.2717 H   0  0  0  0  0  0  0  0  0  0  0  0
    1.5169   -1.7108    1.6955 H   0  0  0  0  0  0  0  0  0  0  0  0
    0.8362   -0.9531   -1.4924 O   0  0  0  0  0  0  0  0  0  0  0  0
    1.5510   -1.4863   -1.8790 H   0  0  0  0  0  0  0  0  0  0  0  0
    0.0140    1.5890   -0.3888 C   0  0  0  0  0  0  0  0  0  0  0  0
   -0.7512    1.7080   -1.3414 O   0  0  0  0  0  0  0  0  0  0  0  0
    0.6811    2.7149    0.0647 N   0  0  0  0  0  0  0  0  0  0  0  0
    1.2138    2.6332    0.9256 H   0  0  0  0  0  0  0  0  0  0  0  0
    0.5882    4.0180   -0.5832 C   0  0  0  0  0  0  0  0  0  0  0  0
   -0.4361    4.4013   -0.5279 H   0  0  0  0  0  0  0  0  0  0  0  0
    1.2533    4.7335   -0.0903 H   0  0  0  0  0  0  0  0  0  0  0  0
    0.8812    3.9447   -1.6360 H   0  0  0  0  0  0  0  0  0  0  0  0
  1  2  1  0  0  0  0
  2  3  1  0  0  0  0
  2  4  1  0  0  0  0
  2  5  1  0  0  0  0
  5  6  2  0  0  0  0
  5  7  1  0  0  0  0
  7  8  1  0  0  0  0
  7  9  1  0  0  0  0
  9 10  1  0  0  0  0
  9 11  1  0  0  0  0
  9 19  1  0  0  0  0
 11 12  1  0  0  0  0
 11 13  1  0  0  0  0
 11 17  1  0  0  0  0
 13 14  1  0  0  0  0
 13 15  1  0  0  0  0
 13 16  1  0  0  0  0
 17 18  1  0  0  0  0
 19 20  2  0  0  0  0
 19 21  1  0  0  0  0
 21 22  1  0  0  0  0
 21 23  1  0  0  0  0
 23 24  1  0  0  0  0
 23 25  1  0  0  0  0
 23 26  1  0  0  0  0
M  END
$$$$

  -OEChem-01062216093D

 26 25  0     1  0  0  0  0  0999 V2000
   -3.1458   -3.0240    1.3647 H   0  0  0  0  0  0  0  0  0  0  0  0
   -2.9966   -2.1292    0.7542 C   0  0  0  0  0  0  0  0  0  0  0  0
   -3.8563   -1.4669    0.8806 H   0  0  0  0  0  0  0  0  0  0  0  0
   -2.9255   -2.4266   -0.2949 H   0  0  0  0  0  0  0  0  0  0  0  0
   -1.7267   -1.4146    1.1753 C   0  0  0  0  0  0  0  0  0  0  0  0
   -1.1162   -1.7911    2.1632 O   0  0  0  0  0  0  0  0  0  0  0  0
   -1.3370   -0.2739    0.5106 N   0  0  0  0  0  0  0  0  0  0  0  0
   -1.9092   -0.0250   -0.2960 H   0  0  0  0  0  0  0  0  0  0  0  0
    0.0213    0.3043    0.4763 C   0  0  1  0  0  0  0  0  0  0  0  0
    0.3041    0.5695    1.4993 H   0  0  0  0  0  0  0  0  0  0  0  0
    1.1307   -0.6042   -0.1299 C   0  0  1  0  0  0  0  0  0  0  0  0
    2.0585   -0.0215   -0.1131 H   0  0  0  0  0  0  0  0  0  0  0  0
    1.4274   -1.9053    0.6115 C   0  0  0  0  0  0  0  0  0  0  0  0
    0.6373   -2.6423    0.4434 H   0  0  0  0  0  0  0  0  0  0  0  0
    2.3694   -2.3320    0.2557 H   0  0  0  0  0  0  0  0  0  0  0  0
    1.5205   -1.7206    1.6860 H   0  0  0  0  0  0  0  0  0  0  0  0
    0.8350   -0.9246   -1.4915 O   0  0  0  0  0  0  0  0  0  0  0  0
    1.5368   -1.4751   -1.8780 H   0  0  0  0  0  0  0  0  0  0  0  0
    0.0105    1.5894   -0.3799 C   0  0  0  0  0  0  0  0  0  0  0  0
   -0.8793    1.7900   -1.2027 O   0  0  0  0  0  0  0  0  0  0  0  0
    0.8980    2.6145   -0.0971 N   0  0  0  0  0  0  0  0  0  0  0  0
    1.5728    2.4641    0.6468 H   0  0  0  0  0  0  0  0  0  0  0  0
    0.8779    3.9029   -0.7792 C   0  0  0  0  0  0  0  0  0  0  0  0
   -0.0681    4.4211   -0.5905 H   0  0  0  0  0  0  0  0  0  0  0  0
    1.6964    4.5340   -0.4198 H   0  0  0  0  0  0  0  0  0  0  0  0
    0.9966    3.7663   -1.8593 H   0  0  0  0  0  0  0  0  0  0  0  0
  1  2  1  0  0  0  0
  2  3  1  0  0  0  0
  2  4  1  0  0  0  0
  2  5  1  0  0  0  0
  5  6  2  0  0  0  0
  5  7  1  0  0  0  0
  7  8  1  0  0  0  0
  7  9  1  0  0  0  0
  9 10  1  0  0  0  0
  9 11  1  0  0  0  0
  9 19  1  0  0  0  0
 11 12  1  0  0  0  0
 11 13  1  0  0  0  0
 11 17  1  0  0  0  0
 13 14  1  0  0  0  0
 13 15  1  0  0  0  0
 13 16  1  0  0  0  0
 17 18  1  0  0  0  0
 19 20  2  0  0  0  0
 19 21  1  0  0  0  0
 21 22  1  0  0  0  0
 21 23  1  0  0  0  0
 23 24  1  0  0  0  0
 23 25  1  0  0  0  0
 23 26  1  0  0  0  0
M  END
$$$$

  -OEChem-01062216093D

 26 25  0     1  0  0  0  0  0999 V2000
   -3.1750   -3.0059    1.3722 H   0  0  0  0  0  0  0  0  0  0  0  0
   -3.0121   -2.1138    0.7612 C   0  0  0  0  0  0  0  0  0  0  0  0
   -3.8541   -1.4316    0.9004 H   0  0  0  0  0  0  0  0  0  0  0  0
   -2.9617   -2.4106   -0.2891 H   0  0  0  0  0  0  0  0  0  0  0  0
   -1.7202   -1.4303    1.1669 C   0  0  0  0  0  0  0  0  0  0  0  0
   -1.1035   -1.8299    2.1418 O   0  0  0  0  0  0  0  0  0  0  0  0
   -1.3222   -0.2873    0.5107 N   0  0  0  0  0  0  0  0  0  0  0  0
   -1.9121   -0.0005   -0.2703 H   0  0  0  0  0  0  0  0  0  0  0  0
    0.0320    0.3033    0.4891 C   0  0  1  0  0  0  0  0  0  0  0  0
    0.3112    0.5682    1.5131 H   0  0  0  0  0  0  0  0  0  0  0  0
    1.1431   -0.6016   -0.1238 C   0  0  1  0  0  0  0  0  0  0  0  0
    2.0742   -0.0254   -0.1005 H   0  0  0  0  0  0  0  0  0  0  0  0
    1.4377   -1.9108    0.6039 C   0  0  0  0  0  0  0  0  0  0  0  0
    0.6477   -2.6458    0.4273 H   0  0  0  0  0  0  0  0  0  0  0  0
    2.3796   -2.3351    0.2450 H   0  0  0  0  0  0  0  0  0  0  0  0
    1.5302   -1.7372    1.6802 H   0  0  0  0  0  0  0  0  0  0  0  0
    0.8451   -0.9079   -1.4884 O   0  0  0  0  0  0  0  0  0  0  0  0
    1.5353   -1.4735   -1.8745 H   0  0  0  0  0  0  0  0  0  0  0  0
    0.0153    1.5904   -0.3683 C   0  0  0  0  0  0  0  0  0  0  0  0
   -0.9714    1.8851   -1.0386 O   0  0  0  0  0  0  0  0  0  0  0  0
    1.0644    2.4929   -0.2995 N   0  0  0  0  0  0  0  0  0  0  0  0
    1.8537    2.2567    0.2939 H   0  0  0  0  0  0  0  0  0  0  0  0
    1.0831    3.7565   -1.0264 C   0  0  0  0  0  0  0  0  0  0  0  0
    0.2476    4.3914   -0.7132 H   0  0  0  0  0  0  0  0  0  0  0  0
    2.0168    4.2920   -0.8296 H   0  0  0  0  0  0  0  0  0  0  0  0
    1.0071    3.5791   -2.1044 H   0  0  0  0  0  0  0  0  0  0  0  0
  1  2  1  0  0  0  0
  2  3  1  0  0  0  0
  2  4  1  0  0  0  0
  2  5  1  0  0  0  0
  5  6  2  0  0  0  0
  5  7  1  0  0  0  0
  7  8  1  0  0  0  0
  7  9  1  0  0  0  0
  9 10  1  0  0  0  0
  9 11  1  0  0  0  0
  9 19  1  0  0  0  0
 11 12  1  0  0  0  0
 11 13  1  0  0  0  0
 11 17  1  0  0  0  0
 13 14  1  0  0  0  0
 13 15  1  0  0  0  0
 13 16  1  0  0  0  0
 17 18  1  0  0  0  0
 19 20  2  0  0  0  0
 19 21  1  0  0  0  0
 21 22  1  0  0  0  0
 21 23  1  0  0  0  0
 23 24  1  0  0  0  0
 23 25  1  0  0  0  0
 23 26  1  0  0  0  0
M  END
$$$$

  -OEChem-01062216093D

 26 25  0     1  0  0  0  0  0999 V2000
   -3.1352   -3.0365    1.3631 H   0  0  0  0  0  0  0  0  0  0  0  0
   -3.0181   -2.1019    0.8078 C   0  0  0  0  0  0  0  0  0  0  0  0
   -3.8043   -1.4078    1.1143 H   0  0  0  0  0  0  0  0  0  0  0  0
   -3.1217   -2.3109   -0.2597 H   0  0  0  0  0  0  0  0  0  0  0  0
   -1.6557   -1.4954    1.0854 C   0  0  0  0  0  0  0  0  0  0  0  0
   -0.9243   -2.0006    1.9227 O   0  0  0  0  0  0  0  0  0  0  0  0
   -1.2839   -0.3358    0.4419 N   0  0  0  0  0  0  0  0  0  0  0  0
   -1.9546    0.0681   -0.2099 H   0  0  0  0  0  0  0  0  0  0  0  0
    0.0525    0.2914    0.4527 C   0  0  1  0  0  0  0  0  0  0  0  0
    0.4256    0.3185    1.4808 H   0  0  0  0  0  0  0  0  0  0  0  0
    1.0837   -0.4491   -0.4461 C   0  0  1  0  0  0  0  0  0  0  0  0
    2.0337    0.0914   -0.3829 H   0  0  0  0  0  0  0  0  0  0  0  0
    1.3779   -1.8946   -0.0510 C   0  0  0  0  0  0  0  0  0  0  0  0
    0.5208   -2.5404   -0.2603 H   0  0  0  0  0  0  0  0  0  0  0  0
    2.2350   -2.2720   -0.6160 H   0  0  0  0  0  0  0  0  0  0  0  0
    1.6172   -1.9574    1.0150 H   0  0  0  0  0  0  0  0  0  0  0  0
    0.6469   -0.4462   -1.8079 O   0  0  0  0  0  0  0  0  0  0  0  0
    1.2698   -0.9360   -2.3714 H   0  0  0  0  0  0  0  0  0  0  0  0
   -0.0451    1.7483   -0.0613 C   0  0  0  0  0  0  0  0  0  0  0  0
   -1.1338    2.2324   -0.3603 O   0  0  0  0  0  0  0  0  0  0  0  0
    1.0796    2.5538   -0.1458 N   0  0  0  0  0  0  0  0  0  0  0  0
    1.9755    2.1372    0.0865 H   0  0  0  0  0  0  0  0  0  0  0  0
    1.0494    3.9236   -0.6433 C   0  0  0  0  0  0  0  0  0  0  0  0
    0.3799    4.5389   -0.0333 H   0  0  0  0  0  0  0  0  0  0  0  0
    2.0512    4.3616   -0.6044 H   0  0  0  0  0  0  0  0  0  0  0  0
    0.7016    3.9458   -1.6814 H   0  0  0  0  0  0  0  0  0  0  0  0
  1  2  1  0  0  0  0
  2  3  1  0  0  0  0
  2  4  1  0  0  0  0
  2  5  1  0  0  0  0
  5  6  2  0  0  0  0
  5  7  1  0  0  0  0
  7  8  1  0  0  0  0
  7  9  1  0  0  0  0
  9 10  1  0  0  0  0
  9 11  1  0  0  0  0
  9 19  1  0  0  0  0
 11 12  1  0  0  0  0
 11 13  1  0  0  0  0
 11 17  1  0  0  0  0
 13 14  1  0  0  0  0
 13 15  1  0  0  0  0
 13 16  1  0  0  0  0
 17 18  1  0  0  0  0
 19 20  2  0  0  0  0
 19 21  1  0  0  0  0
 21 22  1  0  0  0  0
 21 23  1  0  0  0  0
 23 24  1  0  0  0  0
 23 25  1  0  0  0  0
 23 26  1  0  0  0  0
M  END
$$$$

  -OEChem-01062216093D

 26 25  0     1  0  0  0  0  0999 V2000
   -3.1652   -3.0036    1.3438 H   0  0  0  0  0  0  0  0  0  0  0  0
   -3.0356   -2.0594    0.8078 C   0  0  0  0  0  0  0  0  0  0  0  0
   -3.7918   -1.3503    1.1530 H   0  0  0  0  0  0  0  0  0  0  0  0
   -3.1754   -2.2393   -0.2608 H   0  0  0  0  0  0  0  0  0  0  0  0
   -1.6486   -1.5000    1.0620 C   0  0  0  0  0  0  0  0  0  0  0  0
   -0.9183   -2.0382    1.8791 O   0  0  0  0  0  0  0  0  0  0  0  0
   -1.2605   -0.3385    0.4311 N   0  0  0  0  0  0  0  0  0  0  0  0
   -1.9498    0.1152   -0.1658 H   0  0  0  0  0  0  0  0  0  0  0  0
    0.0812    0.2800    0.4502 C   0  0  1  0  0  0  0  0  0  0  0  0
    0.4498    0.3050    1.4802 H   0  0  0  0  0  0  0  0  0  0  0  0
    1.1156   -0.4697   -0.4407 C   0  0  1  0  0  0  0  0  0  0  0  0
    2.0710    0.0594   -0.3671 H   0  0  0  0  0  0  0  0  0  0  0  0
    1.3964   -1.9179   -0.0456 C   0  0  0  0  0  0  0  0  0  0  0  0
    0.5378   -2.5582   -0.2658 H   0  0  0  0  0  0  0  0  0  0  0  0
    2.2570   -2.2998   -0.6020 H   0  0  0  0  0  0  0  0  0  0  0  0
    1.6241   -1.9844    1.0227 H   0  0  0  0  0  0  0  0  0  0  0  0
    0.6898   -0.4662   -1.8062 O   0  0  0  0  0  0  0  0  0  0  0  0
    1.2841   -1.0077   -2.3534 H   0  0  0  0  0  0  0  0  0  0  0  0
   -0.0231    1.7428   -0.0555 C   0  0  0  0  0  0  0  0  0  0  0  0
   -1.1192    2.2946   -0.1106 O   0  0  0  0  0  0  0  0  0  0  0  0
    1.0922    2.4742   -0.4346 N   0  0  0  0  0  0  0  0  0  0  0  0
    1.9772    1.9801   -0.4839 H   0  0  0  0  0  0  0  0  0  0  0  0
    1.0173    3.8268   -0.9740 C   0  0  0  0  0  0  0  0  0  0  0  0
    0.5112    4.4944   -0.2686 H   0  0  0  0  0  0  0  0  0  0  0  0
    2.0230    4.2179   -1.1550 H   0  0  0  0  0  0  0  0  0  0  0  0
    0.4672    3.8310   -1.9207 H   0  0  0  0  0  0  0  0  0  0  0  0
  1  2  1  0  0  0  0
  2  3  1  0  0  0  0
  2  4  1  0  0  0  0
  2  5  1  0  0  0  0
  5  6  2  0  0  0  0
  5  7  1  0  0  0  0
  7  8  1  0  0  0  0
  7  9  1  0  0  0  0
  9 10  1  0  0  0  0
  9 11  1  0  0  0  0
  9 19  1  0  0  0  0
 11 12  1  0  0  0  0
 11 13  1  0  0  0  0
 11 17  1  0  0  0  0
 13 14  1  0  0  0  0
 13 15  1  0  0  0  0
 13 16  1  0  0  0  0
 17 18  1  0  0  0  0
 19 20  2  0  0  0  0
 19 21  1  0  0  0  0
 21 22  1  0  0  0  0
 21 23  1  0  0  0  0
 23 24  1  0  0  0  0
 23 25  1  0  0  0  0
 23 26  1  0  0  0  0
M  END
$$$$

  -OEChem-01062216093D

 26 25  0     1  0  0  0  0  0999 V2000
   -3.1936   -2.9634    1.3428 H   0  0  0  0  0  0  0  0  0  0  0  0
   -3.0467   -2.0242    0.8023 C   0  0  0  0  0  0  0  0  0  0  0  0
   -3.7851   -1.2974    1.1494 H   0  0  0  0  0  0  0  0  0  0  0  0
   -3.1972   -2.2049   -0.2647 H   0  0  0  0  0  0  0  0  0  0  0  0
   -1.6464   -1.4938    1.0447 C   0  0  0  0  0  0  0  0  0  0  0  0
   -0.9178   -2.0559    1.8467 O   0  0  0  0  0  0  0  0  0  0  0  0
   -1.2463   -0.3326    0.4201 N   0  0  0  0  0  0  0  0  0  0  0  0
   -1.9451    0.1488   -0.1420 H   0  0  0  0  0  0  0  0  0  0  0  0
    0.1024    0.2719    0.4395 C   0  0  1  0  0  0  0  0  0  0  0  0
    0.4660    0.2966    1.4714 H   0  0  0  0  0  0  0  0  0  0  0  0
    1.1448   -0.4860   -0.4361 C   0  0  1  0  0  0  0  0  0  0  0  0
    2.1013    0.0400   -0.3497 H   0  0  0  0  0  0  0  0  0  0  0  0
    1.4170   -1.9332   -0.0327 C   0  0  0  0  0  0  0  0  0  0  0  0
    0.5603   -2.5727   -0.2625 H   0  0  0  0  0  0  0  0  0  0  0  0
    2.2844   -2.3185   -0.5762 H   0  0  0  0  0  0  0  0  0  0  0  0
    1.6309   -1.9965    1.0387 H   0  0  0  0  0  0  0  0  0  0  0  0
    0.7370   -0.4918   -1.8074 O   0  0  0  0  0  0  0  0  0  0  0  0
    1.3051   -1.0834   -2.3308 H   0  0  0  0  0  0  0  0  0  0  0  0
   -0.0022    1.7383   -0.0592 C   0  0  0  0  0  0  0  0  0  0  0  0
   -1.0381    2.3673    0.1360 O   0  0  0  0  0  0  0  0  0  0  0  0
    1.0306    2.3824   -0.7231 N   0  0  0  0  0  0  0  0  0  0  0  0
    1.7833    1.7903   -1.0608 H   0  0  0  0  0  0  0  0  0  0  0  0
    0.9034    3.7219   -1.2854 C   0  0  0  0  0  0  0  0  0  0  0  0
    0.6267    4.4410   -0.5071 H   0  0  0  0  0  0  0  0  0  0  0  0
    1.8550    4.0396   -1.7222 H   0  0  0  0  0  0  0  0  0  0  0  0
    0.1383    3.7376   -2.0686 H   0  0  0  0  0  0  0  0  0  0  0  0
  1  2  1  0  0  0  0
  2  3  1  0  0  0  0
  2  4  1  0  0  0  0
  2  5  1  0  0  0  0
  5  6  2  0  0  0  0
  5  7  1  0  0  0  0
  7  8  1  0  0  0  0
  7  9  1  0  0  0  0
  9 10  1  0  0  0  0
  9 11  1  0  0  0  0
  9 19  1  0  0  0  0
 11 12  1  0  0  0  0
 11 13  1  0  0  0  0
 11 17  1  0  0  0  0
 13 14  1  0  0  0  0
 13 15  1  0  0  0  0
 13 16  1  0  0  0  0
 17 18  1  0  0  0  0
 19 20  2  0  0  0  0
 19 21  1  0  0  0  0
 21 22  1  0  0  0  0
 21 23  1  0  0  0  0
 23 24  1  0  0  0  0
 23 25  1  0  0  0  0
 23 26  1  0  0  0  0
M  END
$$$$

  -OEChem-01062216093D

 26 25  0     1  0  0  0  0  0999 V2000
   -3.1954   -2.9452    1.3415 H   0  0  0  0  0  0  0  0  0  0  0  0
   -3.0469   -2.0072    0.7996 C   0  0  0  0  0  0  0  0  0  0  0  0
   -3.7826   -1.2784    1.1481 H   0  0  0  0  0  0  0  0  0  0  0  0
   -3.2004   -2.1889   -0.2667 H   0  0  0  0  0  0  0  0  0  0  0  0
   -1.6443   -1.4811    1.0381 C   0  0  0  0  0  0  0  0  0  0  0  0
   -0.9163   -2.0464    1.8380 O   0  0  0  0  0  0  0  0  0  0  0  0
   -1.2426   -0.3217    0.4105 N   0  0  0  0  0  0  0  0  0  0  0  0
   -1.9420    0.1539   -0.1540 H   0  0  0  0  0  0  0  0  0  0  0  0
    0.1116    0.2716    0.4182 C   0  0  1  0  0  0  0  0  0  0  0  0
    0.4757    0.3007    1.4500 H   0  0  0  0  0  0  0  0  0  0  0  0
    1.1573   -0.4990   -0.4439 C   0  0  1  0  0  0  0  0  0  0  0  0
    2.1111    0.0336   -0.3593 H   0  0  0  0  0  0  0  0  0  0  0  0
    1.4309   -1.9388   -0.0163 C   0  0  0  0  0  0  0  0  0  0  0  0
    0.5773   -2.5840   -0.2414 H   0  0  0  0  0  0  0  0  0  0  0  0
    2.3031   -2.3303   -0.5473 H   0  0  0  0  0  0  0  0  0  0  0  0
    1.6377   -1.9848    1.0573 H   0  0  0  0  0  0  0  0  0  0  0  0
    0.7641   -0.5293   -1.8203 O   0  0  0  0  0  0  0  0  0  0  0  0
    1.3160   -1.1596   -2.3163 H   0  0  0  0  0  0  0  0  0  0  0  0
    0.0114    1.7381   -0.0771 C   0  0  0  0  0  0  0  0  0  0  0  0
   -0.8973    2.4467    0.3424 O   0  0  0  0  0  0  0  0  0  0  0  0
    0.8898    2.2850   -0.9984 N   0  0  0  0  0  0  0  0  0  0  0  0
    1.4395    1.6082   -1.5233 H   0  0  0  0  0  0  0  0  0  0  0  0
    0.7243    3.6201   -1.5609 C   0  0  0  0  0  0  0  0  0  0  0  0
    0.6993    4.3721   -0.7651 H   0  0  0  0  0  0  0  0  0  0  0  0
    1.5599    3.8545   -2.2272 H   0  0  0  0  0  0  0  0  0  0  0  0
   -0.2065    3.6820   -2.1341 H   0  0  0  0  0  0  0  0  0  0  0  0
  1  2  1  0  0  0  0
  2  3  1  0  0  0  0
  2  4  1  0  0  0  0
  2  5  1  0  0  0  0
  5  6  2  0  0  0  0
  5  7  1  0  0  0  0
  7  8  1  0  0  0  0
  7  9  1  0  0  0  0
  9 10  1  0  0  0  0
  9 11  1  0  0  0  0
  9 19  1  0  0  0  0
 11 12  1  0  0  0  0
 11 13  1  0  0  0  0
 11 17  1  0  0  0  0
 13 14  1  0  0  0  0
 13 15  1  0  0  0  0
 13 16  1  0  0  0  0
 17 18  1  0  0  0  0
 19 20  2  0  0  0  0
 19 21  1  0  0  0  0
 21 22  1  0  0  0  0
 21 23  1  0  0  0  0
 23 24  1  0  0  0  0
 23 25  1  0  0  0  0
 23 26  1  0  0  0  0
M  END
$$$$

  -OEChem-01062216093D

 26 25  0     1  0  0  0  0  0999 V2000
   -3.1716   -2.9526    1.3446 H   0  0  0  0  0  0  0  0  0  0  0  0
   -3.0341   -2.0146    0.7995 C   0  0  0  0  0  0  0  0  0  0  0  0
   -3.7837   -1.2960    1.1395 H   0  0  0  0  0  0  0  0  0  0  0  0
   -3.1765   -2.2037   -0.2671 H   0  0  0  0  0  0  0  0  0  0  0  0
   -1.6418   -1.4653    1.0469 C   0  0  0  0  0  0  0  0  0  0  0  0
   -0.9142   -2.0116    1.8599 O   0  0  0  0  0  0  0  0  0  0  0  0
   -1.2491   -0.3077    0.4092 N   0  0  0  0  0  0  0  0  0  0  0  0
   -1.9404    0.1286   -0.1945 H   0  0  0  0  0  0  0  0  0  0  0  0
    0.1080    0.2795    0.3962 C   0  0  1  0  0  0  0  0  0  0  0  0
    0.4794    0.3124    1.4255 H   0  0  0  0  0  0  0  0  0  0  0  0
    1.1448   -0.5110   -0.4606 C   0  0  1  0  0  0  0  0  0  0  0  0
    2.0958    0.0291   -0.3938 H   0  0  0  0  0  0  0  0  0  0  0  0
    1.4270   -1.9400   -0.0027 C   0  0  0  0  0  0  0  0  0  0  0  0
    0.5754   -2.5938   -0.2103 H   0  0  0  0  0  0  0  0  0  0  0  0
    2.2990   -2.3390   -0.5286 H   0  0  0  0  0  0  0  0  0  0  0  0
    1.6389   -1.9617    1.0708 H   0  0  0  0  0  0  0  0  0  0  0  0
    0.7515   -0.5724   -1.8377 O   0  0  0  0  0  0  0  0  0  0  0  0
    1.3121   -1.2075   -2.3185 H   0  0  0  0  0  0  0  0  0  0  0  0
    0.0212    1.7453   -0.0983 C   0  0  0  0  0  0  0  0  0  0  0  0
   -0.7027    2.5309    0.5014 O   0  0  0  0  0  0  0  0  0  0  0  0
    0.6802    2.1997   -1.2278 N   0  0  0  0  0  0  0  0  0  0  0  0
    1.0559    1.4673   -1.8293 H   0  0  0  0  0  0  0  0  0  0  0  0
    0.4853    3.5309   -1.7895 C   0  0  0  0  0  0  0  0  0  0  0  0
    0.7148    4.3000   -1.0444 H   0  0  0  0  0  0  0  0  0  0  0  0
    1.1467    3.6779   -2.6486 H   0  0  0  0  0  0  0  0  0  0  0  0
   -0.5503    3.6590   -2.1208 H   0  0  0  0  0  0  0  0  0  0  0  0
  1  2  1  0  0  0  0
  2  3  1  0  0  0  0
  2  4  1  0  0  0  0
  2  5  1  0  0  0  0
  5  6  2  0  0  0  0
  5  7  1  0  0  0  0
  7  8  1  0  0  0  0
  7  9  1  0  0  0  0
  9 10  1  0  0  0  0
  9 11  1  0  0  0  0
  9 19  1  0  0  0  0
 11 12  1  0  0  0  0
 11 13  1  0  0  0  0
 11 17  1  0  0  0  0
 13 14  1  0  0  0  0
 13 15  1  0  0  0  0
 13 16  1  0  0  0  0
 17 18  1  0  0  0  0
 19 20  2  0  0  0  0
 19 21  1  0  0  0  0
 21 22  1  0  0  0  0
 21 23  1  0  0  0  0
 23 24  1  0  0  0  0
 23 25  1  0  0  0  0
 23 26  1  0  0  0  0
M  END
$$$$

  -OEChem-01062216093D

 26 25  0     1  0  0  0  0  0999 V2000
   -3.1366   -2.9763    1.3615 H   0  0  0  0  0  0  0  0  0  0  0  0
   -3.0177   -2.0394    0.8101 C   0  0  0  0  0  0  0  0  0  0  0  0
   -3.7865   -1.3362    1.1397 H   0  0  0  0  0  0  0  0  0  0  0  0
   -3.1484   -2.2402   -0.2559 H   0  0  0  0  0  0  0  0  0  0  0  0
   -1.6407   -1.4553    1.0638 C   0  0  0  0  0  0  0  0  0  0  0  0
   -0.9113   -1.9721    1.8941 O   0  0  0  0  0  0  0  0  0  0  0  0
   -1.2651   -0.3010    0.4095 N   0  0  0  0  0  0  0  0  0  0  0  0
   -1.9446    0.0804   -0.2420 H   0  0  0  0  0  0  0  0  0  0  0  0
    0.0906    0.2883    0.3738 C   0  0  1  0  0  0  0  0  0  0  0  0
    0.4723    0.3294    1.3994 H   0  0  0  0  0  0  0  0  0  0  0  0
    1.1185   -0.5174   -0.4801 C   0  0  1  0  0  0  0  0  0  0  0  0
    2.0651    0.0330   -0.4352 H   0  0  0  0  0  0  0  0  0  0  0  0
    1.4156   -1.9336    0.0073 C   0  0  0  0  0  0  0  0  0  0  0  0
    0.5679   -2.5988   -0.1786 H   0  0  0  0  0  0  0  0  0  0  0  0
    2.2869   -2.3370   -0.5168 H   0  0  0  0  0  0  0  0  0  0  0  0
    1.6357   -1.9299    1.0794 H   0  0  0  0  0  0  0  0  0  0  0  0
    0.7193   -0.6108   -1.8548 O   0  0  0  0  0  0  0  0  0  0  0  0
    1.3081   -1.2235   -2.3313 H   0  0  0  0  0  0  0  0  0  0  0  0
    0.0106    1.7498   -0.1286 C   0  0  0  0  0  0  0  0  0  0  0  0
   -0.4844    2.6010    0.5988 O   0  0  0  0  0  0  0  0  0  0  0  0
    0.3975    2.1265   -1.4022 N   0  0  0  0  0  0  0  0  0  0  0  0
    0.6456    1.3612   -2.0302 H   0  0  0  0  0  0  0  0  0  0  0  0
    0.2046    3.4630   -1.9506 C   0  0  0  0  0  0  0  0  0  0  0  0
    0.6875    4.2122   -1.3145 H   0  0  0  0  0  0  0  0  0  0  0  0
    0.6439    3.5272   -2.9507 H   0  0  0  0  0  0  0  0  0  0  0  0
   -0.8625    3.6968   -2.0233 H   0  0  0  0  0  0  0  0  0  0  0  0
  1  2  1  0  0  0  0
  2  3  1  0  0  0  0
  2  4  1  0  0  0  0
  2  5  1  0  0  0  0
  5  6  2  0  0  0  0
  5  7  1  0  0  0  0
  7  8  1  0  0  0  0
  7  9  1  0  0  0  0
  9 10  1  0  0  0  0
  9 11  1  0  0  0  0
  9 19  1  0  0  0  0
 11 12  1  0  0  0  0
 11 13  1  0  0  0  0
 11 17  1  0  0  0  0
 13 14  1  0  0  0  0
 13 15  1  0  0  0  0
 13 16  1  0  0  0  0
 17 18  1  0  0  0  0
 19 20  2  0  0  0  0
 19 21  1  0  0  0  0
 21 22  1  0  0  0  0
 21 23  1  0  0  0  0
 23 24  1  0  0  0  0
 23 25  1  0  0  0  0
 23 26  1  0  0  0  0
M  END
$$$$

  -OEChem-01062216093D

 26 25  0     1  0  0  0  0  0999 V2000
   -3.1162   -2.9956    1.4440 H   0  0  0  0  0  0  0  0  0  0  0  0
   -2.9991   -2.0970    0.8318 C   0  0  0  0  0  0  0  0  0  0  0  0
   -3.7930   -1.3912    1.0879 H   0  0  0  0  0  0  0  0  0  0  0  0
   -3.0910   -2.3742   -0.2210 H   0  0  0  0  0  0  0  0  0  0  0  0
   -1.6435   -1.4648    1.0855 C   0  0  0  0  0  0  0  0  0  0  0  0
   -0.9035   -1.9452    1.9281 O   0  0  0  0  0  0  0  0  0  0  0  0
   -1.2980   -0.3109    0.4133 N   0  0  0  0  0  0  0  0  0  0  0  0
   -1.9731    0.0185   -0.2702 H   0  0  0  0  0  0  0  0  0  0  0  0
    0.0488    0.2973    0.3597 C   0  0  1  0  0  0  0  0  0  0  0  0
    0.4381    0.3503    1.3821 H   0  0  0  0  0  0  0  0  0  0  0  0
    1.0802   -0.5001   -0.4964 C   0  0  1  0  0  0  0  0  0  0  0  0
    2.0175    0.0671   -0.4648 H   0  0  0  0  0  0  0  0  0  0  0  0
    1.4028   -1.9065    0.0031 C   0  0  0  0  0  0  0  0  0  0  0  0
    0.5621   -2.5850   -0.1652 H   0  0  0  0  0  0  0  0  0  0  0  0
    2.2730   -2.3040   -0.5268 H   0  0  0  0  0  0  0  0  0  0  0  0
    1.6352   -1.8872    1.0724 H   0  0  0  0  0  0  0  0  0  0  0  0
    0.6734   -0.6140   -1.8678 O   0  0  0  0  0  0  0  0  0  0  0  0
    1.2928   -1.1910   -2.3502 H   0  0  0  0  0  0  0  0  0  0  0  0
   -0.0459    1.7517   -0.1555 C   0  0  0  0  0  0  0  0  0  0  0  0
   -0.2694    2.6556    0.6385 O   0  0  0  0  0  0  0  0  0  0  0  0
    0.0363    2.0662   -1.4994 N   0  0  0  0  0  0  0  0  0  0  0  0
    0.2114    1.2840   -2.1314 H   0  0  0  0  0  0  0  0  0  0  0  0
   -0.0755    3.4164   -2.0362 C   0  0  0  0  0  0  0  0  0  0  0  0
    0.7064    4.0601   -1.6198 H   0  0  0  0  0  0  0  0  0  0  0  0
    0.0337    3.3998   -3.1250 H   0  0  0  0  0  0  0  0  0  0  0  0
   -1.0531    3.8457   -1.7930 H   0  0  0  0  0  0  0  0  0  0  0  0
  1  2  1  0  0  0  0
  2  3  1  0  0  0  0
  2  4  1  0  0  0  0
  2  5  1  0  0  0  0
  5  6  2  0  0  0  0
  5  7  1  0  0  0  0
  7  8  1  0  0  0  0
  7  9  1  0  0  0  0
  9 10  1  0  0  0  0
  9 11  1  0  0  0  0
  9 19  1  0  0  0  0
 11 12  1  0  0  0  0
 11 13  1  0  0  0  0
 11 17  1  0  0  0  0
 13 14  1  0  0  0  0
 13 15  1  0  0  0  0
 13 16  1  0  0  0  0
 17 18  1  0  0  0  0
 19 20  2  0  0  0  0
 19 21  1  0  0  0  0
 21 22  1  0  0  0  0
 21 23  1  0  0  0  0
 23 24  1  0  0  0  0
 23 25  1  0  0  0  0
 23 26  1  0  0  0  0
M  END
$$$$

  -OEChem-01062216093D

 26 25  0     1  0  0  0  0  0999 V2000
   -3.0725   -3.0547    1.4616 H   0  0  0  0  0  0  0  0  0  0  0  0
   -2.9846   -2.1491    0.8544 C   0  0  0  0  0  0  0  0  0  0  0  0
   -3.7997   -1.4697    1.1160 H   0  0  0  0  0  0  0  0  0  0  0  0
   -3.0702   -2.4232   -0.1998 H   0  0  0  0  0  0  0  0  0  0  0  0
   -1.6483   -1.4774    1.1089 C   0  0  0  0  0  0  0  0  0  0  0  0
   -0.8970   -1.9328    1.9553 O   0  0  0  0  0  0  0  0  0  0  0  0
   -1.3288   -0.3218    0.4268 N   0  0  0  0  0  0  0  0  0  0  0  0
   -2.0018   -0.0248   -0.2734 H   0  0  0  0  0  0  0  0  0  0  0  0
    0.0081    0.3075    0.3695 C   0  0  1  0  0  0  0  0  0  0  0  0
    0.4037    0.3642    1.3895 H   0  0  0  0  0  0  0  0  0  0  0  0
    1.0423   -0.4667   -0.5008 C   0  0  1  0  0  0  0  0  0  0  0  0
    1.9718    0.1133   -0.4734 H   0  0  0  0  0  0  0  0  0  0  0  0
    1.3863   -1.8729   -0.0156 C   0  0  0  0  0  0  0  0  0  0  0  0
    0.5510   -2.5597   -0.1778 H   0  0  0  0  0  0  0  0  0  0  0  0
    2.2543   -2.2567   -0.5592 H   0  0  0  0  0  0  0  0  0  0  0  0
    1.6321   -1.8582    1.0508 H   0  0  0  0  0  0  0  0  0  0  0  0
    0.6223   -0.5719   -1.8690 O   0  0  0  0  0  0  0  0  0  0  0  0
    1.2649   -1.1037   -2.3725 H   0  0  0  0  0  0  0  0  0  0  0  0
   -0.1037    1.7552   -0.1541 C   0  0  0  0  0  0  0  0  0  0  0  0
   -0.0518    2.6906    0.6332 O   0  0  0  0  0  0  0  0  0  0  0  0
   -0.3283    2.0224   -1.4921 N   0  0  0  0  0  0  0  0  0  0  0  0
   -0.2200    1.2242   -2.1193 H   0  0  0  0  0  0  0  0  0  0  0  0
   -0.3647    3.3668   -2.0530 C   0  0  0  0  0  0  0  0  0  0  0  0
    0.5978    3.8684   -1.9083 H   0  0  0  0  0  0  0  0  0  0  0  0
   -0.5757    3.3222   -3.1256 H   0  0  0  0  0  0  0  0  0  0  0  0
   -1.1485    3.9618   -1.5724 H   0  0  0  0  0  0  0  0  0  0  0  0
  1  2  1  0  0  0  0
  2  3  1  0  0  0  0
  2  4  1  0  0  0  0
  2  5  1  0  0  0  0
  5  6  2  0  0  0  0
  5  7  1  0  0  0  0
  7  8  1  0  0  0  0
  7  9  1  0  0  0  0
  9 10  1  0  0  0  0
  9 11  1  0  0  0  0
  9 19  1  0  0  0  0
 11 12  1  0  0  0  0
 11 13  1  0  0  0  0
 11 17  1  0  0  0  0
 13 14  1  0  0  0  0
 13 15  1  0  0  0  0
 13 16  1  0  0  0  0
 17 18  1  0  0  0  0
 19 20  2  0  0  0  0
 19 21  1  0  0  0  0
 21 22  1  0  0  0  0
 21 23  1  0  0  0  0
 23 24  1  0  0  0  0
 23 25  1  0  0  0  0
 23 26  1  0  0  0  0
M  END
$$$$

  -OEChem-01062216093D

 26 25  0     1  0  0  0  0  0999 V2000
   -3.0579   -3.0823    1.4779 H   0  0  0  0  0  0  0  0  0  0  0  0
   -2.9787   -2.1770    0.8694 C   0  0  0  0  0  0  0  0  0  0  0  0
   -3.8032   -1.5073    1.1260 H   0  0  0  0  0  0  0  0  0  0  0  0
   -3.0565   -2.4545   -0.1845 H   0  0  0  0  0  0  0  0  0  0  0  0
   -1.6519   -1.4881    1.1282 C   0  0  0  0  0  0  0  0  0  0  0  0
   -0.8966   -1.9321    1.9769 O   0  0  0  0  0  0  0  0  0  0  0  0
   -1.3425   -0.3314    0.4432 N   0  0  0  0  0  0  0  0  0  0  0  0
   -2.0155   -0.0413   -0.2597 H   0  0  0  0  0  0  0  0  0  0  0  0
   -0.0117    0.3123    0.3964 C   0  0  1  0  0  0  0  0  0  0  0  0
    0.3856    0.3648    1.4159 H   0  0  0  0  0  0  0  0  0  0  0  0
    1.0195   -0.4374   -0.4939 C   0  0  1  0  0  0  0  0  0  0  0  0
    1.9476    0.1447   -0.4618 H   0  0  0  0  0  0  0  0  0  0  0  0
    1.3681   -1.8537   -0.0418 C   0  0  0  0  0  0  0  0  0  0  0  0
    0.5291   -2.5354   -0.2061 H   0  0  0  0  0  0  0  0  0  0  0  0
    2.2280   -2.2278   -0.6047 H   0  0  0  0  0  0  0  0  0  0  0  0
    1.6278   -1.8607    1.0213 H   0  0  0  0  0  0  0  0  0  0  0  0
    0.5804   -0.5093   -1.8583 O   0  0  0  0  0  0  0  0  0  0  0  0
    1.2413   -0.9843   -2.3937 H   0  0  0  0  0  0  0  0  0  0  0  0
   -0.1257    1.7554   -0.1328 C   0  0  0  0  0  0  0  0  0  0  0  0
    0.1842    2.6972    0.5844 O   0  0  0  0  0  0  0  0  0  0  0  0
   -0.6353    2.0037   -1.3950 N   0  0  0  0  0  0  0  0  0  0  0  0
   -0.6338    1.1949   -2.0165 H   0  0  0  0  0  0  0  0  0  0  0  0
   -0.6731    3.3350   -1.9869 C   0  0  0  0  0  0  0  0  0  0  0  0
    0.3412    3.7286   -2.1103 H   0  0  0  0  0  0  0  0  0  0  0  0
   -1.1536    3.2968   -2.9691 H   0  0  0  0  0  0  0  0  0  0  0  0
   -1.2431    4.0217   -1.3521 H   0  0  0  0  0  0  0  0  0  0  0  0
  1  2  1  0  0  0  0
  2  3  1  0  0  0  0
  2  4  1  0  0  0  0
  2  5  1  0  0  0  0
  5  6  2  0  0  0  0
  5  7  1  0  0  0  0
  7  8  1  0  0  0  0
  7  9  1  0  0  0  0
  9 10  1  0  0  0  0
  9 11  1  0  0  0  0
  9 19  1  0  0  0  0
 11 12  1  0  0  0  0
 11 13  1  0  0  0  0
 11 17  1  0  0  0  0
 13 14  1  0  0  0  0
 13 15  1  0  0  0  0
 13 16  1  0  0  0  0
 17 18  1  0  0  0  0
 19 20  2  0  0  0  0
 19 21  1  0  0  0  0
 21 22  1  0  0  0  0
 21 23  1  0  0  0  0
 23 24  1  0  0  0  0
 23 25  1  0  0  0  0
 23 26  1  0  0  0  0
M  END
$$$$

  -OEChem-01062216093D

 26 25  0     1  0  0  0  0  0999 V2000
   -3.0416   -3.1135    1.4850 H   0  0  0  0  0  0  0  0  0  0  0  0
   -2.9779   -2.1978    0.8904 C   0  0  0  0  0  0  0  0  0  0  0  0
   -3.8041   -1.5393    1.1692 H   0  0  0  0  0  0  0  0  0  0  0  0
   -3.0675   -2.4587   -0.1668 H   0  0  0  0  0  0  0  0  0  0  0  0
   -1.6534   -1.5023    1.1429 C   0  0  0  0  0  0  0  0  0  0  0  0
   -0.8927   -1.9417    1.9891 O   0  0  0  0  0  0  0  0  0  0  0  0
   -1.3498   -0.3468    0.4532 N   0  0  0  0  0  0  0  0  0  0  0  0
   -2.0282   -0.0531   -0.2425 H   0  0  0  0  0  0  0  0  0  0  0  0
   -0.0250    0.3124    0.4206 C   0  0  1  0  0  0  0  0  0  0  0  0
    0.3718    0.3623    1.4403 H   0  0  0  0  0  0  0  0  0  0  0  0
    1.0022   -0.4184   -0.4845 C   0  0  1  0  0  0  0  0  0  0  0  0
    1.9302    0.1642   -0.4508 H   0  0  0  0  0  0  0  0  0  0  0  0
    1.3555   -1.8425   -0.0614 C   0  0  0  0  0  0  0  0  0  0  0  0
    0.5144   -2.5215   -0.2260 H   0  0  0  0  0  0  0  0  0  0  0  0
    2.2080   -2.2070   -0.6419 H   0  0  0  0  0  0  0  0  0  0  0  0
    1.6285   -1.8670    0.9982 H   0  0  0  0  0  0  0  0  0  0  0  0
    0.5410   -0.4593   -1.8428 O   0  0  0  0  0  0  0  0  0  0  0  0
    1.2061   -0.8955   -2.4050 H   0  0  0  0  0  0  0  0  0  0  0  0
   -0.1287    1.7514   -0.1184 C   0  0  0  0  0  0  0  0  0  0  0  0
    0.4078    2.6715    0.4847 O   0  0  0  0  0  0  0  0  0  0  0  0
   -0.8868    2.0220   -1.2451 N   0  0  0  0  0  0  0  0  0  0  0  0
   -1.0329    1.2182   -1.8530 H   0  0  0  0  0  0  0  0  0  0  0  0
   -0.9561    3.3514   -1.8391 C   0  0  0  0  0  0  0  0  0  0  0  0
    0.0364    3.6770   -2.1679 H   0  0  0  0  0  0  0  0  0  0  0  0
   -1.6250    3.3436   -2.7049 H   0  0  0  0  0  0  0  0  0  0  0  0
   -1.3422    4.0753   -1.1137 H   0  0  0  0  0  0  0  0  0  0  0  0
  1  2  1  0  0  0  0
  2  3  1  0  0  0  0
  2  4  1  0  0  0  0
  2  5  1  0  0  0  0
  5  6  2  0  0  0  0
  5  7  1  0  0  0  0
  7  8  1  0  0  0  0
  7  9  1  0  0  0  0
  9 10  1  0  0  0  0
  9 11  1  0  0  0  0
  9 19  1  0  0  0  0
 11 12  1  0  0  0  0
 11 13  1  0  0  0  0
 11 17  1  0  0  0  0
 13 14  1  0  0  0  0
 13 15  1  0  0  0  0
 13 16  1  0  0  0  0
 17 18  1  0  0  0  0
 19 20  2  0  0  0  0
 19 21  1  0  0  0  0
 21 22  1  0  0  0  0
 21 23  1  0  0  0  0
 23 24  1  0  0  0  0
 23 25  1  0  0  0  0
 23 26  1  0  0  0  0
M  END
$$$$

  -OEChem-01062216093D

 26 25  0     1  0  0  0  0  0999 V2000
   -2.9763   -3.1752    1.5078 H   0  0  0  0  0  0  0  0  0  0  0  0
   -2.9363   -2.2663    0.9006 C   0  0  0  0  0  0  0  0  0  0  0  0
   -3.7973   -1.6402    1.1471 H   0  0  0  0  0  0  0  0  0  0  0  0
   -2.9862   -2.5468   -0.1542 H   0  0  0  0  0  0  0  0  0  0  0  0
   -1.6503   -1.5105    1.1775 C   0  0  0  0  0  0  0  0  0  0  0  0
   -0.8949   -1.9035    2.0509 O   0  0  0  0  0  0  0  0  0  0  0  0
   -1.3733   -0.3569    0.4732 N   0  0  0  0  0  0  0  0  0  0  0  0
   -2.0256   -0.1326   -0.2696 H   0  0  0  0  0  0  0  0  0  0  0  0
   -0.0553    0.3190    0.4397 C   0  0  1  0  0  0  0  0  0  0  0  0
    0.3463    0.3706    1.4574 H   0  0  0  0  0  0  0  0  0  0  0  0
    0.9622   -0.4092   -0.4762 C   0  0  1  0  0  0  0  0  0  0  0  0
    1.8917    0.1718   -0.4554 H   0  0  0  0  0  0  0  0  0  0  0  0
    1.3196   -1.8357   -0.0636 C   0  0  0  0  0  0  0  0  0  0  0  0
    0.4768   -2.5139   -0.2204 H   0  0  0  0  0  0  0  0  0  0  0  0
    2.1637   -2.1981   -0.6571 H   0  0  0  0  0  0  0  0  0  0  0  0
    1.6067   -1.8648    0.9920 H   0  0  0  0  0  0  0  0  0  0  0  0
    0.4729   -0.4412   -1.8241 O   0  0  0  0  0  0  0  0  0  0  0  0
    1.1419   -0.8368   -2.4107 H   0  0  0  0  0  0  0  0  0  0  0  0
   -0.1377    1.7576   -0.1084 C   0  0  0  0  0  0  0  0  0  0  0  0
    0.6192    2.6150    0.3293 O   0  0  0  0  0  0  0  0  0  0  0  0
   -1.0979    2.1139   -1.0419 N   0  0  0  0  0  0  0  0  0  0  0  0
   -1.4791    1.3430   -1.5816 H   0  0  0  0  0  0  0  0  0  0  0  0
   -1.1570    3.4484   -1.6263 C   0  0  0  0  0  0  0  0  0  0  0  0
   -0.2395    3.6639   -2.1838 H   0  0  0  0  0  0  0  0  0  0  0  0
   -2.0071    3.5236   -2.3111 H   0  0  0  0  0  0  0  0  0  0  0  0
   -1.2793    4.2047   -0.8438 H   0  0  0  0  0  0  0  0  0  0  0  0
  1  2  1  0  0  0  0
  2  3  1  0  0  0  0
  2  4  1  0  0  0  0
  2  5  1  0  0  0  0
  5  6  2  0  0  0  0
  5  7  1  0  0  0  0
  7  8  1  0  0  0  0
  7  9  1  0  0  0  0
  9 10  1  0  0  0  0
  9 11  1  0  0  0  0
  9 19  1  0  0  0  0
 11 12  1  0  0  0  0
 11 13  1  0  0  0  0
 11 17  1  0  0  0  0
 13 14  1  0  0  0  0
 13 15  1  0  0  0  0
 13 16  1  0  0  0  0
 17 18  1  0  0  0  0
 19 20  2  0  0  0  0
 19 21  1  0  0  0  0
 21 22  1  0  0  0  0
 21 23  1  0  0  0  0
 23 24  1  0  0  0  0
 23 25  1  0  0  0  0
 23 26  1  0  0  0  0
M  END
$$$$

  -OEChem-01062216093D

 26 25  0     1  0  0  0  0  0999 V2000
   -2.8570   -3.2265    1.4976 H   0  0  0  0  0  0  0  0  0  0  0  0
   -2.8328   -2.3425    0.8538 C   0  0  0  0  0  0  0  0  0  0  0  0
   -3.7625   -1.7841    0.9873 H   0  0  0  0  0  0  0  0  0  0  0  0
   -2.7552   -2.6681   -0.1864 H   0  0  0  0  0  0  0  0  0  0  0  0
   -1.6467   -1.4680    1.2134 C   0  0  0  0  0  0  0  0  0  0  0  0
   -0.9405   -1.7656    2.1624 O   0  0  0  0  0  0  0  0  0  0  0  0
   -1.3991   -0.3233    0.4837 N   0  0  0  0  0  0  0  0  0  0  0  0
   -1.9305   -0.2808   -0.3794 H   0  0  0  0  0  0  0  0  0  0  0  0
   -0.0724    0.3342    0.4302 C   0  0  1  0  0  0  0  0  0  0  0  0
    0.3391    0.3931    1.4434 H   0  0  0  0  0  0  0  0  0  0  0  0
    0.9191   -0.4412   -0.4765 C   0  0  1  0  0  0  0  0  0  0  0  0
    1.8616    0.1184   -0.4843 H   0  0  0  0  0  0  0  0  0  0  0  0
    1.2559   -1.8638   -0.0312 C   0  0  0  0  0  0  0  0  0  0  0  0
    0.4058   -2.5355   -0.1763 H   0  0  0  0  0  0  0  0  0  0  0  0
    2.0976   -2.2488   -0.6140 H   0  0  0  0  0  0  0  0  0  0  0  0
    1.5398   -1.8740    1.0257 H   0  0  0  0  0  0  0  0  0  0  0  0
    0.4063   -0.4926   -1.8138 O   0  0  0  0  0  0  0  0  0  0  0  0
    1.0835   -0.8459   -2.4172 H   0  0  0  0  0  0  0  0  0  0  0  0
   -0.1235    1.7739   -0.1264 C   0  0  0  0  0  0  0  0  0  0  0  0
    0.8378    2.5169    0.0303 O   0  0  0  0  0  0  0  0  0  0  0  0
   -1.2318    2.2572   -0.8040 N   0  0  0  0  0  0  0  0  0  0  0  0
   -2.0242    1.6353   -0.9095 H   0  0  0  0  0  0  0  0  0  0  0  0
   -1.3167    3.6076   -1.3464 C   0  0  0  0  0  0  0  0  0  0  0  0
   -0.5265    3.7732   -2.0862 H   0  0  0  0  0  0  0  0  0  0  0  0
   -2.2840    3.7587   -1.8348 H   0  0  0  0  0  0  0  0  0  0  0  0
   -1.2134    4.3492   -0.5473 H   0  0  0  0  0  0  0  0  0  0  0  0
  1  2  1  0  0  0  0
  2  3  1  0  0  0  0
  2  4  1  0  0  0  0
  2  5  1  0  0  0  0
  5  6  2  0  0  0  0
  5  7  1  0  0  0  0
  7  8  1  0  0  0  0
  7  9  1  0  0  0  0
  9 10  1  0  0  0  0
  9 11  1  0  0  0  0
  9 19  1  0  0  0  0
 11 12  1  0  0  0  0
 11 13  1  0  0  0  0
 11 17  1  0  0  0  0
 13 14  1  0  0  0  0
 13 15  1  0  0  0  0
 13 16  1  0  0  0  0
 17 18  1  0  0  0  0
 19 20  2  0  0  0  0
 19 21  1  0  0  0  0
 21 22  1  0  0  0  0
 21 23  1  0  0  0  0
 23 24  1  0  0  0  0
 23 25  1  0  0  0  0
 23 26  1  0  0  0  0
M  END
$$$$

  -OEChem-01062216093D

 26 25  0     1  0  0  0  0  0999 V2000
   -2.8487   -3.2117    1.4900 H   0  0  0  0  0  0  0  0  0  0  0  0
   -2.8111   -2.3418    0.8282 C   0  0  0  0  0  0  0  0  0  0  0  0
   -3.7491   -1.7892    0.9191 H   0  0  0  0  0  0  0  0  0  0  0  0
   -2.6972   -2.6891   -0.2015 H   0  0  0  0  0  0  0  0  0  0  0  0
   -1.6439   -1.4497    1.2060 C   0  0  0  0  0  0  0  0  0  0  0  0
   -0.9553   -1.7274    2.1739 O   0  0  0  0  0  0  0  0  0  0  0  0
   -1.3900   -0.3093    0.4718 N   0  0  0  0  0  0  0  0  0  0  0  0
   -1.9011   -0.2816   -0.4061 H   0  0  0  0  0  0  0  0  0  0  0  0
   -0.0579    0.3376    0.4179 C   0  0  1  0  0  0  0  0  0  0  0  0
    0.3541    0.4027    1.4302 H   0  0  0  0  0  0  0  0  0  0  0  0
    0.9242   -0.4595   -0.4827 C   0  0  1  0  0  0  0  0  0  0  0  0
    1.8748    0.0855   -0.4965 H   0  0  0  0  0  0  0  0  0  0  0  0
    1.2440   -1.8832   -0.0276 C   0  0  0  0  0  0  0  0  0  0  0  0
    0.3876   -2.5471   -0.1709 H   0  0  0  0  0  0  0  0  0  0  0  0
    2.0825   -2.2805   -0.6066 H   0  0  0  0  0  0  0  0  0  0  0  0
    1.5255   -1.8898    1.0298 H   0  0  0  0  0  0  0  0  0  0  0  0
    0.4075   -0.5144   -1.8181 O   0  0  0  0  0  0  0  0  0  0  0  0
    1.0914   -0.8430   -2.4277 H   0  0  0  0  0  0  0  0  0  0  0  0
   -0.1173    1.7753   -0.1462 C   0  0  0  0  0  0  0  0  0  0  0  0
    0.9007    2.4531   -0.2265 O   0  0  0  0  0  0  0  0  0  0  0  0
   -1.3216    2.3367   -0.5394 N   0  0  0  0  0  0  0  0  0  0  0  0
   -2.1623    1.8151   -0.3155 H   0  0  0  0  0  0  0  0  0  0  0  0
   -1.4502    3.7141   -0.9995 C   0  0  0  0  0  0  0  0  0  0  0  0
   -0.8095    3.8885   -1.8704 H   0  0  0  0  0  0  0  0  0  0  0  0
   -2.4852    3.9211   -1.2877 H   0  0  0  0  0  0  0  0  0  0  0  0
   -1.1639    4.4118   -0.2056 H   0  0  0  0  0  0  0  0  0  0  0  0
  1  2  1  0  0  0  0
  2  3  1  0  0  0  0
  2  4  1  0  0  0  0
  2  5  1  0  0  0  0
  5  6  2  0  0  0  0
  5  7  1  0  0  0  0
  7  8  1  0  0  0  0
  7  9  1  0  0  0  0
  9 10  1  0  0  0  0
  9 11  1  0  0  0  0
  9 19  1  0  0  0  0
 11 12  1  0  0  0  0
 11 13  1  0  0  0  0
 11 17  1  0  0  0  0
 13 14  1  0  0  0  0
 13 15  1  0  0  0  0
 13 16  1  0  0  0  0
 17 18  1  0  0  0  0
 19 20  2  0  0  0  0
 19 21  1  0  0  0  0
 21 22  1  0  0  0  0
 21 23  1  0  0  0  0
 23 24  1  0  0  0  0
 23 25  1  0  0  0  0
 23 26  1  0  0  0  0
M  END
$$$$

  -OEChem-01062216093D

 26 25  0     1  0  0  0  0  0999 V2000
   -2.8799   -3.1815    1.4815 H   0  0  0  0  0  0  0  0  0  0  0  0
   -2.8220   -2.3185    0.8123 C   0  0  0  0  0  0  0  0  0  0  0  0
   -3.7507   -1.7482    0.8924 H   0  0  0  0  0  0  0  0  0  0  0  0
   -2.7081   -2.6769   -0.2137 H   0  0  0  0  0  0  0  0  0  0  0  0
   -1.6410   -1.4443    1.1894 C   0  0  0  0  0  0  0  0  0  0  0  0
   -0.9580   -1.7277    2.1597 O   0  0  0  0  0  0  0  0  0  0  0  0
   -1.3762   -0.3039    0.4598 N   0  0  0  0  0  0  0  0  0  0  0  0
   -1.8959   -0.2561   -0.4130 H   0  0  0  0  0  0  0  0  0  0  0  0
   -0.0420    0.3382    0.4045 C   0  0  1  0  0  0  0  0  0  0  0  0
    0.3698    0.4080    1.4164 H   0  0  0  0  0  0  0  0  0  0  0  0
    0.9388   -0.4713   -0.4887 C   0  0  1  0  0  0  0  0  0  0  0  0
    1.8925    0.0681   -0.5054 H   0  0  0  0  0  0  0  0  0  0  0  0
    1.2540   -1.8926   -0.0222 C   0  0  0  0  0  0  0  0  0  0  0  0
    0.3965   -2.5556   -0.1628 H   0  0  0  0  0  0  0  0  0  0  0  0
    2.0931   -2.2965   -0.5962 H   0  0  0  0  0  0  0  0  0  0  0  0
    1.5328   -1.8920    1.0361 H   0  0  0  0  0  0  0  0  0  0  0  0
    0.4229   -0.5342   -1.8240 O   0  0  0  0  0  0  0  0  0  0  0  0
    1.1112   -0.8525   -2.4340 H   0  0  0  0  0  0  0  0  0  0  0  0
   -0.1194    1.7763   -0.1594 C   0  0  0  0  0  0  0  0  0  0  0  0
    0.8925    2.4013   -0.4559 O   0  0  0  0  0  0  0  0  0  0  0  0
   -1.3434    2.4197   -0.2465 N   0  0  0  0  0  0  0  0  0  0  0  0
   -2.1367    1.9386    0.1663 H   0  0  0  0  0  0  0  0  0  0  0  0
   -1.4908    3.8172   -0.6342 C   0  0  0  0  0  0  0  0  0  0  0  0
   -1.0593    3.9872   -1.6262 H   0  0  0  0  0  0  0  0  0  0  0  0
   -2.5498    4.0902   -0.6687 H   0  0  0  0  0  0  0  0  0  0  0  0
   -0.9869    4.4699    0.0862 H   0  0  0  0  0  0  0  0  0  0  0  0
  1  2  1  0  0  0  0
  2  3  1  0  0  0  0
  2  4  1  0  0  0  0
  2  5  1  0  0  0  0
  5  6  2  0  0  0  0
  5  7  1  0  0  0  0
  7  8  1  0  0  0  0
  7  9  1  0  0  0  0
  9 10  1  0  0  0  0
  9 11  1  0  0  0  0
  9 19  1  0  0  0  0
 11 12  1  0  0  0  0
 11 13  1  0  0  0  0
 11 17  1  0  0  0  0
 13 14  1  0  0  0  0
 13 15  1  0  0  0  0
 13 16  1  0  0  0  0
 17 18  1  0  0  0  0
 19 20  2  0  0  0  0
 19 21  1  0  0  0  0
 21 22  1  0  0  0  0
 21 23  1  0  0  0  0
 23 24  1  0  0  0  0
 23 25  1  0  0  0  0
 23 26  1  0  0  0  0
M  END
$$$$

  -OEChem-01062216093D

 26 25  0     1  0  0  0  0  0999 V2000
   -2.8924   -3.1716    1.4671 H   0  0  0  0  0  0  0  0  0  0  0  0
   -2.8357   -2.3028    0.8052 C   0  0  0  0  0  0  0  0  0  0  0  0
   -3.7573   -1.7241    0.9039 H   0  0  0  0  0  0  0  0  0  0  0  0
   -2.7404   -2.6525   -0.2257 H   0  0  0  0  0  0  0  0  0  0  0  0
   -1.6414   -1.4433    1.1739 C   0  0  0  0  0  0  0  0  0  0  0  0
   -0.9585   -1.7324    2.1427 O   0  0  0  0  0  0  0  0  0  0  0  0
   -1.3712   -0.3010    0.4496 N   0  0  0  0  0  0  0  0  0  0  0  0
   -1.9049   -0.2313   -0.4134 H   0  0  0  0  0  0  0  0  0  0  0  0
   -0.0363    0.3384    0.3925 C   0  0  1  0  0  0  0  0  0  0  0  0
    0.3745    0.4101    1.4045 H   0  0  0  0  0  0  0  0  0  0  0  0
    0.9462   -0.4789   -0.4930 C   0  0  1  0  0  0  0  0  0  0  0  0
    1.8990    0.0619   -0.5103 H   0  0  0  0  0  0  0  0  0  0  0  0
    1.2636   -1.8956   -0.0151 C   0  0  0  0  0  0  0  0  0  0  0  0
    0.4080   -2.5611   -0.1546 H   0  0  0  0  0  0  0  0  0  0  0  0
    2.1052   -2.3015   -0.5835 H   0  0  0  0  0  0  0  0  0  0  0  0
    1.5391   -1.8875    1.0440 H   0  0  0  0  0  0  0  0  0  0  0  0
    0.4347   -0.5521   -1.8295 O   0  0  0  0  0  0  0  0  0  0  0  0
    1.1359   -0.8361   -2.4413 H   0  0  0  0  0  0  0  0  0  0  0  0
   -0.1282    1.7781   -0.1678 C   0  0  0  0  0  0  0  0  0  0  0  0
    0.8314    2.3461   -0.6776 O   0  0  0  0  0  0  0  0  0  0  0  0
   -1.2851    2.5090    0.0454 N   0  0  0  0  0  0  0  0  0  0  0  0
   -2.0085    2.0611    0.6010 H   0  0  0  0  0  0  0  0  0  0  0  0
   -1.4202    3.9221   -0.2870 C   0  0  0  0  0  0  0  0  0  0  0  0
   -1.2319    4.0846   -1.3535 H   0  0  0  0  0  0  0  0  0  0  0  0
   -2.4327    4.2688   -0.0596 H   0  0  0  0  0  0  0  0  0  0  0  0
   -0.7097    4.5212    0.2920 H   0  0  0  0  0  0  0  0  0  0  0  0
  1  2  1  0  0  0  0
  2  3  1  0  0  0  0
  2  4  1  0  0  0  0
  2  5  1  0  0  0  0
  5  6  2  0  0  0  0
  5  7  1  0  0  0  0
  7  8  1  0  0  0  0
  7  9  1  0  0  0  0
  9 10  1  0  0  0  0
  9 11  1  0  0  0  0
  9 19  1  0  0  0  0
 11 12  1  0  0  0  0
 11 13  1  0  0  0  0
 11 17  1  0  0  0  0
 13 14  1  0  0  0  0
 13 15  1  0  0  0  0
 13 16  1  0  0  0  0
 17 18  1  0  0  0  0
 19 20  2  0  0  0  0
 19 21  1  0  0  0  0
 21 22  1  0  0  0  0
 21 23  1  0  0  0  0
 23 24  1  0  0  0  0
 23 25  1  0  0  0  0
 23 26  1  0  0  0  0
M  END
$$$$

  -OEChem-01062216093D

 26 25  0     1  0  0  0  0  0999 V2000
   -2.8679   -3.1944    1.4162 H   0  0  0  0  0  0  0  0  0  0  0  0
   -2.8392   -2.2969    0.7917 C   0  0  0  0  0  0  0  0  0  0  0  0
   -3.7643   -1.7347    0.9392 H   0  0  0  0  0  0  0  0  0  0  0  0
   -2.7673   -2.6003   -0.2556 H   0  0  0  0  0  0  0  0  0  0  0  0
   -1.6450   -1.4394    1.1658 C   0  0  0  0  0  0  0  0  0  0  0  0
   -0.9650   -1.7312    2.1360 O   0  0  0  0  0  0  0  0  0  0  0  0
   -1.3725   -0.2929    0.4493 N   0  0  0  0  0  0  0  0  0  0  0  0
   -1.9155   -0.2079   -0.4065 H   0  0  0  0  0  0  0  0  0  0  0  0
   -0.0363    0.3411    0.3884 C   0  0  1  0  0  0  0  0  0  0  0  0
    0.3770    0.4097    1.3995 H   0  0  0  0  0  0  0  0  0  0  0  0
    0.9440   -0.4854   -0.4925 C   0  0  1  0  0  0  0  0  0  0  0  0
    1.8955    0.0579   -0.5124 H   0  0  0  0  0  0  0  0  0  0  0  0
    1.2640   -1.8984   -0.0055 C   0  0  0  0  0  0  0  0  0  0  0  0
    0.4101   -2.5667   -0.1427 H   0  0  0  0  0  0  0  0  0  0  0  0
    2.1073   -2.3056   -0.5708 H   0  0  0  0  0  0  0  0  0  0  0  0
    1.5380   -1.8834    1.0539 H   0  0  0  0  0  0  0  0  0  0  0  0
    0.4363   -0.5688   -1.8298 O   0  0  0  0  0  0  0  0  0  0  0  0
    1.1514   -0.8021   -2.4466 H   0  0  0  0  0  0  0  0  0  0  0  0
   -0.1353    1.7847   -0.1611 C   0  0  0  0  0  0  0  0  0  0  0  0
    0.7178    2.2881   -0.8838 O   0  0  0  0  0  0  0  0  0  0  0  0
   -1.1378    2.6042    0.3287 N   0  0  0  0  0  0  0  0  0  0  0  0
   -1.7732    2.1944    1.0081 H   0  0  0  0  0  0  0  0  0  0  0  0
   -1.2522    4.0232    0.0138 C   0  0  0  0  0  0  0  0  0  0  0  0
   -1.3428    4.1697   -1.0677 H   0  0  0  0  0  0  0  0  0  0  0  0
   -2.1391    4.4472    0.4943 H   0  0  0  0  0  0  0  0  0  0  0  0
   -0.3713    4.5670    0.3708 H   0  0  0  0  0  0  0  0  0  0  0  0
  1  2  1  0  0  0  0
  2  3  1  0  0  0  0
  2  4  1  0  0  0  0
  2  5  1  0  0  0  0
  5  6  2  0  0  0  0
  5  7  1  0  0  0  0
  7  8  1  0  0  0  0
  7  9  1  0  0  0  0
  9 10  1  0  0  0  0
  9 11  1  0  0  0  0
  9 19  1  0  0  0  0
 11 12  1  0  0  0  0
 11 13  1  0  0  0  0
 11 17  1  0  0  0  0
 13 14  1  0  0  0  0
 13 15  1  0  0  0  0
 13 16  1  0  0  0  0
 17 18  1  0  0  0  0
 19 20  2  0  0  0  0
 19 21  1  0  0  0  0
 21 22  1  0  0  0  0
 21 23  1  0  0  0  0
 23 24  1  0  0  0  0
 23 25  1  0  0  0  0
 23 26  1  0  0  0  0
M  END
$$$$

  -OEChem-01062216093D

 26 25  0     1  0  0  0  0  0999 V2000
   -2.9049   -3.1665    1.4244 H   0  0  0  0  0  0  0  0  0  0  0  0
   -2.8491   -2.2847    0.7799 C   0  0  0  0  0  0  0  0  0  0  0  0
   -3.7668   -1.7035    0.8970 H   0  0  0  0  0  0  0  0  0  0  0  0
   -2.7632   -2.6136   -0.2586 H   0  0  0  0  0  0  0  0  0  0  0  0
   -1.6476   -1.4382    1.1552 C   0  0  0  0  0  0  0  0  0  0  0  0
   -0.9656   -1.7393    2.1214 O   0  0  0  0  0  0  0  0  0  0  0  0
   -1.3748   -0.2855    0.4496 N   0  0  0  0  0  0  0  0  0  0  0  0
   -1.9295   -0.1847   -0.3972 H   0  0  0  0  0  0  0  0  0  0  0  0
   -0.0383    0.3435    0.3795 C   0  0  1  0  0  0  0  0  0  0  0  0
    0.3806    0.4053    1.3889 H   0  0  0  0  0  0  0  0  0  0  0  0
    0.9395   -0.4910   -0.4981 C   0  0  1  0  0  0  0  0  0  0  0  0
    1.8855    0.0617   -0.5261 H   0  0  0  0  0  0  0  0  0  0  0  0
    1.2730   -1.8958    0.0035 C   0  0  0  0  0  0  0  0  0  0  0  0
    0.4237   -2.5724   -0.1206 H   0  0  0  0  0  0  0  0  0  0  0  0
    2.1155   -2.3033   -0.5624 H   0  0  0  0  0  0  0  0  0  0  0  0
    1.5531   -1.8665    1.0609 H   0  0  0  0  0  0  0  0  0  0  0  0
    0.4371   -0.5909   -1.8362 O   0  0  0  0  0  0  0  0  0  0  0  0
    1.1601   -0.7947   -2.4538 H   0  0  0  0  0  0  0  0  0  0  0  0
   -0.1417    1.7930   -0.1530 C   0  0  0  0  0  0  0  0  0  0  0  0
    0.5398    2.2352   -1.0711 O   0  0  0  0  0  0  0  0  0  0  0  0
   -0.9113    2.6872    0.5707 N   0  0  0  0  0  0  0  0  0  0  0  0
   -1.4267    2.3148    1.3640 H   0  0  0  0  0  0  0  0  0  0  0  0
   -1.0070    4.1099    0.2667 C   0  0  0  0  0  0  0  0  0  0  0  0
   -1.3810    4.2600   -0.7515 H   0  0  0  0  0  0  0  0  0  0  0  0
   -1.6951    4.5991    0.9627 H   0  0  0  0  0  0  0  0  0  0  0  0
   -0.0257    4.5878    0.3565 H   0  0  0  0  0  0  0  0  0  0  0  0
  1  2  1  0  0  0  0
  2  3  1  0  0  0  0
  2  4  1  0  0  0  0
  2  5  1  0  0  0  0
  5  6  2  0  0  0  0
  5  7  1  0  0  0  0
  7  8  1  0  0  0  0
  7  9  1  0  0  0  0
  9 10  1  0  0  0  0
  9 11  1  0  0  0  0
  9 19  1  0  0  0  0
 11 12  1  0  0  0  0
 11 13  1  0  0  0  0
 11 17  1  0  0  0  0
 13 14  1  0  0  0  0
 13 15  1  0  0  0  0
 13 16  1  0  0  0  0
 17 18  1  0  0  0  0
 19 20  2  0  0  0  0
 19 21  1  0  0  0  0
 21 22  1  0  0  0  0
 21 23  1  0  0  0  0
 23 24  1  0  0  0  0
 23 25  1  0  0  0  0
 23 26  1  0  0  0  0
M  END
$$$$

  -OEChem-01062216093D

 26 25  0     1  0  0  0  0  0999 V2000
   -2.8937   -3.1891    1.3675 H   0  0  0  0  0  0  0  0  0  0  0  0
   -2.8627   -2.2776    0.7641 C   0  0  0  0  0  0  0  0  0  0  0  0
   -3.7801   -1.7094    0.9350 H   0  0  0  0  0  0  0  0  0  0  0  0
   -2.8051   -2.5571   -0.2909 H   0  0  0  0  0  0  0  0  0  0  0  0
   -1.6560   -1.4406    1.1441 C   0  0  0  0  0  0  0  0  0  0  0  0
   -0.9713   -1.7559    2.1043 O   0  0  0  0  0  0  0  0  0  0  0  0
   -1.3825   -0.2795    0.4532 N   0  0  0  0  0  0  0  0  0  0  0  0
   -1.9464   -0.1599   -0.3852 H   0  0  0  0  0  0  0  0  0  0  0  0
   -0.0451    0.3442    0.3786 C   0  0  1  0  0  0  0  0  0  0  0  0
    0.3753    0.3927    1.3878 H   0  0  0  0  0  0  0  0  0  0  0  0
    0.9363   -0.4918   -0.4956 C   0  0  1  0  0  0  0  0  0  0  0  0
    1.8759    0.0716   -0.5238 H   0  0  0  0  0  0  0  0  0  0  0  0
    1.2814   -1.8902    0.0153 C   0  0  0  0  0  0  0  0  0  0  0  0
    0.4386   -2.5748   -0.1091 H   0  0  0  0  0  0  0  0  0  0  0  0
    2.1303   -2.2929   -0.5445 H   0  0  0  0  0  0  0  0  0  0  0  0
    1.5564   -1.8530    1.0737 H   0  0  0  0  0  0  0  0  0  0  0  0
    0.4495   -0.6064   -1.8375 O   0  0  0  0  0  0  0  0  0  0  0  0
    1.1801   -0.7965   -2.4500 H   0  0  0  0  0  0  0  0  0  0  0  0
   -0.1401    1.8028   -0.1316 C   0  0  0  0  0  0  0  0  0  0  0  0
    0.2867    2.1851   -1.2146 O   0  0  0  0  0  0  0  0  0  0  0  0
   -0.6135    2.7600    0.7491 N   0  0  0  0  0  0  0  0  0  0  0  0
   -0.9666    2.4312    1.6440 H   0  0  0  0  0  0  0  0  0  0  0  0
   -0.6994    4.1810    0.4340 C   0  0  0  0  0  0  0  0  0  0  0  0
   -1.3527    4.3432   -0.4296 H   0  0  0  0  0  0  0  0  0  0  0  0
   -1.1086    4.7325    1.2859 H   0  0  0  0  0  0  0  0  0  0  0  0
    0.2931    4.5839    0.2066 H   0  0  0  0  0  0  0  0  0  0  0  0
  1  2  1  0  0  0  0
  2  3  1  0  0  0  0
  2  4  1  0  0  0  0
  2  5  1  0  0  0  0
  5  6  2  0  0  0  0
  5  7  1  0  0  0  0
  7  8  1  0  0  0  0
  7  9  1  0  0  0  0
  9 10  1  0  0  0  0
  9 11  1  0  0  0  0
  9 19  1  0  0  0  0
 11 12  1  0  0  0  0
 11 13  1  0  0  0  0
 11 17  1  0  0  0  0
 13 14  1  0  0  0  0
 13 15  1  0  0  0  0
 13 16  1  0  0  0  0
 17 18  1  0  0  0  0
 19 20  2  0  0  0  0
 19 21  1  0  0  0  0
 21 22  1  0  0  0  0
 21 23  1  0  0  0  0
 23 24  1  0  0  0  0
 23 25  1  0  0  0  0
 23 26  1  0  0  0  0
M  END
$$$$

  -OEChem-01062216093D

 26 25  0     1  0  0  0  0  0999 V2000
   -2.9503   -3.1499    1.3423 H   0  0  0  0  0  0  0  0  0  0  0  0
   -2.9006   -2.2314    0.7509 C   0  0  0  0  0  0  0  0  0  0  0  0
   -3.7968   -1.6375    0.9451 H   0  0  0  0  0  0  0  0  0  0  0  0
   -2.8697   -2.4972   -0.3086 H   0  0  0  0  0  0  0  0  0  0  0  0
   -1.6623   -1.4377    1.1220 C   0  0  0  0  0  0  0  0  0  0  0  0
   -0.9714   -1.7899    2.0650 O   0  0  0  0  0  0  0  0  0  0  0  0
   -1.3704   -0.2695    0.4515 N   0  0  0  0  0  0  0  0  0  0  0  0
   -1.9457   -0.1082   -0.3723 H   0  0  0  0  0  0  0  0  0  0  0  0
   -0.0267    0.3367    0.3796 C   0  0  1  0  0  0  0  0  0  0  0  0
    0.3878    0.3659    1.3921 H   0  0  0  0  0  0  0  0  0  0  0  0
    0.9680   -0.4865   -0.4917 C   0  0  1  0  0  0  0  0  0  0  0  0
    1.9056    0.0802   -0.5004 H   0  0  0  0  0  0  0  0  0  0  0  0
    1.3052   -1.8875    0.0166 C   0  0  0  0  0  0  0  0  0  0  0  0
    0.4625   -2.5694   -0.1244 H   0  0  0  0  0  0  0  0  0  0  0  0
    2.1618   -2.2889   -0.5322 H   0  0  0  0  0  0  0  0  0  0  0  0
    1.5642   -1.8569    1.0793 H   0  0  0  0  0  0  0  0  0  0  0  0
    0.5119   -0.5993   -1.8430 O   0  0  0  0  0  0  0  0  0  0  0  0
    1.2358   -0.8724   -2.4309 H   0  0  0  0  0  0  0  0  0  0  0  0
   -0.1088    1.8033   -0.1054 C   0  0  0  0  0  0  0  0  0  0  0  0
   -0.0960    2.1347   -1.2840 O   0  0  0  0  0  0  0  0  0  0  0  0
   -0.2512    2.7987    0.8465 N   0  0  0  0  0  0  0  0  0  0  0  0
   -0.3490    2.5054    1.8148 H   0  0  0  0  0  0  0  0  0  0  0  0
   -0.3975    4.2126    0.5210 C   0  0  0  0  0  0  0  0  0  0  0  0
   -1.3050    4.3788   -0.0690 H   0  0  0  0  0  0  0  0  0  0  0  0
   -0.4665    4.8061    1.4377 H   0  0  0  0  0  0  0  0  0  0  0  0
    0.4661    4.5648   -0.0531 H   0  0  0  0  0  0  0  0  0  0  0  0
  1  2  1  0  0  0  0
  2  3  1  0  0  0  0
  2  4  1  0  0  0  0
  2  5  1  0  0  0  0
  5  6  2  0  0  0  0
  5  7  1  0  0  0  0
  7  8  1  0  0  0  0
  7  9  1  0  0  0  0
  9 10  1  0  0  0  0
  9 11  1  0  0  0  0
  9 19  1  0  0  0  0
 11 12  1  0  0  0  0
 11 13  1  0  0  0  0
 11 17  1  0  0  0  0
 13 14  1  0  0  0  0
 13 15  1  0  0  0  0
 13 16  1  0  0  0  0
 17 18  1  0  0  0  0
 19 20  2  0  0  0  0
 19 21  1  0  0  0  0
 21 22  1  0  0  0  0
 21 23  1  0  0  0  0
 23 24  1  0  0  0  0
 23 25  1  0  0  0  0
 23 26  1  0  0  0  0
M  END
$$$$

  -OEChem-01062216093D

 26 25  0     1  0  0  0  0  0999 V2000
   -3.0431   -3.0623    1.3664 H   0  0  0  0  0  0  0  0  0  0  0  0
   -2.9375   -2.1682    0.7456 C   0  0  0  0  0  0  0  0  0  0  0  0
   -3.8056   -1.5239    0.9042 H   0  0  0  0  0  0  0  0  0  0  0  0
   -2.9032   -2.4705   -0.3039 H   0  0  0  0  0  0  0  0  0  0  0  0
   -1.6667   -1.4246    1.1105 C   0  0  0  0  0  0  0  0  0  0  0  0
   -0.9707   -1.8197    2.0329 O   0  0  0  0  0  0  0  0  0  0  0  0
   -1.3409   -0.2620    0.4471 N   0  0  0  0  0  0  0  0  0  0  0  0
   -1.9249   -0.0509   -0.3599 H   0  0  0  0  0  0  0  0  0  0  0  0
    0.0112    0.3231    0.3887 C   0  0  1  0  0  0  0  0  0  0  0  0
    0.4127    0.3416    1.4062 H   0  0  0  0  0  0  0  0  0  0  0  0
    1.0163   -0.4824   -0.4830 C   0  0  1  0  0  0  0  0  0  0  0  0
    1.9592    0.0751   -0.4651 H   0  0  0  0  0  0  0  0  0  0  0  0
    1.3259   -1.8968    0.0046 C   0  0  0  0  0  0  0  0  0  0  0  0
    0.4723   -2.5617   -0.1526 H   0  0  0  0  0  0  0  0  0  0  0  0
    2.1798   -2.3042   -0.5444 H   0  0  0  0  0  0  0  0  0  0  0  0
    1.5770   -1.8874    1.0696 H   0  0  0  0  0  0  0  0  0  0  0  0
    0.5819   -0.5677   -1.8420 O   0  0  0  0  0  0  0  0  0  0  0  0
    1.2797   -0.9385   -2.4073 H   0  0  0  0  0  0  0  0  0  0  0  0
   -0.0588    1.7871   -0.0970 C   0  0  0  0  0  0  0  0  0  0  0  0
   -0.4624    2.0870   -1.2142 O   0  0  0  0  0  0  0  0  0  0  0  0
    0.1173    2.8054    0.8248 N   0  0  0  0  0  0  0  0  0  0  0  0
    0.2994    2.5366    1.7876 H   0  0  0  0  0  0  0  0  0  0  0  0
   -0.1085    4.2137    0.5214 C   0  0  0  0  0  0  0  0  0  0  0  0
   -1.1645    4.3917    0.2930 H   0  0  0  0  0  0  0  0  0  0  0  0
    0.1714    4.8339    1.3782 H   0  0  0  0  0  0  0  0  0  0  0  0
    0.4956    4.5230   -0.3382 H   0  0  0  0  0  0  0  0  0  0  0  0
  1  2  1  0  0  0  0
  2  3  1  0  0  0  0
  2  4  1  0  0  0  0
  2  5  1  0  0  0  0
  5  6  2  0  0  0  0
  5  7  1  0  0  0  0
  7  8  1  0  0  0  0
  7  9  1  0  0  0  0
  9 10  1  0  0  0  0
  9 11  1  0  0  0  0
  9 19  1  0  0  0  0
 11 12  1  0  0  0  0
 11 13  1  0  0  0  0
 11 17  1  0  0  0  0
 13 14  1  0  0  0  0
 13 15  1  0  0  0  0
 13 16  1  0  0  0  0
 17 18  1  0  0  0  0
 19 20  2  0  0  0  0
 19 21  1  0  0  0  0
 21 22  1  0  0  0  0
 21 23  1  0  0  0  0
 23 24  1  0  0  0  0
 23 25  1  0  0  0  0
 23 26  1  0  0  0  0
M  END
$$$$

  -OEChem-01062216093D

 26 25  0     1  0  0  0  0  0999 V2000
   -3.0800   -3.0375    1.3724 H   0  0  0  0  0  0  0  0  0  0  0  0
   -2.9657   -2.1378    0.7614 C   0  0  0  0  0  0  0  0  0  0  0  0
   -3.8132   -1.4739    0.9483 H   0  0  0  0  0  0  0  0  0  0  0  0
   -2.9625   -2.4258   -0.2927 H   0  0  0  0  0  0  0  0  0  0  0  0
   -1.6686   -1.4315    1.1072 C   0  0  0  0  0  0  0  0  0  0  0  0
   -0.9648   -1.8540    2.0116 O   0  0  0  0  0  0  0  0  0  0  0  0
   -1.3230   -0.2754    0.4429 N   0  0  0  0  0  0  0  0  0  0  0  0
   -1.9189   -0.0234   -0.3441 H   0  0  0  0  0  0  0  0  0  0  0  0
    0.0291    0.3099    0.4007 C   0  0  1  0  0  0  0  0  0  0  0  0
    0.4187    0.3305    1.4229 H   0  0  0  0  0  0  0  0  0  0  0  0
    1.0452   -0.4741   -0.4747 C   0  0  1  0  0  0  0  0  0  0  0  0
    1.9898    0.0796   -0.4368 H   0  0  0  0  0  0  0  0  0  0  0  0
    1.3412   -1.8992   -0.0105 C   0  0  0  0  0  0  0  0  0  0  0  0
    0.4816   -2.5530   -0.1810 H   0  0  0  0  0  0  0  0  0  0  0  0
    2.1933   -2.3053   -0.5630 H   0  0  0  0  0  0  0  0  0  0  0  0
    1.5883   -1.9103    1.0555 H   0  0  0  0  0  0  0  0  0  0  0  0
    0.6183   -0.5326   -1.8374 O   0  0  0  0  0  0  0  0  0  0  0  0
    1.2978   -0.9440   -2.3972 H   0  0  0  0  0  0  0  0  0  0  0  0
   -0.0427    1.7678   -0.0992 C   0  0  0  0  0  0  0  0  0  0  0  0
   -0.7005    2.0690   -1.0895 O   0  0  0  0  0  0  0  0  0  0  0  0
    0.4153    2.7890    0.7165 N   0  0  0  0  0  0  0  0  0  0  0  0
    0.8223    2.5287    1.6101 H   0  0  0  0  0  0  0  0  0  0  0  0
    0.2083    4.2026    0.4252 C   0  0  0  0  0  0  0  0  0  0  0  0
   -0.8597    4.4440    0.4385 H   0  0  0  0  0  0  0  0  0  0  0  0
    0.7132    4.8204    1.1738 H   0  0  0  0  0  0  0  0  0  0  0  0
    0.6148    4.4550   -0.5598 H   0  0  0  0  0  0  0  0  0  0  0  0
  1  2  1  0  0  0  0
  2  3  1  0  0  0  0
  2  4  1  0  0  0  0
  2  5  1  0  0  0  0
  5  6  2  0  0  0  0
  5  7  1  0  0  0  0
  7  8  1  0  0  0  0
  7  9  1  0  0  0  0
  9 10  1  0  0  0  0
  9 11  1  0  0  0  0
  9 19  1  0  0  0  0
 11 12  1  0  0  0  0
 11 13  1  0  0  0  0
 11 17  1  0  0  0  0
 13 14  1  0  0  0  0
 13 15  1  0  0  0  0
 13 16  1  0  0  0  0
 17 18  1  0  0  0  0
 19 20  2  0  0  0  0
 19 21  1  0  0  0  0
 21 22  1  0  0  0  0
 21 23  1  0  0  0  0
 23 24  1  0  0  0  0
 23 25  1  0  0  0  0
 23 26  1  0  0  0  0
M  END
$$$$

  -OEChem-01062216093D

 26 25  0     1  0  0  0  0  0999 V2000
   -3.0864   -3.0505    1.3701 H   0  0  0  0  0  0  0  0  0  0  0  0
   -2.9806   -2.1375    0.7777 C   0  0  0  0  0  0  0  0  0  0  0  0
   -3.8181   -1.4721    1.0007 H   0  0  0  0  0  0  0  0  0  0  0  0
   -3.0053   -2.4009   -0.2826 H   0  0  0  0  0  0  0  0  0  0  0  0
   -1.6705   -1.4482    1.1081 C   0  0  0  0  0  0  0  0  0  0  0  0
   -0.9577   -1.8855    1.9984 O   0  0  0  0  0  0  0  0  0  0  0  0
   -1.3201   -0.2945    0.4424 N   0  0  0  0  0  0  0  0  0  0  0  0
   -1.9324   -0.0106   -0.3210 H   0  0  0  0  0  0  0  0  0  0  0  0
    0.0263    0.3047    0.4128 C   0  0  1  0  0  0  0  0  0  0  0  0
    0.4078    0.3313    1.4378 H   0  0  0  0  0  0  0  0  0  0  0  0
    1.0516   -0.4597   -0.4669 C   0  0  1  0  0  0  0  0  0  0  0  0
    1.9940    0.0971   -0.4195 H   0  0  0  0  0  0  0  0  0  0  0  0
    1.3507   -1.8896   -0.0211 C   0  0  0  0  0  0  0  0  0  0  0  0
    0.4929   -2.5432   -0.2019 H   0  0  0  0  0  0  0  0  0  0  0  0
    2.2051   -2.2861   -0.5772 H   0  0  0  0  0  0  0  0  0  0  0  0
    1.5952   -1.9140    1.0452 H   0  0  0  0  0  0  0  0  0  0  0  0
    0.6239   -0.5017   -1.8300 O   0  0  0  0  0  0  0  0  0  0  0  0
    1.2898   -0.9348   -2.3900 H   0  0  0  0  0  0  0  0  0  0  0  0
   -0.0491    1.7578   -0.0990 C   0  0  0  0  0  0  0  0  0  0  0  0
   -0.8718    2.0864   -0.9483 O   0  0  0  0  0  0  0  0  0  0  0  0
    0.6586    2.7514    0.5564 N   0  0  0  0  0  0  0  0  0  0  0  0
    1.2468    2.4744    1.3367 H   0  0  0  0  0  0  0  0  0  0  0  0
    0.5269    4.1694    0.2439 C   0  0  0  0  0  0  0  0  0  0  0  0
   -0.4945    4.5119    0.4400 H   0  0  0  0  0  0  0  0  0  0  0  0
    1.2139    4.7571    0.8602 H   0  0  0  0  0  0  0  0  0  0  0  0
    0.7647    4.3533   -0.8091 H   0  0  0  0  0  0  0  0  0  0  0  0
  1  2  1  0  0  0  0
  2  3  1  0  0  0  0
  2  4  1  0  0  0  0
  2  5  1  0  0  0  0
  5  6  2  0  0  0  0
  5  7  1  0  0  0  0
  7  8  1  0  0  0  0
  7  9  1  0  0  0  0
  9 10  1  0  0  0  0
  9 11  1  0  0  0  0
  9 19  1  0  0  0  0
 11 12  1  0  0  0  0
 11 13  1  0  0  0  0
 11 17  1  0  0  0  0
 13 14  1  0  0  0  0
 13 15  1  0  0  0  0
 13 16  1  0  0  0  0
 17 18  1  0  0  0  0
 19 20  2  0  0  0  0
 19 21  1  0  0  0  0
 21 22  1  0  0  0  0
 21 23  1  0  0  0  0
 23 24  1  0  0  0  0
 23 25  1  0  0  0  0
 23 26  1  0  0  0  0
M  END
$$$$

  -OEChem-01062216093D

 26 25  0     1  0  0  0  0  0999 V2000
   -3.1108   -3.0418    1.3857 H   0  0  0  0  0  0  0  0  0  0  0  0
   -2.9970   -2.1290    0.7944 C   0  0  0  0  0  0  0  0  0  0  0  0
   -3.8167   -1.4477    1.0352 H   0  0  0  0  0  0  0  0  0  0  0  0
   -3.0466   -2.3876   -0.2661 H   0  0  0  0  0  0  0  0  0  0  0  0
   -1.6673   -1.4677    1.1029 C   0  0  0  0  0  0  0  0  0  0  0  0
   -0.9458   -1.9257    1.9756 O   0  0  0  0  0  0  0  0  0  0  0  0
   -1.3108   -0.3142    0.4403 N   0  0  0  0  0  0  0  0  0  0  0  0
   -1.9429    0.0072   -0.2918 H   0  0  0  0  0  0  0  0  0  0  0  0
    0.0300    0.2994    0.4251 C   0  0  1  0  0  0  0  0  0  0  0  0
    0.4064    0.3297    1.4521 H   0  0  0  0  0  0  0  0  0  0  0  0
    1.0610   -0.4498   -0.4610 C   0  0  1  0  0  0  0  0  0  0  0  0
    2.0033    0.1065   -0.4067 H   0  0  0  0  0  0  0  0  0  0  0  0
    1.3630   -1.8846   -0.0345 C   0  0  0  0  0  0  0  0  0  0  0  0
    0.5067   -2.5377   -0.2236 H   0  0  0  0  0  0  0  0  0  0  0  0
    2.2182   -2.2716   -0.5959 H   0  0  0  0  0  0  0  0  0  0  0  0
    1.6077   -1.9221    1.0314 H   0  0  0  0  0  0  0  0  0  0  0  0
    0.6310   -0.4756   -1.8240 O   0  0  0  0  0  0  0  0  0  0  0  0
    1.2827   -0.9302   -2.3839 H   0  0  0  0  0  0  0  0  0  0  0  0
   -0.0524    1.7502   -0.0941 C   0  0  0  0  0  0  0  0  0  0  0  0
   -0.9984    2.1206   -0.7838 O   0  0  0  0  0  0  0  0  0  0  0  0
    0.8567    2.6953    0.3512 N   0  0  0  0  0  0  0  0  0  0  0  0
    1.5849    2.3875    0.9886 H   0  0  0  0  0  0  0  0  0  0  0  0
    0.7829    4.1075   -0.0039 C   0  0  0  0  0  0  0  0  0  0  0  0
   -0.1522    4.5459    0.3603 H   0  0  0  0  0  0  0  0  0  0  0  0
    1.6188    4.6539    0.4435 H   0  0  0  0  0  0  0  0  0  0  0  0
    0.8313    4.2322   -1.0909 H   0  0  0  0  0  0  0  0  0  0  0  0
  1  2  1  0  0  0  0
  2  3  1  0  0  0  0
  2  4  1  0  0  0  0
  2  5  1  0  0  0  0
  5  6  2  0  0  0  0
  5  7  1  0  0  0  0
  7  8  1  0  0  0  0
  7  9  1  0  0  0  0
  9 10  1  0  0  0  0
  9 11  1  0  0  0  0
  9 19  1  0  0  0  0
 11 12  1  0  0  0  0
 11 13  1  0  0  0  0
 11 17  1  0  0  0  0
 13 14  1  0  0  0  0
 13 15  1  0  0  0  0
 13 16  1  0  0  0  0
 17 18  1  0  0  0  0
 19 20  2  0  0  0  0
 19 21  1  0  0  0  0
 21 22  1  0  0  0  0
 21 23  1  0  0  0  0
 23 24  1  0  0  0  0
 23 25  1  0  0  0  0
 23 26  1  0  0  0  0
M  END
$$$$

  -OEChem-01062216093D

 26 25  0     1  0  0  0  0  0999 V2000
   -3.1109   -3.0550    1.3742 H   0  0  0  0  0  0  0  0  0  0  0  0
   -3.0065   -2.1265    0.8061 C   0  0  0  0  0  0  0  0  0  0  0  0
   -3.8137   -1.4465    1.0892 H   0  0  0  0  0  0  0  0  0  0  0  0
   -3.0882   -2.3547   -0.2593 H   0  0  0  0  0  0  0  0  0  0  0  0
   -1.6633   -1.4840    1.0963 C   0  0  0  0  0  0  0  0  0  0  0  0
   -0.9338   -1.9589    1.9531 O   0  0  0  0  0  0  0  0  0  0  0  0
   -1.3045   -0.3274    0.4399 N   0  0  0  0  0  0  0  0  0  0  0  0
   -1.9568    0.0302   -0.2565 H   0  0  0  0  0  0  0  0  0  0  0  0
    0.0321    0.2980    0.4372 C   0  0  1  0  0  0  0  0  0  0  0  0
    0.4061    0.3278    1.4649 H   0  0  0  0  0  0  0  0  0  0  0  0
    1.0653   -0.4432   -0.4555 C   0  0  1  0  0  0  0  0  0  0  0  0
    2.0087    0.1101   -0.3979 H   0  0  0  0  0  0  0  0  0  0  0  0
    1.3690   -1.8818   -0.0427 C   0  0  0  0  0  0  0  0  0  0  0  0
    0.5140   -2.5344   -0.2395 H   0  0  0  0  0  0  0  0  0  0  0  0
    2.2255   -2.2625   -0.6065 H   0  0  0  0  0  0  0  0  0  0  0  0
    1.6125   -1.9293    1.0232 H   0  0  0  0  0  0  0  0  0  0  0  0
    0.6319   -0.4567   -1.8182 O   0  0  0  0  0  0  0  0  0  0  0  0
    1.2733   -0.9233   -2.3805 H   0  0  0  0  0  0  0  0  0  0  0  0
   -0.0554    1.7508   -0.0819 C   0  0  0  0  0  0  0  0  0  0  0  0
   -1.0901    2.1764   -0.5885 O   0  0  0  0  0  0  0  0  0  0  0  0
    0.9994    2.6276    0.1140 N   0  0  0  0  0  0  0  0  0  0  0  0
    1.8348    2.2685    0.5657 H   0  0  0  0  0  0  0  0  0  0  0  0
    0.9716    4.0230   -0.3073 C   0  0  0  0  0  0  0  0  0  0  0  0
    0.1510    4.5563    0.1837 H   0  0  0  0  0  0  0  0  0  0  0  0
    1.9112    4.5169   -0.0420 H   0  0  0  0  0  0  0  0  0  0  0  0
    0.8388    4.0923   -1.3920 H   0  0  0  0  0  0  0  0  0  0  0  0
  1  2  1  0  0  0  0
  2  3  1  0  0  0  0
  2  4  1  0  0  0  0
  2  5  1  0  0  0  0
  5  6  2  0  0  0  0
  5  7  1  0  0  0  0
  7  8  1  0  0  0  0
  7  9  1  0  0  0  0
  9 10  1  0  0  0  0
  9 11  1  0  0  0  0
  9 19  1  0  0  0  0
 11 12  1  0  0  0  0
 11 13  1  0  0  0  0
 11 17  1  0  0  0  0
 13 14  1  0  0  0  0
 13 15  1  0  0  0  0
 13 16  1  0  0  0  0
 17 18  1  0  0  0  0
 19 20  2  0  0  0  0
 19 21  1  0  0  0  0
 21 22  1  0  0  0  0
 21 23  1  0  0  0  0
 23 24  1  0  0  0  0
 23 25  1  0  0  0  0
 23 26  1  0  0  0  0
M  END
$$$$

  -OEChem-01062216093D

 26 25  0     1  0  0  0  0  0999 V2000
   -3.1187   -3.0166    1.4041 H   0  0  0  0  0  0  0  0  0  0  0  0
   -3.0185   -2.0805    0.8478 C   0  0  0  0  0  0  0  0  0  0  0  0
   -3.7358   -1.3569    1.2430 H   0  0  0  0  0  0  0  0  0  0  0  0
   -3.2440   -2.2694   -0.2045 H   0  0  0  0  0  0  0  0  0  0  0  0
   -1.6083   -1.5386    0.9844 C   0  0  0  0  0  0  0  0  0  0  0  0
   -0.7931   -2.1268    1.6784 O   0  0  0  0  0  0  0  0  0  0  0  0
   -1.2656   -0.3661    0.3478 N   0  0  0  0  0  0  0  0  0  0  0  0
   -1.9984    0.1306   -0.1557 H   0  0  0  0  0  0  0  0  0  0  0  0
    0.0574    0.2846    0.3895 C   0  0  1  0  0  0  0  0  0  0  0  0
    0.5272    0.0876    1.3581 H   0  0  0  0  0  0  0  0  0  0  0  0
    0.9902   -0.2320   -0.7360 C   0  0  1  0  0  0  0  0  0  0  0  0
    1.9518    0.2852   -0.6510 H   0  0  0  0  0  0  0  0  0  0  0  0
    1.2710   -1.7323   -0.6630 C   0  0  0  0  0  0  0  0  0  0  0  0
    0.3666   -2.3094   -0.8763 H   0  0  0  0  0  0  0  0  0  0  0  0
    2.0365   -2.0100   -1.3931 H   0  0  0  0  0  0  0  0  0  0  0  0
    1.6326   -2.0041    0.3334 H   0  0  0  0  0  0  0  0  0  0  0  0
    0.4266    0.0486   -2.0202 O   0  0  0  0  0  0  0  0  0  0  0  0
    0.9822   -0.3184   -2.7287 H   0  0  0  0  0  0  0  0  0  0  0  0
   -0.0883    1.8177    0.2513 C   0  0  0  0  0  0  0  0  0  0  0  0
   -1.2003    2.3342    0.1771 O   0  0  0  0  0  0  0  0  0  0  0  0
    1.0243    2.6435    0.2642 N   0  0  0  0  0  0  0  0  0  0  0  0
    1.9378    2.2037    0.3129 H   0  0  0  0  0  0  0  0  0  0  0  0
    0.9480    4.0929    0.1257 C   0  0  0  0  0  0  0  0  0  0  0  0
    0.3271    4.5223    0.9192 H   0  0  0  0  0  0  0  0  0  0  0  0
    1.9477    4.5325    0.1948 H   0  0  0  0  0  0  0  0  0  0  0  0
    0.5172    4.3617   -0.8445 H   0  0  0  0  0  0  0  0  0  0  0  0
  1  2  1  0  0  0  0
  2  3  1  0  0  0  0
  2  4  1  0  0  0  0
  2  5  1  0  0  0  0
  5  6  2  0  0  0  0
  5  7  1  0  0  0  0
  7  8  1  0  0  0  0
  7  9  1  0  0  0  0
  9 10  1  0  0  0  0
  9 11  1  0  0  0  0
  9 19  1  0  0  0  0
 11 12  1  0  0  0  0
 11 13  1  0  0  0  0
 11 17  1  0  0  0  0
 13 14  1  0  0  0  0
 13 15  1  0  0  0  0
 13 16  1  0  0  0  0
 17 18  1  0  0  0  0
 19 20  2  0  0  0  0
 19 21  1  0  0  0  0
 21 22  1  0  0  0  0
 21 23  1  0  0  0  0
 23 24  1  0  0  0  0
 23 25  1  0  0  0  0
 23 26  1  0  0  0  0
M  END
$$$$

  -OEChem-01062216093D

 26 25  0     1  0  0  0  0  0999 V2000
   -3.1345   -2.9908    1.4078 H   0  0  0  0  0  0  0  0  0  0  0  0
   -3.0250   -2.0561    0.8511 C   0  0  0  0  0  0  0  0  0  0  0  0
   -3.7227   -1.3197    1.2571 H   0  0  0  0  0  0  0  0  0  0  0  0
   -3.2690   -2.2397   -0.1980 H   0  0  0  0  0  0  0  0  0  0  0  0
   -1.6034   -1.5403    0.9679 C   0  0  0  0  0  0  0  0  0  0  0  0
   -0.7865   -2.1523    1.6388 O   0  0  0  0  0  0  0  0  0  0  0  0
   -1.2540   -0.3650    0.3394 N   0  0  0  0  0  0  0  0  0  0  0  0
   -1.9976    0.1625   -0.1135 H   0  0  0  0  0  0  0  0  0  0  0  0
    0.0736    0.2783    0.3877 C   0  0  1  0  0  0  0  0  0  0  0  0
    0.5398    0.0784    1.3574 H   0  0  0  0  0  0  0  0  0  0  0  0
    1.0089   -0.2461   -0.7338 C   0  0  1  0  0  0  0  0  0  0  0  0
    1.9763    0.2580   -0.6432 H   0  0  0  0  0  0  0  0  0  0  0  0
    1.2789   -1.7482   -0.6624 C   0  0  0  0  0  0  0  0  0  0  0  0
    0.3722   -2.3197   -0.8808 H   0  0  0  0  0  0  0  0  0  0  0  0
    2.0458   -2.0295   -1.3896 H   0  0  0  0  0  0  0  0  0  0  0  0
    1.6350   -2.0232    0.3352 H   0  0  0  0  0  0  0  0  0  0  0  0
    0.4526    0.0378   -2.0205 O   0  0  0  0  0  0  0  0  0  0  0  0
    0.9864   -0.3697   -2.7239 H   0  0  0  0  0  0  0  0  0  0  0  0
   -0.0748    1.8144    0.2592 C   0  0  0  0  0  0  0  0  0  0  0  0
   -1.1699    2.3419    0.4333 O   0  0  0  0  0  0  0  0  0  0  0  0
    1.0070    2.6317   -0.0290 N   0  0  0  0  0  0  0  0  0  0  0  0
    1.8841    2.1778   -0.2625 H   0  0  0  0  0  0  0  0  0  0  0  0
    0.8941    4.0728   -0.2192 C   0  0  0  0  0  0  0  0  0  0  0  0
    0.4737    4.5462    0.6743 H   0  0  0  0  0  0  0  0  0  0  0  0
    1.8806    4.5074   -0.4063 H   0  0  0  0  0  0  0  0  0  0  0  0
    0.2483    4.2962   -1.0747 H   0  0  0  0  0  0  0  0  0  0  0  0
  1  2  1  0  0  0  0
  2  3  1  0  0  0  0
  2  4  1  0  0  0  0
  2  5  1  0  0  0  0
  5  6  2  0  0  0  0
  5  7  1  0  0  0  0
  7  8  1  0  0  0  0
  7  9  1  0  0  0  0
  9 10  1  0  0  0  0
  9 11  1  0  0  0  0
  9 19  1  0  0  0  0
 11 12  1  0  0  0  0
 11 13  1  0  0  0  0
 11 17  1  0  0  0  0
 13 14  1  0  0  0  0
 13 15  1  0  0  0  0
 13 16  1  0  0  0  0
 17 18  1  0  0  0  0
 19 20  2  0  0  0  0
 19 21  1  0  0  0  0
 21 22  1  0  0  0  0
 21 23  1  0  0  0  0
 23 24  1  0  0  0  0
 23 25  1  0  0  0  0
 23 26  1  0  0  0  0
M  END
$$$$

  -OEChem-01062216093D

 26 25  0     1  0  0  0  0  0999 V2000
   -3.1529   -2.9545    1.4177 H   0  0  0  0  0  0  0  0  0  0  0  0
   -3.0355   -2.0228    0.8574 C   0  0  0  0  0  0  0  0  0  0  0  0
   -3.7124   -1.2733    1.2747 H   0  0  0  0  0  0  0  0  0  0  0  0
   -3.3014   -2.2036   -0.1868 H   0  0  0  0  0  0  0  0  0  0  0  0
   -1.6023   -1.5339    0.9491 C   0  0  0  0  0  0  0  0  0  0  0  0
   -0.7859   -2.1669    1.6003 O   0  0  0  0  0  0  0  0  0  0  0  0
   -1.2449   -0.3581    0.3249 N   0  0  0  0  0  0  0  0  0  0  0  0
   -1.9941    0.1923   -0.0882 H   0  0  0  0  0  0  0  0  0  0  0  0
    0.0898    0.2719    0.3739 C   0  0  1  0  0  0  0  0  0  0  0  0
    0.5490    0.0718    1.3470 H   0  0  0  0  0  0  0  0  0  0  0  0
    1.0369   -0.2626   -0.7347 C   0  0  1  0  0  0  0  0  0  0  0  0
    2.0066    0.2355   -0.6313 H   0  0  0  0  0  0  0  0  0  0  0  0
    1.2983   -1.7656   -0.6557 C   0  0  0  0  0  0  0  0  0  0  0  0
    0.3909   -2.3333   -0.8806 H   0  0  0  0  0  0  0  0  0  0  0  0
    2.0708   -2.0532   -1.3745 H   0  0  0  0  0  0  0  0  0  0  0  0
    1.6440   -2.0389    0.3461 H   0  0  0  0  0  0  0  0  0  0  0  0
    0.4997    0.0163   -2.0309 O   0  0  0  0  0  0  0  0  0  0  0  0
    1.0106   -0.4433   -2.7195 H   0  0  0  0  0  0  0  0  0  0  0  0
   -0.0596    1.8096    0.2532 C   0  0  0  0  0  0  0  0  0  0  0  0
   -1.0743    2.3526    0.6797 O   0  0  0  0  0  0  0  0  0  0  0  0
    0.9151    2.6094   -0.3221 N   0  0  0  0  0  0  0  0  0  0  0  0
    1.6399    2.1281   -0.8457 H   0  0  0  0  0  0  0  0  0  0  0  0
    0.7470    4.0424   -0.5325 C   0  0  0  0  0  0  0  0  0  0  0  0
    0.5550    4.5503    0.4185 H   0  0  0  0  0  0  0  0  0  0  0  0
    1.6541    4.4683   -0.9717 H   0  0  0  0  0  0  0  0  0  0  0  0
   -0.0912    4.2341   -1.2105 H   0  0  0  0  0  0  0  0  0  0  0  0
  1  2  1  0  0  0  0
  2  3  1  0  0  0  0
  2  4  1  0  0  0  0
  2  5  1  0  0  0  0
  5  6  2  0  0  0  0
  5  7  1  0  0  0  0
  7  8  1  0  0  0  0
  7  9  1  0  0  0  0
  9 10  1  0  0  0  0
  9 11  1  0  0  0  0
  9 19  1  0  0  0  0
 11 12  1  0  0  0  0
 11 13  1  0  0  0  0
 11 17  1  0  0  0  0
 13 14  1  0  0  0  0
 13 15  1  0  0  0  0
 13 16  1  0  0  0  0
 17 18  1  0  0  0  0
 19 20  2  0  0  0  0
 19 21  1  0  0  0  0
 21 22  1  0  0  0  0
 21 23  1  0  0  0  0
 23 24  1  0  0  0  0
 23 25  1  0  0  0  0
 23 26  1  0  0  0  0
M  END
$$$$

  -OEChem-01062216093D

 26 25  0     1  0  0  0  0  0999 V2000
   -3.1471   -2.9459    1.4184 H   0  0  0  0  0  0  0  0  0  0  0  0
   -3.0321   -2.0144    0.8571 C   0  0  0  0  0  0  0  0  0  0  0  0
   -3.7115   -1.2665    1.2730 H   0  0  0  0  0  0  0  0  0  0  0  0
   -3.2964   -2.1974   -0.1872 H   0  0  0  0  0  0  0  0  0  0  0  0
   -1.6006   -1.5210    0.9499 C   0  0  0  0  0  0  0  0  0  0  0  0
   -0.7838   -2.1521    1.6020 O   0  0  0  0  0  0  0  0  0  0  0  0
   -1.2459   -0.3462    0.3217 N   0  0  0  0  0  0  0  0  0  0  0  0
   -1.9947    0.1902   -0.1084 H   0  0  0  0  0  0  0  0  0  0  0  0
    0.0926    0.2773    0.3578 C   0  0  1  0  0  0  0  0  0  0  0  0
    0.5526    0.0813    1.3317 H   0  0  0  0  0  0  0  0  0  0  0  0
    1.0440   -0.2698   -0.7419 C   0  0  1  0  0  0  0  0  0  0  0  0
    2.0118    0.2331   -0.6373 H   0  0  0  0  0  0  0  0  0  0  0  0
    1.3071   -1.7713   -0.6428 C   0  0  0  0  0  0  0  0  0  0  0  0
    0.4013   -2.3430   -0.8643 H   0  0  0  0  0  0  0  0  0  0  0  0
    2.0832   -2.0672   -1.3543 H   0  0  0  0  0  0  0  0  0  0  0  0
    1.6489   -2.0316    0.3637 H   0  0  0  0  0  0  0  0  0  0  0  0
    0.5182   -0.0096   -2.0476 O   0  0  0  0  0  0  0  0  0  0  0  0
    1.0161   -0.5078   -2.7195 H   0  0  0  0  0  0  0  0  0  0  0  0
   -0.0521    1.8145    0.2393 C   0  0  0  0  0  0  0  0  0  0  0  0
   -0.9200    2.3854    0.8907 O   0  0  0  0  0  0  0  0  0  0  0  0
    0.7481    2.5765   -0.5959 N   0  0  0  0  0  0  0  0  0  0  0  0
    1.2568    2.0535   -1.3052 H   0  0  0  0  0  0  0  0  0  0  0  0
    0.5435    4.0046   -0.8067 C   0  0  0  0  0  0  0  0  0  0  0  0
    0.6040    4.5456    0.1436 H   0  0  0  0  0  0  0  0  0  0  0  0
    1.3129    4.4011   -1.4759 H   0  0  0  0  0  0  0  0  0  0  0  0
   -0.4380    4.1888   -1.2556 H   0  0  0  0  0  0  0  0  0  0  0  0
  1  2  1  0  0  0  0
  2  3  1  0  0  0  0
  2  4  1  0  0  0  0
  2  5  1  0  0  0  0
  5  6  2  0  0  0  0
  5  7  1  0  0  0  0
  7  8  1  0  0  0  0
  7  9  1  0  0  0  0
  9 10  1  0  0  0  0
  9 11  1  0  0  0  0
  9 19  1  0  0  0  0
 11 12  1  0  0  0  0
 11 13  1  0  0  0  0
 11 17  1  0  0  0  0
 13 14  1  0  0  0  0
 13 15  1  0  0  0  0
 13 16  1  0  0  0  0
 17 18  1  0  0  0  0
 19 20  2  0  0  0  0
 19 21  1  0  0  0  0
 21 22  1  0  0  0  0
 21 23  1  0  0  0  0
 23 24  1  0  0  0  0
 23 25  1  0  0  0  0
 23 26  1  0  0  0  0
M  END
$$$$

  -OEChem-01062216093D

 26 25  0     1  0  0  0  0  0999 V2000
   -3.1228   -2.9606    1.4116 H   0  0  0  0  0  0  0  0  0  0  0  0
   -3.0170   -2.0277    0.8509 C   0  0  0  0  0  0  0  0  0  0  0  0
   -3.7176   -1.2928    1.2549 H   0  0  0  0  0  0  0  0  0  0  0  0
   -3.2604   -2.2170   -0.1973 H   0  0  0  0  0  0  0  0  0  0  0  0
   -1.5971   -1.5062    0.9670 C   0  0  0  0  0  0  0  0  0  0  0  0
   -0.7806   -2.1182    1.6372 O   0  0  0  0  0  0  0  0  0  0  0  0
   -1.2513   -0.3321    0.3314 N   0  0  0  0  0  0  0  0  0  0  0  0
   -1.9912    0.1598   -0.1612 H   0  0  0  0  0  0  0  0  0  0  0  0
    0.0879    0.2909    0.3463 C   0  0  1  0  0  0  0  0  0  0  0  0
    0.5567    0.0983    1.3169 H   0  0  0  0  0  0  0  0  0  0  0  0
    1.0284   -0.2743   -0.7546 C   0  0  1  0  0  0  0  0  0  0  0  0
    1.9935    0.2371   -0.6656 H   0  0  0  0  0  0  0  0  0  0  0  0
    1.2984   -1.7729   -0.6297 C   0  0  0  0  0  0  0  0  0  0  0  0
    0.3939   -2.3522   -0.8361 H   0  0  0  0  0  0  0  0  0  0  0  0
    2.0724   -2.0785   -1.3393 H   0  0  0  0  0  0  0  0  0  0  0  0
    1.6464   -2.0135    0.3797 H   0  0  0  0  0  0  0  0  0  0  0  0
    0.4987   -0.0394   -2.0655 O   0  0  0  0  0  0  0  0  0  0  0  0
    1.0048   -0.5433   -2.7276 H   0  0  0  0  0  0  0  0  0  0  0  0
   -0.0457    1.8277    0.2283 C   0  0  0  0  0  0  0  0  0  0  0  0
   -0.7137    2.4347    1.0565 O   0  0  0  0  0  0  0  0  0  0  0  0
    0.5168    2.5438   -0.8140 N   0  0  0  0  0  0  0  0  0  0  0  0
    0.8393    1.9798   -1.5994 H   0  0  0  0  0  0  0  0  0  0  0  0
    0.2826    3.9667   -1.0271 C   0  0  0  0  0  0  0  0  0  0  0  0
    0.5920    4.5423   -0.1484 H   0  0  0  0  0  0  0  0  0  0  0  0
    0.8588    4.3190   -1.8880 H   0  0  0  0  0  0  0  0  0  0  0  0
   -0.7787    4.1562   -1.2174 H   0  0  0  0  0  0  0  0  0  0  0  0
  1  2  1  0  0  0  0
  2  3  1  0  0  0  0
  2  4  1  0  0  0  0
  2  5  1  0  0  0  0
  5  6  2  0  0  0  0
  5  7  1  0  0  0  0
  7  8  1  0  0  0  0
  7  9  1  0  0  0  0
  9 10  1  0  0  0  0
  9 11  1  0  0  0  0
  9 19  1  0  0  0  0
 11 12  1  0  0  0  0
 11 13  1  0  0  0  0
 11 17  1  0  0  0  0
 13 14  1  0  0  0  0
 13 15  1  0  0  0  0
 13 16  1  0  0  0  0
 17 18  1  0  0  0  0
 19 20  2  0  0  0  0
 19 21  1  0  0  0  0
 21 22  1  0  0  0  0
 21 23  1  0  0  0  0
 23 24  1  0  0  0  0
 23 25  1  0  0  0  0
 23 26  1  0  0  0  0
M  END
$$$$

  -OEChem-01062216093D

 26 25  0     1  0  0  0  0  0999 V2000
   -3.0855   -2.9952    1.4081 H   0  0  0  0  0  0  0  0  0  0  0  0
   -2.9979   -2.0589    0.8498 C   0  0  0  0  0  0  0  0  0  0  0  0
   -3.7265   -1.3456    1.2427 H   0  0  0  0  0  0  0  0  0  0  0  0
   -3.2189   -2.2547   -0.2021 H   0  0  0  0  0  0  0  0  0  0  0  0
   -1.5960   -1.4961    0.9898 C   0  0  0  0  0  0  0  0  0  0  0  0
   -0.7779   -2.0768    1.6851 O   0  0  0  0  0  0  0  0  0  0  0  0
   -1.2669   -0.3240    0.3412 N   0  0  0  0  0  0  0  0  0  0  0  0
   -1.9923    0.1064   -0.2243 H   0  0  0  0  0  0  0  0  0  0  0  0
    0.0692    0.3057    0.3333 C   0  0  1  0  0  0  0  0  0  0  0  0
    0.5491    0.1207    1.3003 H   0  0  0  0  0  0  0  0  0  0  0  0
    0.9986   -0.2743   -0.7692 C   0  0  1  0  0  0  0  0  0  0  0  0
    1.9584    0.2499   -0.6991 H   0  0  0  0  0  0  0  0  0  0  0  0
    1.2854   -1.7671   -0.6157 C   0  0  0  0  0  0  0  0  0  0  0  0
    0.3864   -2.3603   -0.8057 H   0  0  0  0  0  0  0  0  0  0  0  0
    2.0594   -2.0785   -1.3229 H   0  0  0  0  0  0  0  0  0  0  0  0
    1.6410   -1.9835    0.3966 H   0  0  0  0  0  0  0  0  0  0  0  0
    0.4593   -0.0684   -2.0824 O   0  0  0  0  0  0  0  0  0  0  0  0
    0.9855   -0.5587   -2.7394 H   0  0  0  0  0  0  0  0  0  0  0  0
   -0.0576    1.8409    0.2078 C   0  0  0  0  0  0  0  0  0  0  0  0
   -0.4775    2.4876    1.1586 O   0  0  0  0  0  0  0  0  0  0  0  0
    0.2187    2.5098   -0.9708 N   0  0  0  0  0  0  0  0  0  0  0  0
    0.4027    1.9163   -1.7803 H   0  0  0  0  0  0  0  0  0  0  0  0
   -0.0140    3.9345   -1.1707 C   0  0  0  0  0  0  0  0  0  0  0  0
    0.5338    4.5205   -0.4251 H   0  0  0  0  0  0  0  0  0  0  0  0
    0.3288    4.2368   -2.1648 H   0  0  0  0  0  0  0  0  0  0  0  0
   -1.0813    4.1639   -1.0855 H   0  0  0  0  0  0  0  0  0  0  0  0
  1  2  1  0  0  0  0
  2  3  1  0  0  0  0
  2  4  1  0  0  0  0
  2  5  1  0  0  0  0
  5  6  2  0  0  0  0
  5  7  1  0  0  0  0
  7  8  1  0  0  0  0
  7  9  1  0  0  0  0
  9 10  1  0  0  0  0
  9 11  1  0  0  0  0
  9 19  1  0  0  0  0
 11 12  1  0  0  0  0
 11 13  1  0  0  0  0
 11 17  1  0  0  0  0
 13 14  1  0  0  0  0
 13 15  1  0  0  0  0
 13 16  1  0  0  0  0
 17 18  1  0  0  0  0
 19 20  2  0  0  0  0
 19 21  1  0  0  0  0
 21 22  1  0  0  0  0
 21 23  1  0  0  0  0
 23 24  1  0  0  0  0
 23 25  1  0  0  0  0
 23 26  1  0  0  0  0
M  END
$$$$

  -OEChem-01062216093D

 26 25  0     1  0  0  0  0  0999 V2000
   -3.0493   -3.0370    1.4157 H   0  0  0  0  0  0  0  0  0  0  0  0
   -2.9785   -2.1024    0.8522 C   0  0  0  0  0  0  0  0  0  0  0  0
   -3.7344   -1.4078    1.2268 H   0  0  0  0  0  0  0  0  0  0  0  0
   -3.1744   -2.3115   -0.2021 H   0  0  0  0  0  0  0  0  0  0  0  0
   -1.5962   -1.4986    1.0128 C   0  0  0  0  0  0  0  0  0  0  0  0
   -0.7748   -2.0494    1.7279 O   0  0  0  0  0  0  0  0  0  0  0  0
   -1.2870   -0.3278    0.3520 N   0  0  0  0  0  0  0  0  0  0  0  0
   -2.0036    0.0558   -0.2565 H   0  0  0  0  0  0  0  0  0  0  0  0
    0.0414    0.3167    0.3311 C   0  0  1  0  0  0  0  0  0  0  0  0
    0.5300    0.1411    1.2957 H   0  0  0  0  0  0  0  0  0  0  0  0
    0.9665   -0.2618   -0.7747 C   0  0  1  0  0  0  0  0  0  0  0  0
    1.9198    0.2755   -0.7161 H   0  0  0  0  0  0  0  0  0  0  0  0
    1.2706   -1.7499   -0.6100 C   0  0  0  0  0  0  0  0  0  0  0  0
    0.3766   -2.3538   -0.7891 H   0  0  0  0  0  0  0  0  0  0  0  0
    2.0434   -2.0590   -1.3196 H   0  0  0  0  0  0  0  0  0  0  0  0
    1.6346   -1.9538    0.4018 H   0  0  0  0  0  0  0  0  0  0  0  0
    0.4170   -0.0731   -2.0869 O   0  0  0  0  0  0  0  0  0  0  0  0
    0.9703   -0.5282   -2.7473 H   0  0  0  0  0  0  0  0  0  0  0  0
   -0.0956    1.8484    0.1945 C   0  0  0  0  0  0  0  0  0  0  0  0
   -0.2508    2.5342    1.1961 O   0  0  0  0  0  0  0  0  0  0  0  0
   -0.1298    2.4678   -1.0409 N   0  0  0  0  0  0  0  0  0  0  0  0
   -0.0319    1.8550   -1.8512 H   0  0  0  0  0  0  0  0  0  0  0  0
   -0.3254    3.8983   -1.2369 C   0  0  0  0  0  0  0  0  0  0  0  0
    0.4517    4.4666   -0.7151 H   0  0  0  0  0  0  0  0  0  0  0  0
   -0.2759    4.1437   -2.3021 H   0  0  0  0  0  0  0  0  0  0  0  0
   -1.3043    4.2065   -0.8551 H   0  0  0  0  0  0  0  0  0  0  0  0
  1  2  1  0  0  0  0
  2  3  1  0  0  0  0
  2  4  1  0  0  0  0
  2  5  1  0  0  0  0
  5  6  2  0  0  0  0
  5  7  1  0  0  0  0
  7  8  1  0  0  0  0
  7  9  1  0  0  0  0
  9 10  1  0  0  0  0
  9 11  1  0  0  0  0
  9 19  1  0  0  0  0
 11 12  1  0  0  0  0
 11 13  1  0  0  0  0
 11 17  1  0  0  0  0
 13 14  1  0  0  0  0
 13 15  1  0  0  0  0
 13 16  1  0  0  0  0
 17 18  1  0  0  0  0
 19 20  2  0  0  0  0
 19 21  1  0  0  0  0
 21 22  1  0  0  0  0
 21 23  1  0  0  0  0
 23 24  1  0  0  0  0
 23 25  1  0  0  0  0
 23 26  1  0  0  0  0
M  END
$$$$

  -OEChem-01062216093D

 26 25  0     1  0  0  0  0  0999 V2000
   -3.0115   -3.1000    1.4354 H   0  0  0  0  0  0  0  0  0  0  0  0
   -2.9639   -2.1691    0.8635 C   0  0  0  0  0  0  0  0  0  0  0  0
   -3.7446   -1.4950    1.2238 H   0  0  0  0  0  0  0  0  0  0  0  0
   -3.1427   -2.3946   -0.1904 H   0  0  0  0  0  0  0  0  0  0  0  0
   -1.6023   -1.5216    1.0327 C   0  0  0  0  0  0  0  0  0  0  0  0
   -0.7716   -2.0419    1.7595 O   0  0  0  0  0  0  0  0  0  0  0  0
   -1.3195   -0.3472    0.3657 N   0  0  0  0  0  0  0  0  0  0  0  0
   -2.0329    0.0014   -0.2674 H   0  0  0  0  0  0  0  0  0  0  0  0
   -0.0038    0.3239    0.3463 C   0  0  1  0  0  0  0  0  0  0  0  0
    0.4915    0.1543    1.3088 H   0  0  0  0  0  0  0  0  0  0  0  0
    0.9260   -0.2259   -0.7676 C   0  0  1  0  0  0  0  0  0  0  0  0
    1.8690    0.3292   -0.7088 H   0  0  0  0  0  0  0  0  0  0  0  0
    1.2569   -1.7099   -0.6172 C   0  0  0  0  0  0  0  0  0  0  0  0
    0.3712   -2.3278   -0.7902 H   0  0  0  0  0  0  0  0  0  0  0  0
    2.0267   -2.0013   -1.3375 H   0  0  0  0  0  0  0  0  0  0  0  0
    1.6355   -1.9144    0.3892 H   0  0  0  0  0  0  0  0  0  0  0  0
    0.3638   -0.0335   -2.0738 O   0  0  0  0  0  0  0  0  0  0  0  0
    0.9431   -0.4356   -2.7461 H   0  0  0  0  0  0  0  0  0  0  0  0
   -0.1634    1.8509    0.2023 C   0  0  0  0  0  0  0  0  0  0  0  0
   -0.0357    2.5750    1.1804 O   0  0  0  0  0  0  0  0  0  0  0  0
   -0.5069    2.4195   -1.0103 N   0  0  0  0  0  0  0  0  0  0  0  0
   -0.4693    1.7918   -1.8142 H   0  0  0  0  0  0  0  0  0  0  0  0
   -0.6063    3.8564   -1.2317 C   0  0  0  0  0  0  0  0  0  0  0  0
    0.3525    4.3432   -1.0255 H   0  0  0  0  0  0  0  0  0  0  0  0
   -0.8826    4.0598   -2.2708 H   0  0  0  0  0  0  0  0  0  0  0  0
   -1.3708    4.2926   -0.5802 H   0  0  0  0  0  0  0  0  0  0  0  0
  1  2  1  0  0  0  0
  2  3  1  0  0  0  0
  2  4  1  0  0  0  0
  2  5  1  0  0  0  0
  5  6  2  0  0  0  0
  5  7  1  0  0  0  0
  7  8  1  0  0  0  0
  7  9  1  0  0  0  0
  9 10  1  0  0  0  0
  9 11  1  0  0  0  0
  9 19  1  0  0  0  0
 11 12  1  0  0  0  0
 11 13  1  0  0  0  0
 11 17  1  0  0  0  0
 13 14  1  0  0  0  0
 13 15  1  0  0  0  0
 13 16  1  0  0  0  0
 17 18  1  0  0  0  0
 19 20  2  0  0  0  0
 19 21  1  0  0  0  0
 21 22  1  0  0  0  0
 21 23  1  0  0  0  0
 23 24  1  0  0  0  0
 23 25  1  0  0  0  0
 23 26  1  0  0  0  0
M  END
$$$$

  -OEChem-01062216093D

 26 25  0     1  0  0  0  0  0999 V2000
   -3.0076   -3.1263    1.4483 H   0  0  0  0  0  0  0  0  0  0  0  0
   -2.9651   -2.1941    0.8781 C   0  0  0  0  0  0  0  0  0  0  0  0
   -3.7467   -1.5232    1.2427 H   0  0  0  0  0  0  0  0  0  0  0  0
   -3.1470   -2.4179   -0.1756 H   0  0  0  0  0  0  0  0  0  0  0  0
   -1.6050   -1.5426    1.0438 C   0  0  0  0  0  0  0  0  0  0  0  0
   -0.7706   -2.0598    1.7683 O   0  0  0  0  0  0  0  0  0  0  0  0
   -1.3284   -0.3660    0.3782 N   0  0  0  0  0  0  0  0  0  0  0  0
   -2.0453   -0.0155   -0.2496 H   0  0  0  0  0  0  0  0  0  0  0  0
   -0.0192    0.3192    0.3740 C   0  0  1  0  0  0  0  0  0  0  0  0
    0.4782    0.1451    1.3345 H   0  0  0  0  0  0  0  0  0  0  0  0
    0.9084   -0.1981   -0.7533 C   0  0  1  0  0  0  0  0  0  0  0  0
    1.8477    0.3629   -0.6891 H   0  0  0  0  0  0  0  0  0  0  0  0
    1.2486   -1.6832   -0.6380 C   0  0  0  0  0  0  0  0  0  0  0  0
    0.3649   -2.3021   -0.8160 H   0  0  0  0  0  0  0  0  0  0  0  0
    2.0129   -1.9541   -1.3719 H   0  0  0  0  0  0  0  0  0  0  0  0
    1.6376   -1.9069    0.3603 H   0  0  0  0  0  0  0  0  0  0  0  0
    0.3290    0.0243   -2.0474 O   0  0  0  0  0  0  0  0  0  0  0  0
    0.9205   -0.3235   -2.7389 H   0  0  0  0  0  0  0  0  0  0  0  0
   -0.1858    1.8431    0.2263 C   0  0  0  0  0  0  0  0  0  0  0  0
    0.1858    2.5935    1.1188 O   0  0  0  0  0  0  0  0  0  0  0  0
   -0.8083    2.3718   -0.8903 N   0  0  0  0  0  0  0  0  0  0  0  0
   -0.8727    1.7328   -1.6825 H   0  0  0  0  0  0  0  0  0  0  0  0
   -0.9082    3.8042   -1.1394 C   0  0  0  0  0  0  0  0  0  0  0  0
    0.0887    4.2526   -1.2050 H   0  0  0  0  0  0  0  0  0  0  0  0
   -1.4347    3.9872   -2.0809 H   0  0  0  0  0  0  0  0  0  0  0  0
   -1.4636    4.2954   -0.3335 H   0  0  0  0  0  0  0  0  0  0  0  0
  1  2  1  0  0  0  0
  2  3  1  0  0  0  0
  2  4  1  0  0  0  0
  2  5  1  0  0  0  0
  5  6  2  0  0  0  0
  5  7  1  0  0  0  0
  7  8  1  0  0  0  0
  7  9  1  0  0  0  0
  9 10  1  0  0  0  0
  9 11  1  0  0  0  0
  9 19  1  0  0  0  0
 11 12  1  0  0  0  0
 11 13  1  0  0  0  0
 11 17  1  0  0  0  0
 13 14  1  0  0  0  0
 13 15  1  0  0  0  0
 13 16  1  0  0  0  0
 17 18  1  0  0  0  0
 19 20  2  0  0  0  0
 19 21  1  0  0  0  0
 21 22  1  0  0  0  0
 21 23  1  0  0  0  0
 23 24  1  0  0  0  0
 23 25  1  0  0  0  0
 23 26  1  0  0  0  0
M  END
$$$$

  -OEChem-01062216093D

 26 25  0     1  0  0  0  0  0999 V2000
   -2.9882   -3.1615    1.4561 H   0  0  0  0  0  0  0  0  0  0  0  0
   -2.9510   -2.2329    0.8795 C   0  0  0  0  0  0  0  0  0  0  0  0
   -3.7508   -1.5728    1.2236 H   0  0  0  0  0  0  0  0  0  0  0  0
   -3.1087   -2.4678   -0.1759 H   0  0  0  0  0  0  0  0  0  0  0  0
   -1.6060   -1.5562    1.0661 C   0  0  0  0  0  0  0  0  0  0  0  0
   -0.7756   -2.0538    1.8085 O   0  0  0  0  0  0  0  0  0  0  0  0
   -1.3369   -0.3808    0.3952 N   0  0  0  0  0  0  0  0  0  0  0  0
   -2.0442   -0.0544   -0.2550 H   0  0  0  0  0  0  0  0  0  0  0  0
   -0.0330    0.3170    0.4019 C   0  0  1  0  0  0  0  0  0  0  0  0
    0.4670    0.1412    1.3608 H   0  0  0  0  0  0  0  0  0  0  0  0
    0.8847   -0.1831   -0.7371 C   0  0  1  0  0  0  0  0  0  0  0  0
    1.8237    0.3795   -0.6782 H   0  0  0  0  0  0  0  0  0  0  0  0
    1.2274   -1.6695   -0.6464 C   0  0  0  0  0  0  0  0  0  0  0  0
    0.3435   -2.2878   -0.8261 H   0  0  0  0  0  0  0  0  0  0  0  0
    1.9860   -1.9277   -1.3907 H   0  0  0  0  0  0  0  0  0  0  0  0
    1.6248   -1.9070    0.3454 H   0  0  0  0  0  0  0  0  0  0  0  0
    0.2795    0.0618   -2.0149 O   0  0  0  0  0  0  0  0  0  0  0  0
    0.8775   -0.2301   -2.7261 H   0  0  0  0  0  0  0  0  0  0  0  0
   -0.1881    1.8405    0.2443 C   0  0  0  0  0  0  0  0  0  0  0  0
    0.4163    2.5995    0.9904 O   0  0  0  0  0  0  0  0  0  0  0  0
   -1.0490    2.3602   -0.7074 N   0  0  0  0  0  0  0  0  0  0  0  0
   -1.2748    1.7204   -1.4661 H   0  0  0  0  0  0  0  0  0  0  0  0
   -1.1665    3.7914   -0.9583 C   0  0  0  0  0  0  0  0  0  0  0  0
   -0.2108    4.2000   -1.3029 H   0  0  0  0  0  0  0  0  0  0  0  0
   -1.9232    3.9792   -1.7260 H   0  0  0  0  0  0  0  0  0  0  0  0
   -1.4661    4.3175   -0.0457 H   0  0  0  0  0  0  0  0  0  0  0  0
  1  2  1  0  0  0  0
  2  3  1  0  0  0  0
  2  4  1  0  0  0  0
  2  5  1  0  0  0  0
  5  6  2  0  0  0  0
  5  7  1  0  0  0  0
  7  8  1  0  0  0  0
  7  9  1  0  0  0  0
  9 10  1  0  0  0  0
  9 11  1  0  0  0  0
  9 19  1  0  0  0  0
 11 12  1  0  0  0  0
 11 13  1  0  0  0  0
 11 17  1  0  0  0  0
 13 14  1  0  0  0  0
 13 15  1  0  0  0  0
 13 16  1  0  0  0  0
 17 18  1  0  0  0  0
 19 20  2  0  0  0  0
 19 21  1  0  0  0  0
 21 22  1  0  0  0  0
 21 23  1  0  0  0  0
 23 24  1  0  0  0  0
 23 25  1  0  0  0  0
 23 26  1  0  0  0  0
M  END
$$$$

  -OEChem-01062216093D

 26 25  0     1  0  0  0  0  0999 V2000
   -2.8952   -3.2442    1.4326 H   0  0  0  0  0  0  0  0  0  0  0  0
   -2.8828   -2.3219    0.8448 C   0  0  0  0  0  0  0  0  0  0  0  0
   -3.7495   -1.7168    1.1213 H   0  0  0  0  0  0  0  0  0  0  0  0
   -2.9480   -2.5797   -0.2149 H   0  0  0  0  0  0  0  0  0  0  0  0
   -1.6059   -1.5486    1.1138 C   0  0  0  0  0  0  0  0  0  0  0  0
   -0.8007   -1.9737    1.9257 O   0  0  0  0  0  0  0  0  0  0  0  0
   -1.3657   -0.3752    0.4280 N   0  0  0  0  0  0  0  0  0  0  0  0
   -1.9904   -0.1890   -0.3489 H   0  0  0  0  0  0  0  0  0  0  0  0
   -0.0640    0.3285    0.4243 C   0  0  1  0  0  0  0  0  0  0  0  0
    0.4474    0.1537    1.3770 H   0  0  0  0  0  0  0  0  0  0  0  0
    0.8318   -0.1836   -0.7241 C   0  0  1  0  0  0  0  0  0  0  0  0
    1.7736    0.3762   -0.6881 H   0  0  0  0  0  0  0  0  0  0  0  0
    1.1726   -1.6708   -0.6312 C   0  0  0  0  0  0  0  0  0  0  0  0
    0.2865   -2.2888   -0.8009 H   0  0  0  0  0  0  0  0  0  0  0  0
    1.9240   -1.9327   -1.3816 H   0  0  0  0  0  0  0  0  0  0  0  0
    1.5790   -1.9052    0.3578 H   0  0  0  0  0  0  0  0  0  0  0  0
    0.1938    0.0607   -1.9848 O   0  0  0  0  0  0  0  0  0  0  0  0
    0.7934   -0.1801   -2.7133 H   0  0  0  0  0  0  0  0  0  0  0  0
   -0.1890    1.8559    0.2618 C   0  0  0  0  0  0  0  0  0  0  0  0
    0.6490    2.5883    0.7724 O   0  0  0  0  0  0  0  0  0  0  0  0
   -1.2363    2.4214   -0.4474 N   0  0  0  0  0  0  0  0  0  0  0  0
   -1.7622    1.7891   -1.0410 H   0  0  0  0  0  0  0  0  0  0  0  0
   -1.3319    3.8529   -0.7057 C   0  0  0  0  0  0  0  0  0  0  0  0
   -0.4769    4.1928   -1.2993 H   0  0  0  0  0  0  0  0  0  0  0  0
   -2.2498    4.0769   -1.2576 H   0  0  0  0  0  0  0  0  0  0  0  0
   -1.3524    4.4120    0.2357 H   0  0  0  0  0  0  0  0  0  0  0  0
  1  2  1  0  0  0  0
  2  3  1  0  0  0  0
  2  4  1  0  0  0  0
  2  5  1  0  0  0  0
  5  6  2  0  0  0  0
  5  7  1  0  0  0  0
  7  8  1  0  0  0  0
  7  9  1  0  0  0  0
  9 10  1  0  0  0  0
  9 11  1  0  0  0  0
  9 19  1  0  0  0  0
 11 12  1  0  0  0  0
 11 13  1  0  0  0  0
 11 17  1  0  0  0  0
 13 14  1  0  0  0  0
 13 15  1  0  0  0  0
 13 16  1  0  0  0  0
 17 18  1  0  0  0  0
 19 20  2  0  0  0  0
 19 21  1  0  0  0  0
 21 22  1  0  0  0  0
 21 23  1  0  0  0  0
 23 24  1  0  0  0  0
 23 25  1  0  0  0  0
 23 26  1  0  0  0  0
M  END
$$$$

  -OEChem-01062216093D

 26 25  0     1  0  0  0  0  0999 V2000
   -2.8586   -3.2477    1.4308 H   0  0  0  0  0  0  0  0  0  0  0  0
   -2.8313   -2.3559    0.7981 C   0  0  0  0  0  0  0  0  0  0  0  0
   -3.7380   -1.7724    0.9745 H   0  0  0  0  0  0  0  0  0  0  0  0
   -2.8034   -2.6686   -0.2485 H   0  0  0  0  0  0  0  0  0  0  0  0
   -1.6067   -1.5217    1.1243 C   0  0  0  0  0  0  0  0  0  0  0  0
   -0.8364   -1.8938    1.9938 O   0  0  0  0  0  0  0  0  0  0  0  0
   -1.3741   -0.3532    0.4263 N   0  0  0  0  0  0  0  0  0  0  0  0
   -1.9227   -0.2584   -0.4233 H   0  0  0  0  0  0  0  0  0  0  0  0
   -0.0647    0.3371    0.4139 C   0  0  1  0  0  0  0  0  0  0  0  0
    0.4480    0.1666    1.3666 H   0  0  0  0  0  0  0  0  0  0  0  0
    0.8191   -0.2063   -0.7305 C   0  0  1  0  0  0  0  0  0  0  0  0
    1.7694    0.3397   -0.7094 H   0  0  0  0  0  0  0  0  0  0  0  0
    1.1413   -1.6964   -0.6173 C   0  0  0  0  0  0  0  0  0  0  0  0
    0.2488   -2.3060   -0.7830 H   0  0  0  0  0  0  0  0  0  0  0  0
    1.8920   -1.9761   -1.3622 H   0  0  0  0  0  0  0  0  0  0  0  0
    1.5417   -1.9230    0.3760 H   0  0  0  0  0  0  0  0  0  0  0  0
    0.1757    0.0286   -1.9892 O   0  0  0  0  0  0  0  0  0  0  0  0
    0.7869   -0.1728   -2.7196 H   0  0  0  0  0  0  0  0  0  0  0  0
   -0.1698    1.8668    0.2467 C   0  0  0  0  0  0  0  0  0  0  0  0
    0.8090    2.5700    0.4661 O   0  0  0  0  0  0  0  0  0  0  0  0
   -1.3422    2.4692   -0.1784 N   0  0  0  0  0  0  0  0  0  0  0  0
   -2.1430    1.8679   -0.3343 H   0  0  0  0  0  0  0  0  0  0  0  0
   -1.4848    3.9067   -0.3715 C   0  0  0  0  0  0  0  0  0  0  0  0
   -0.7658    4.2662   -1.1151 H   0  0  0  0  0  0  0  0  0  0  0  0
   -2.4933    4.1421   -0.7243 H   0  0  0  0  0  0  0  0  0  0  0  0
   -1.3144    4.4386    0.5704 H   0  0  0  0  0  0  0  0  0  0  0  0
  1  2  1  0  0  0  0
  2  3  1  0  0  0  0
  2  4  1  0  0  0  0
  2  5  1  0  0  0  0
  5  6  2  0  0  0  0
  5  7  1  0  0  0  0
  7  8  1  0  0  0  0
  7  9  1  0  0  0  0
  9 10  1  0  0  0  0
  9 11  1  0  0  0  0
  9 19  1  0  0  0  0
 11 12  1  0  0  0  0
 11 13  1  0  0  0  0
 11 17  1  0  0  0  0
 13 14  1  0  0  0  0
 13 15  1  0  0  0  0
 13 16  1  0  0  0  0
 17 18  1  0  0  0  0
 19 20  2  0  0  0  0
 19 21  1  0  0  0  0
 21 22  1  0  0  0  0
 21 23  1  0  0  0  0
 23 24  1  0  0  0  0
 23 25  1  0  0  0  0
 23 26  1  0  0  0  0
M  END
$$$$

  -OEChem-01062216093D

 26 25  0     1  0  0  0  0  0999 V2000
   -2.8589   -3.2329    1.4122 H   0  0  0  0  0  0  0  0  0  0  0  0
   -2.8287   -2.3399    0.7814 C   0  0  0  0  0  0  0  0  0  0  0  0
   -3.7363   -1.7566    0.9545 H   0  0  0  0  0  0  0  0  0  0  0  0
   -2.7964   -2.6507   -0.2657 H   0  0  0  0  0  0  0  0  0  0  0  0
   -1.6052   -1.5068    1.1144 C   0  0  0  0  0  0  0  0  0  0  0  0
   -0.8477   -1.8703    1.9986 O   0  0  0  0  0  0  0  0  0  0  0  0
   -1.3626   -0.3422    0.4139 N   0  0  0  0  0  0  0  0  0  0  0  0
   -1.9019   -0.2479   -0.4429 H   0  0  0  0  0  0  0  0  0  0  0  0
   -0.0490    0.3401    0.4024 C   0  0  1  0  0  0  0  0  0  0  0  0
    0.4623    0.1741    1.3562 H   0  0  0  0  0  0  0  0  0  0  0  0
    0.8302   -0.2201   -0.7393 C   0  0  1  0  0  0  0  0  0  0  0  0
    1.7866    0.3148   -0.7239 H   0  0  0  0  0  0  0  0  0  0  0  0
    1.1386   -1.7126   -0.6175 C   0  0  0  0  0  0  0  0  0  0  0  0
    0.2409   -2.3147   -0.7814 H   0  0  0  0  0  0  0  0  0  0  0  0
    1.8872   -2.0030   -1.3603 H   0  0  0  0  0  0  0  0  0  0  0  0
    1.5362   -1.9378    0.3771 H   0  0  0  0  0  0  0  0  0  0  0  0
    0.1865    0.0132   -1.9981 O   0  0  0  0  0  0  0  0  0  0  0  0
    0.8035   -0.1697   -2.7283 H   0  0  0  0  0  0  0  0  0  0  0  0
   -0.1603    1.8696    0.2294 C   0  0  0  0  0  0  0  0  0  0  0  0
    0.8472    2.5670    0.2190 O   0  0  0  0  0  0  0  0  0  0  0  0
   -1.3971    2.4799    0.1035 N   0  0  0  0  0  0  0  0  0  0  0  0
   -2.2121    1.8895    0.2325 H   0  0  0  0  0  0  0  0  0  0  0  0
   -1.5756    3.9229    0.0022 C   0  0  0  0  0  0  0  0  0  0  0  0
   -1.0307    4.3166   -0.8624 H   0  0  0  0  0  0  0  0  0  0  0  0
   -2.6357    4.1648   -0.1201 H   0  0  0  0  0  0  0  0  0  0  0  0
   -1.2081    4.4187    0.9068 H   0  0  0  0  0  0  0  0  0  0  0  0
  1  2  1  0  0  0  0
  2  3  1  0  0  0  0
  2  4  1  0  0  0  0
  2  5  1  0  0  0  0
  5  6  2  0  0  0  0
  5  7  1  0  0  0  0
  7  8  1  0  0  0  0
  7  9  1  0  0  0  0
  9 10  1  0  0  0  0
  9 11  1  0  0  0  0
  9 19  1  0  0  0  0
 11 12  1  0  0  0  0
 11 13  1  0  0  0  0
 11 17  1  0  0  0  0
 13 14  1  0  0  0  0
 13 15  1  0  0  0  0
 13 16  1  0  0  0  0
 17 18  1  0  0  0  0
 19 20  2  0  0  0  0
 19 21  1  0  0  0  0
 21 22  1  0  0  0  0
 21 23  1  0  0  0  0
 23 24  1  0  0  0  0
 23 25  1  0  0  0  0
 23 26  1  0  0  0  0
M  END
$$$$

  -OEChem-01062216093D

 26 25  0     1  0  0  0  0  0999 V2000
   -2.8721   -3.2091    1.4071 H   0  0  0  0  0  0  0  0  0  0  0  0
   -2.8302   -2.3221    0.7686 C   0  0  0  0  0  0  0  0  0  0  0  0
   -3.7353   -1.7313    0.9279 H   0  0  0  0  0  0  0  0  0  0  0  0
   -2.7896   -2.6419   -0.2755 H   0  0  0  0  0  0  0  0  0  0  0  0
   -1.6046   -1.4940    1.1050 C   0  0  0  0  0  0  0  0  0  0  0  0
   -0.8528   -1.8562    1.9946 O   0  0  0  0  0  0  0  0  0  0  0  0
   -1.3547   -0.3307    0.4056 N   0  0  0  0  0  0  0  0  0  0  0  0
   -1.9033   -0.2203   -0.4440 H   0  0  0  0  0  0  0  0  0  0  0  0
   -0.0379    0.3451    0.3902 C   0  0  1  0  0  0  0  0  0  0  0  0
    0.4733    0.1828    1.3447 H   0  0  0  0  0  0  0  0  0  0  0  0
    0.8380   -0.2308   -0.7481 C   0  0  1  0  0  0  0  0  0  0  0  0
    1.7980    0.2974   -0.7375 H   0  0  0  0  0  0  0  0  0  0  0  0
    1.1386   -1.7240   -0.6155 C   0  0  0  0  0  0  0  0  0  0  0  0
    0.2384   -2.3231   -0.7767 H   0  0  0  0  0  0  0  0  0  0  0  0
    1.8868   -2.0228   -1.3553 H   0  0  0  0  0  0  0  0  0  0  0  0
    1.5337   -1.9446    0.3811 H   0  0  0  0  0  0  0  0  0  0  0  0
    0.1948   -0.0043   -2.0081 O   0  0  0  0  0  0  0  0  0  0  0  0
    0.8176   -0.1717   -2.7369 H   0  0  0  0  0  0  0  0  0  0  0  0
   -0.1596    1.8748    0.2174 C   0  0  0  0  0  0  0  0  0  0  0  0
    0.8245    2.5675   -0.0143 O   0  0  0  0  0  0  0  0  0  0  0  0
   -1.3820    2.4965    0.4074 N   0  0  0  0  0  0  0  0  0  0  0  0
   -2.1447    1.9074    0.7276 H   0  0  0  0  0  0  0  0  0  0  0  0
   -1.5647    3.9422    0.3817 C   0  0  0  0  0  0  0  0  0  0  0  0
   -1.2400    4.3524   -0.5804 H   0  0  0  0  0  0  0  0  0  0  0  0
   -2.6205    4.1921    0.5237 H   0  0  0  0  0  0  0  0  0  0  0  0
   -0.9852    4.4158    1.1810 H   0  0  0  0  0  0  0  0  0  0  0  0
  1  2  1  0  0  0  0
  2  3  1  0  0  0  0
  2  4  1  0  0  0  0
  2  5  1  0  0  0  0
  5  6  2  0  0  0  0
  5  7  1  0  0  0  0
  7  8  1  0  0  0  0
  7  9  1  0  0  0  0
  9 10  1  0  0  0  0
  9 11  1  0  0  0  0
  9 19  1  0  0  0  0
 11 12  1  0  0  0  0
 11 13  1  0  0  0  0
 11 17  1  0  0  0  0
 13 14  1  0  0  0  0
 13 15  1  0  0  0  0
 13 16  1  0  0  0  0
 17 18  1  0  0  0  0
 19 20  2  0  0  0  0
 19 21  1  0  0  0  0
 21 22  1  0  0  0  0
 21 23  1  0  0  0  0
 23 24  1  0  0  0  0
 23 25  1  0  0  0  0
 23 26  1  0  0  0  0
M  END
$$$$

  -OEChem-01062216093D

 26 25  0     1  0  0  0  0  0999 V2000
   -2.8692   -3.2055    1.3859 H   0  0  0  0  0  0  0  0  0  0  0  0
   -2.8337   -2.3104    0.7583 C   0  0  0  0  0  0  0  0  0  0  0  0
   -3.7384   -1.7229    0.9319 H   0  0  0  0  0  0  0  0  0  0  0  0
   -2.8014   -2.6177   -0.2899 H   0  0  0  0  0  0  0  0  0  0  0  0
   -1.6059   -1.4853    1.0950 C   0  0  0  0  0  0  0  0  0  0  0  0
   -0.8562   -1.8472    1.9869 O   0  0  0  0  0  0  0  0  0  0  0  0
   -1.3531   -0.3210    0.3988 N   0  0  0  0  0  0  0  0  0  0  0  0
   -1.9122   -0.1955   -0.4421 H   0  0  0  0  0  0  0  0  0  0  0  0
   -0.0351    0.3508    0.3799 C   0  0  1  0  0  0  0  0  0  0  0  0
    0.4760    0.1899    1.3344 H   0  0  0  0  0  0  0  0  0  0  0  0
    0.8400   -0.2382   -0.7537 C   0  0  1  0  0  0  0  0  0  0  0  0
    1.8008    0.2887   -0.7460 H   0  0  0  0  0  0  0  0  0  0  0  0
    1.1403   -1.7304   -0.6088 C   0  0  0  0  0  0  0  0  0  0  0  0
    0.2405   -2.3306   -0.7681 H   0  0  0  0  0  0  0  0  0  0  0  0
    1.8902   -2.0350   -1.3445 H   0  0  0  0  0  0  0  0  0  0  0  0
    1.5328   -1.9433    0.3904 H   0  0  0  0  0  0  0  0  0  0  0  0
    0.1990   -0.0214   -2.0167 O   0  0  0  0  0  0  0  0  0  0  0  0
    0.8322   -0.1607   -2.7422 H   0  0  0  0  0  0  0  0  0  0  0  0
   -0.1656    1.8810    0.2112 C   0  0  0  0  0  0  0  0  0  0  0  0
    0.7467    2.5652   -0.2386 O   0  0  0  0  0  0  0  0  0  0  0  0
   -1.2896    2.5203    0.7054 N   0  0  0  0  0  0  0  0  0  0  0  0
   -1.9738    1.9363    1.1780 H   0  0  0  0  0  0  0  0  0  0  0  0
   -1.4495    3.9687    0.7338 C   0  0  0  0  0  0  0  0  0  0  0  0
   -1.3755    4.3823   -0.2775 H   0  0  0  0  0  0  0  0  0  0  0  0
   -2.4292    4.2326    1.1432 H   0  0  0  0  0  0  0  0  0  0  0  0
   -0.6769    4.4270    1.3600 H   0  0  0  0  0  0  0  0  0  0  0  0
  1  2  1  0  0  0  0
  2  3  1  0  0  0  0
  2  4  1  0  0  0  0
  2  5  1  0  0  0  0
  5  6  2  0  0  0  0
  5  7  1  0  0  0  0
  7  8  1  0  0  0  0
  7  9  1  0  0  0  0
  9 10  1  0  0  0  0
  9 11  1  0  0  0  0
  9 19  1  0  0  0  0
 11 12  1  0  0  0  0
 11 13  1  0  0  0  0
 11 17  1  0  0  0  0
 13 14  1  0  0  0  0
 13 15  1  0  0  0  0
 13 16  1  0  0  0  0
 17 18  1  0  0  0  0
 19 20  2  0  0  0  0
 19 21  1  0  0  0  0
 21 22  1  0  0  0  0
 21 23  1  0  0  0  0
 23 24  1  0  0  0  0
 23 25  1  0  0  0  0
 23 26  1  0  0  0  0
M  END
$$$$

  -OEChem-01062216093D

 26 25  0     1  0  0  0  0  0999 V2000
   -2.8823   -3.1906    1.3751 H   0  0  0  0  0  0  0  0  0  0  0  0
   -2.8433   -2.2930    0.7515 C   0  0  0  0  0  0  0  0  0  0  0  0
   -3.7418   -1.6986    0.9334 H   0  0  0  0  0  0  0  0  0  0  0  0
   -2.8201   -2.5951   -0.2983 H   0  0  0  0  0  0  0  0  0  0  0  0
   -1.6072   -1.4790    1.0840 C   0  0  0  0  0  0  0  0  0  0  0  0
   -0.8570   -1.8456    1.9737 O   0  0  0  0  0  0  0  0  0  0  0  0
   -1.3520   -0.3118    0.3945 N   0  0  0  0  0  0  0  0  0  0  0  0
   -1.9222   -0.1716   -0.4365 H   0  0  0  0  0  0  0  0  0  0  0  0
   -0.0332    0.3560    0.3696 C   0  0  1  0  0  0  0  0  0  0  0  0
    0.4796    0.1938    1.3227 H   0  0  0  0  0  0  0  0  0  0  0  0
    0.8413   -0.2444   -0.7598 C   0  0  1  0  0  0  0  0  0  0  0  0
    1.8000    0.2863   -0.7552 H   0  0  0  0  0  0  0  0  0  0  0  0
    1.1471   -1.7340   -0.6015 C   0  0  0  0  0  0  0  0  0  0  0  0
    0.2498   -2.3388   -0.7583 H   0  0  0  0  0  0  0  0  0  0  0  0
    1.9000   -2.0418   -1.3329 H   0  0  0  0  0  0  0  0  0  0  0  0
    1.5378   -1.9372    0.4005 H   0  0  0  0  0  0  0  0  0  0  0  0
    0.2043   -0.0395   -2.0268 O   0  0  0  0  0  0  0  0  0  0  0  0
    0.8485   -0.1457   -2.7480 H   0  0  0  0  0  0  0  0  0  0  0  0
   -0.1720    1.8867    0.2109 C   0  0  0  0  0  0  0  0  0  0  0  0
    0.6128    2.5600   -0.4475 O   0  0  0  0  0  0  0  0  0  0  0  0
   -1.1173    2.5438    0.9790 N   0  0  0  0  0  0  0  0  0  0  0  0
   -1.6945    1.9676    1.5856 H   0  0  0  0  0  0  0  0  0  0  0  0
   -1.2501    3.9943    1.0375 C   0  0  0  0  0  0  0  0  0  0  0  0
   -1.4502    4.4016    0.0409 H   0  0  0  0  0  0  0  0  0  0  0  0
   -2.0788    4.2713    1.6963 H   0  0  0  0  0  0  0  0  0  0  0  0
   -0.3322    4.4476    1.4265 H   0  0  0  0  0  0  0  0  0  0  0  0
  1  2  1  0  0  0  0
  2  3  1  0  0  0  0
  2  4  1  0  0  0  0
  2  5  1  0  0  0  0
  5  6  2  0  0  0  0
  5  7  1  0  0  0  0
  7  8  1  0  0  0  0
  7  9  1  0  0  0  0
  9 10  1  0  0  0  0
  9 11  1  0  0  0  0
  9 19  1  0  0  0  0
 11 12  1  0  0  0  0
 11 13  1  0  0  0  0
 11 17  1  0  0  0  0
 13 14  1  0  0  0  0
 13 15  1  0  0  0  0
 13 16  1  0  0  0  0
 17 18  1  0  0  0  0
 19 20  2  0  0  0  0
 19 21  1  0  0  0  0
 21 22  1  0  0  0  0
 21 23  1  0  0  0  0
 23 24  1  0  0  0  0
 23 25  1  0  0  0  0
 23 26  1  0  0  0  0
M  END
$$$$

  -OEChem-01062216093D

 26 25  0     1  0  0  0  0  0999 V2000
   -2.8909   -3.1829    1.3674 H   0  0  0  0  0  0  0  0  0  0  0  0
   -2.8492   -2.2846    0.7449 C   0  0  0  0  0  0  0  0  0  0  0  0
   -3.7456   -1.6872    0.9279 H   0  0  0  0  0  0  0  0  0  0  0  0
   -2.8277   -2.5855   -0.3054 H   0  0  0  0  0  0  0  0  0  0  0  0
   -1.6098   -1.4754    1.0774 C   0  0  0  0  0  0  0  0  0  0  0  0
   -0.8584   -1.8471    1.9642 O   0  0  0  0  0  0  0  0  0  0  0  0
   -1.3547   -0.3037    0.3958 N   0  0  0  0  0  0  0  0  0  0  0  0
   -1.9304   -0.1536   -0.4297 H   0  0  0  0  0  0  0  0  0  0  0  0
   -0.0356    0.3599    0.3674 C   0  0  1  0  0  0  0  0  0  0  0  0
    0.4805    0.1915    1.3178 H   0  0  0  0  0  0  0  0  0  0  0  0
    0.8365   -0.2477   -0.7613 C   0  0  1  0  0  0  0  0  0  0  0  0
    1.7926    0.2879   -0.7582 H   0  0  0  0  0  0  0  0  0  0  0  0
    1.1474   -1.7357   -0.5962 C   0  0  0  0  0  0  0  0  0  0  0  0
    0.2517   -2.3439   -0.7481 H   0  0  0  0  0  0  0  0  0  0  0  0
    1.8990   -2.0451   -1.3283 H   0  0  0  0  0  0  0  0  0  0  0  0
    1.5411   -1.9331    0.4056 H   0  0  0  0  0  0  0  0  0  0  0  0
    0.2050   -0.0512   -2.0322 O   0  0  0  0  0  0  0  0  0  0  0  0
    0.8604   -0.1125   -2.7481 H   0  0  0  0  0  0  0  0  0  0  0  0
   -0.1742    1.8921    0.2218 C   0  0  0  0  0  0  0  0  0  0  0  0
    0.4318    2.5483   -0.6177 O   0  0  0  0  0  0  0  0  0  0  0  0
   -0.8702    2.5738    1.2044 N   0  0  0  0  0  0  0  0  0  0  0  0
   -1.3229    2.0128    1.9214 H   0  0  0  0  0  0  0  0  0  0  0  0
   -0.9746    4.0265    1.2667 C   0  0  0  0  0  0  0  0  0  0  0  0
   -1.4417    4.4168    0.3565 H   0  0  0  0  0  0  0  0  0  0  0  0
   -1.5858    4.3245    2.1240 H   0  0  0  0  0  0  0  0  0  0  0  0
    0.0174    4.4774    1.3756 H   0  0  0  0  0  0  0  0  0  0  0  0
  1  2  1  0  0  0  0
  2  3  1  0  0  0  0
  2  4  1  0  0  0  0
  2  5  1  0  0  0  0
  5  6  2  0  0  0  0
  5  7  1  0  0  0  0
  7  8  1  0  0  0  0
  7  9  1  0  0  0  0
  9 10  1  0  0  0  0
  9 11  1  0  0  0  0
  9 19  1  0  0  0  0
 11 12  1  0  0  0  0
 11 13  1  0  0  0  0
 11 17  1  0  0  0  0
 13 14  1  0  0  0  0
 13 15  1  0  0  0  0
 13 16  1  0  0  0  0
 17 18  1  0  0  0  0
 19 20  2  0  0  0  0
 19 21  1  0  0  0  0
 21 22  1  0  0  0  0
 21 23  1  0  0  0  0
 23 24  1  0  0  0  0
 23 25  1  0  0  0  0
 23 26  1  0  0  0  0
M  END
$$$$

  -OEChem-01062216093D

 26 25  0     1  0  0  0  0  0999 V2000
   -2.8975   -3.1793    1.3421 H   0  0  0  0  0  0  0  0  0  0  0  0
   -2.8577   -2.2715    0.7334 C   0  0  0  0  0  0  0  0  0  0  0  0
   -3.7509   -1.6743    0.9321 H   0  0  0  0  0  0  0  0  0  0  0  0
   -2.8444   -2.5559   -0.3217 H   0  0  0  0  0  0  0  0  0  0  0  0
   -1.6139   -1.4709    1.0694 C   0  0  0  0  0  0  0  0  0  0  0  0
   -0.8584   -1.8555    1.9478 O   0  0  0  0  0  0  0  0  0  0  0  0
   -1.3579   -0.2927    0.4001 N   0  0  0  0  0  0  0  0  0  0  0  0
   -1.9431   -0.1250   -0.4154 H   0  0  0  0  0  0  0  0  0  0  0  0
   -0.0373    0.3641    0.3655 C   0  0  1  0  0  0  0  0  0  0  0  0
    0.4815    0.1840    1.3123 H   0  0  0  0  0  0  0  0  0  0  0  0
    0.8338   -0.2498   -0.7620 C   0  0  1  0  0  0  0  0  0  0  0  0
    1.7870    0.2905   -0.7587 H   0  0  0  0  0  0  0  0  0  0  0  0
    1.1497   -1.7353   -0.5876 C   0  0  0  0  0  0  0  0  0  0  0  0
    0.2550   -2.3464   -0.7340 H   0  0  0  0  0  0  0  0  0  0  0  0
    1.9006   -2.0474   -1.3190 H   0  0  0  0  0  0  0  0  0  0  0  0
    1.5460   -1.9254    0.4146 H   0  0  0  0  0  0  0  0  0  0  0  0
    0.2133   -0.0642   -2.0394 O   0  0  0  0  0  0  0  0  0  0  0  0
    0.8719   -0.1314   -2.7514 H   0  0  0  0  0  0  0  0  0  0  0  0
   -0.1660    1.8994    0.2400 C   0  0  0  0  0  0  0  0  0  0  0  0
    0.1792    2.5345   -0.7493 O   0  0  0  0  0  0  0  0  0  0  0  0
   -0.5543    2.6067    1.3646 N   0  0  0  0  0  0  0  0  0  0  0  0
   -0.8375    2.0643    2.1767 H   0  0  0  0  0  0  0  0  0  0  0  0
   -0.6541    4.0603    1.4147 C   0  0  0  0  0  0  0  0  0  0  0  0
   -1.3744    4.4212    0.6731 H   0  0  0  0  0  0  0  0  0  0  0  0
   -0.9882    4.3816    2.4059 H   0  0  0  0  0  0  0  0  0  0  0  0
    0.3200    4.5182    1.2138 H   0  0  0  0  0  0  0  0  0  0  0  0
  1  2  1  0  0  0  0
  2  3  1  0  0  0  0
  2  4  1  0  0  0  0
  2  5  1  0  0  0  0
  5  6  2  0  0  0  0
  5  7  1  0  0  0  0
  7  8  1  0  0  0  0
  7  9  1  0  0  0  0
  9 10  1  0  0  0  0
  9 11  1  0  0  0  0
  9 19  1  0  0  0  0
 11 12  1  0  0  0  0
 11 13  1  0  0  0  0
 11 17  1  0  0  0  0
 13 14  1  0  0  0  0
 13 15  1  0  0  0  0
 13 16  1  0  0  0  0
 17 18  1  0  0  0  0
 19 20  2  0  0  0  0
 19 21  1  0  0  0  0
 21 22  1  0  0  0  0
 21 23  1  0  0  0  0
 23 24  1  0  0  0  0
 23 25  1  0  0  0  0
 23 26  1  0  0  0  0
M  END
$$$$

  -OEChem-01062216093D

 26 25  0     1  0  0  0  0  0999 V2000
   -2.9350   -3.1562    1.3100 H   0  0  0  0  0  0  0  0  0  0  0  0
   -2.8987   -2.2241    0.7392 C   0  0  0  0  0  0  0  0  0  0  0  0
   -3.7649   -1.6133    1.0054 H   0  0  0  0  0  0  0  0  0  0  0  0
   -2.9424   -2.4625   -0.3264 H   0  0  0  0  0  0  0  0  0  0  0  0
   -1.6193   -1.4705    1.0496 C   0  0  0  0  0  0  0  0  0  0  0  0
   -0.8505   -1.8957    1.8977 O   0  0  0  0  0  0  0  0  0  0  0  0
   -1.3480   -0.2862    0.3977 N   0  0  0  0  0  0  0  0  0  0  0  0
   -1.9557   -0.0711   -0.3899 H   0  0  0  0  0  0  0  0  0  0  0  0
   -0.0219    0.3571    0.3610 C   0  0  1  0  0  0  0  0  0  0  0  0
    0.4915    0.1594    1.3069 H   0  0  0  0  0  0  0  0  0  0  0  0
    0.8629   -0.2472   -0.7612 C   0  0  1  0  0  0  0  0  0  0  0  0
    1.8147    0.2951   -0.7412 H   0  0  0  0  0  0  0  0  0  0  0  0
    1.1771   -1.7331   -0.5880 C   0  0  0  0  0  0  0  0  0  0  0  0
    0.2839   -2.3431   -0.7475 H   0  0  0  0  0  0  0  0  0  0  0  0
    1.9368   -2.0429   -1.3114 H   0  0  0  0  0  0  0  0  0  0  0  0
    1.5608   -1.9272    0.4183 H   0  0  0  0  0  0  0  0  0  0  0  0
    0.2697   -0.0617   -2.0500 O   0  0  0  0  0  0  0  0  0  0  0  0
    0.9241   -0.2026   -2.7544 H   0  0  0  0  0  0  0  0  0  0  0  0
   -0.1364    1.8947    0.2581 C   0  0  0  0  0  0  0  0  0  0  0  0
   -0.1798    2.5021   -0.8042 O   0  0  0  0  0  0  0  0  0  0  0  0
   -0.1910    2.6278    1.4312 N   0  0  0  0  0  0  0  0  0  0  0  0
   -0.2286    2.1067    2.3033 H   0  0  0  0  0  0  0  0  0  0  0  0
   -0.3397    4.0778    1.4695 C   0  0  0  0  0  0  0  0  0  0  0  0
   -1.2807    4.3792    0.9972 H   0  0  0  0  0  0  0  0  0  0  0  0
   -0.3431    4.4303    2.5054 H   0  0  0  0  0  0  0  0  0  0  0  0
    0.4899    4.5618    0.9436 H   0  0  0  0  0  0  0  0  0  0  0  0
  1  2  1  0  0  0  0
  2  3  1  0  0  0  0
  2  4  1  0  0  0  0
  2  5  1  0  0  0  0
  5  6  2  0  0  0  0
  5  7  1  0  0  0  0
  7  8  1  0  0  0  0
  7  9  1  0  0  0  0
  9 10  1  0  0  0  0
  9 11  1  0  0  0  0
  9 19  1  0  0  0  0
 11 12  1  0  0  0  0
 11 13  1  0  0  0  0
 11 17  1  0  0  0  0
 13 14  1  0  0  0  0
 13 15  1  0  0  0  0
 13 16  1  0  0  0  0
 17 18  1  0  0  0  0
 19 20  2  0  0  0  0
 19 21  1  0  0  0  0
 21 22  1  0  0  0  0
 21 23  1  0  0  0  0
 23 24  1  0  0  0  0
 23 25  1  0  0  0  0
 23 26  1  0  0  0  0
M  END
$$$$

  -OEChem-01062216093D

 26 25  0     1  0  0  0  0  0999 V2000
   -2.9976   -3.0974    1.3262 H   0  0  0  0  0  0  0  0  0  0  0  0
   -2.9372   -2.1656    0.7568 C   0  0  0  0  0  0  0  0  0  0  0  0
   -3.7726   -1.5222    1.0434 H   0  0  0  0  0  0  0  0  0  0  0  0
   -3.0137   -2.3985   -0.3081 H   0  0  0  0  0  0  0  0  0  0  0  0
   -1.6224   -1.4638    1.0400 C   0  0  0  0  0  0  0  0  0  0  0  0
   -0.8441   -1.9317    1.8567 O   0  0  0  0  0  0  0  0  0  0  0  0
   -1.3235   -0.2841    0.3928 N   0  0  0  0  0  0  0  0  0  0  0  0
   -1.9538   -0.0103   -0.3583 H   0  0  0  0  0  0  0  0  0  0  0  0
    0.0099    0.3415    0.3597 C   0  0  1  0  0  0  0  0  0  0  0  0
    0.5127    0.1337    1.3091 H   0  0  0  0  0  0  0  0  0  0  0  0
    0.9072   -0.2453   -0.7600 C   0  0  1  0  0  0  0  0  0  0  0  0
    1.8636    0.2876   -0.7188 H   0  0  0  0  0  0  0  0  0  0  0  0
    1.2011   -1.7369   -0.6033 C   0  0  0  0  0  0  0  0  0  0  0  0
    0.2998   -2.3326   -0.7729 H   0  0  0  0  0  0  0  0  0  0  0  0
    1.9602   -2.0484   -1.3265 H   0  0  0  0  0  0  0  0  0  0  0  0
    1.5773   -1.9481    0.4023 H   0  0  0  0  0  0  0  0  0  0  0  0
    0.3343   -0.0397   -2.0535 O   0  0  0  0  0  0  0  0  0  0  0  0
    0.9686   -0.2654   -2.7540 H   0  0  0  0  0  0  0  0  0  0  0  0
   -0.0959    1.8779    0.2564 C   0  0  0  0  0  0  0  0  0  0  0  0
   -0.5418    2.4395   -0.7366 O   0  0  0  0  0  0  0  0  0  0  0  0
    0.1654    2.6451    1.3793 N   0  0  0  0  0  0  0  0  0  0  0  0
    0.4030    2.1526    2.2359 H   0  0  0  0  0  0  0  0  0  0  0  0
   -0.0413    4.0875    1.4330 C   0  0  0  0  0  0  0  0  0  0  0  0
   -1.0974    4.3297    1.2745 H   0  0  0  0  0  0  0  0  0  0  0  0
    0.2609    4.4766    2.4101 H   0  0  0  0  0  0  0  0  0  0  0  0
    0.5549    4.5887    0.6632 H   0  0  0  0  0  0  0  0  0  0  0  0
  1  2  1  0  0  0  0
  2  3  1  0  0  0  0
  2  4  1  0  0  0  0
  2  5  1  0  0  0  0
  5  6  2  0  0  0  0
  5  7  1  0  0  0  0
  7  8  1  0  0  0  0
  7  9  1  0  0  0  0
  9 10  1  0  0  0  0
  9 11  1  0  0  0  0
  9 19  1  0  0  0  0
 11 12  1  0  0  0  0
 11 13  1  0  0  0  0
 11 17  1  0  0  0  0
 13 14  1  0  0  0  0
 13 15  1  0  0  0  0
 13 16  1  0  0  0  0
 17 18  1  0  0  0  0
 19 20  2  0  0  0  0
 19 21  1  0  0  0  0
 21 22  1  0  0  0  0
 21 23  1  0  0  0  0
 23 24  1  0  0  0  0
 23 25  1  0  0  0  0
 23 26  1  0  0  0  0
M  END
$$$$

  -OEChem-01062216093D

 26 25  0     1  0  0  0  0  0999 V2000
   -3.0412   -3.0626    1.3503 H   0  0  0  0  0  0  0  0  0  0  0  0
   -2.9643   -2.1344    0.7772 C   0  0  0  0  0  0  0  0  0  0  0  0
   -3.7747   -1.4659    1.0775 H   0  0  0  0  0  0  0  0  0  0  0  0
   -3.0680   -2.3671   -0.2855 H   0  0  0  0  0  0  0  0  0  0  0  0
   -1.6246   -1.4706    1.0332 C   0  0  0  0  0  0  0  0  0  0  0  0
   -0.8382   -1.9670    1.8252 O   0  0  0  0  0  0  0  0  0  0  0  0
   -1.3076   -0.2975    0.3835 N   0  0  0  0  0  0  0  0  0  0  0  0
   -1.9584    0.0260   -0.3300 H   0  0  0  0  0  0  0  0  0  0  0  0
    0.0266    0.3258    0.3625 C   0  0  1  0  0  0  0  0  0  0  0  0
    0.5172    0.1190    1.3184 H   0  0  0  0  0  0  0  0  0  0  0  0
    0.9366   -0.2400   -0.7551 C   0  0  1  0  0  0  0  0  0  0  0  0
    1.8940    0.2892   -0.6970 H   0  0  0  0  0  0  0  0  0  0  0  0
    1.2220   -1.7350   -0.6175 C   0  0  0  0  0  0  0  0  0  0  0  0
    0.3168   -2.3224   -0.7955 H   0  0  0  0  0  0  0  0  0  0  0  0
    1.9804   -2.0430   -1.3429 H   0  0  0  0  0  0  0  0  0  0  0  0
    1.5948   -1.9610    0.3862 H   0  0  0  0  0  0  0  0  0  0  0  0
    0.3713   -0.0130   -2.0482 O   0  0  0  0  0  0  0  0  0  0  0  0
    0.9850   -0.2883   -2.7495 H   0  0  0  0  0  0  0  0  0  0  0  0
   -0.0812    1.8596    0.2448 C   0  0  0  0  0  0  0  0  0  0  0  0
   -0.7912    2.3866   -0.6045 O   0  0  0  0  0  0  0  0  0  0  0  0
    0.4551    2.6582    1.2412 N   0  0  0  0  0  0  0  0  0  0  0  0
    0.9219    2.1932    2.0145 H   0  0  0  0  0  0  0  0  0  0  0  0
    0.2613    4.1019    1.3043 C   0  0  0  0  0  0  0  0  0  0  0  0
   -0.7990    4.3410    1.4365 H   0  0  0  0  0  0  0  0  0  0  0  0
    0.8191    4.5214    2.1468 H   0  0  0  0  0  0  0  0  0  0  0  0
    0.6181    4.5772    0.3845 H   0  0  0  0  0  0  0  0  0  0  0  0
  1  2  1  0  0  0  0
  2  3  1  0  0  0  0
  2  4  1  0  0  0  0
  2  5  1  0  0  0  0
  5  6  2  0  0  0  0
  5  7  1  0  0  0  0
  7  8  1  0  0  0  0
  7  9  1  0  0  0  0
  9 10  1  0  0  0  0
  9 11  1  0  0  0  0
  9 19  1  0  0  0  0
 11 12  1  0  0  0  0
 11 13  1  0  0  0  0
 11 17  1  0  0  0  0
 13 14  1  0  0  0  0
 13 15  1  0  0  0  0
 13 16  1  0  0  0  0
 17 18  1  0  0  0  0
 19 20  2  0  0  0  0
 19 21  1  0  0  0  0
 21 22  1  0  0  0  0
 21 23  1  0  0  0  0
 23 24  1  0  0  0  0
 23 25  1  0  0  0  0
 23 26  1  0  0  0  0
M  END
$$$$

  -OEChem-01062216093D

 26 25  0     1  0  0  0  0  0999 V2000
   -3.0631   -3.0520    1.3649 H   0  0  0  0  0  0  0  0  0  0  0  0
   -2.9810   -2.1224    0.7949 C   0  0  0  0  0  0  0  0  0  0  0  0
   -3.7739   -1.4415    1.1135 H   0  0  0  0  0  0  0  0  0  0  0  0
   -3.1085   -2.3478   -0.2666 H   0  0  0  0  0  0  0  0  0  0  0  0
   -1.6252   -1.4834    1.0286 C   0  0  0  0  0  0  0  0  0  0  0  0
   -0.8324   -1.9979    1.8026 O   0  0  0  0  0  0  0  0  0  0  0  0
   -1.2984   -0.3151    0.3755 N   0  0  0  0  0  0  0  0  0  0  0  0
   -1.9692    0.0491   -0.2989 H   0  0  0  0  0  0  0  0  0  0  0  0
    0.0328    0.3157    0.3662 C   0  0  1  0  0  0  0  0  0  0  0  0
    0.5159    0.1153    1.3271 H   0  0  0  0  0  0  0  0  0  0  0  0
    0.9505   -0.2340   -0.7513 C   0  0  1  0  0  0  0  0  0  0  0  0
    1.9073    0.2956   -0.6858 H   0  0  0  0  0  0  0  0  0  0  0  0
    1.2361   -1.7298   -0.6263 C   0  0  0  0  0  0  0  0  0  0  0  0
    0.3312   -2.3162   -0.8090 H   0  0  0  0  0  0  0  0  0  0  0  0
    1.9947   -2.0312   -1.3541 H   0  0  0  0  0  0  0  0  0  0  0  0
    1.6084   -1.9640    0.3758 H   0  0  0  0  0  0  0  0  0  0  0  0
    0.3855    0.0057   -2.0423 O   0  0  0  0  0  0  0  0  0  0  0  0
    0.9834   -0.2999   -2.7450 H   0  0  0  0  0  0  0  0  0  0  0  0
   -0.0804    1.8474    0.2332 C   0  0  0  0  0  0  0  0  0  0  0  0
   -0.9636    2.3590   -0.4477 O   0  0  0  0  0  0  0  0  0  0  0  0
    0.6915    2.6648    1.0420 N   0  0  0  0  0  0  0  0  0  0  0  0
    1.3369    2.2162    1.6855 H   0  0  0  0  0  0  0  0  0  0  0  0
    0.5404    4.1139    1.0948 C   0  0  0  0  0  0  0  0  0  0  0  0
   -0.4564    4.3821    1.4600 H   0  0  0  0  0  0  0  0  0  0  0  0
    1.2848    4.5470    1.7696 H   0  0  0  0  0  0  0  0  0  0  0  0
    0.6813    4.5508    0.1006 H   0  0  0  0  0  0  0  0  0  0  0  0
  1  2  1  0  0  0  0
  2  3  1  0  0  0  0
  2  4  1  0  0  0  0
  2  5  1  0  0  0  0
  5  6  2  0  0  0  0
  5  7  1  0  0  0  0
  7  8  1  0  0  0  0
  7  9  1  0  0  0  0
  9 10  1  0  0  0  0
  9 11  1  0  0  0  0
  9 19  1  0  0  0  0
 11 12  1  0  0  0  0
 11 13  1  0  0  0  0
 11 17  1  0  0  0  0
 13 14  1  0  0  0  0
 13 15  1  0  0  0  0
 13 16  1  0  0  0  0
 17 18  1  0  0  0  0
 19 20  2  0  0  0  0
 19 21  1  0  0  0  0
 21 22  1  0  0  0  0
 21 23  1  0  0  0  0
 23 24  1  0  0  0  0
 23 25  1  0  0  0  0
 23 26  1  0  0  0  0
M  END
$$$$

  -OEChem-01062216093D

 26 25  0     1  0  0  0  0  0999 V2000
   -3.0827   -3.0462    1.3815 H   0  0  0  0  0  0  0  0  0  0  0  0
   -2.9983   -2.1113    0.8206 C   0  0  0  0  0  0  0  0  0  0  0  0
   -3.7640   -1.4169    1.1750 H   0  0  0  0  0  0  0  0  0  0  0  0
   -3.1666   -2.3194   -0.2388 H   0  0  0  0  0  0  0  0  0  0  0  0
   -1.6211   -1.5063    1.0159 C   0  0  0  0  0  0  0  0  0  0  0  0
   -0.8171   -2.0459    1.7608 O   0  0  0  0  0  0  0  0  0  0  0  0
   -1.2897   -0.3385    0.3649 N   0  0  0  0  0  0  0  0  0  0  0  0
   -1.9852    0.0731   -0.2553 H   0  0  0  0  0  0  0  0  0  0  0  0
    0.0363    0.3041    0.3734 C   0  0  1  0  0  0  0  0  0  0  0  0
    0.5134    0.1085    1.3386 H   0  0  0  0  0  0  0  0  0  0  0  0
    0.9626   -0.2272   -0.7459 C   0  0  1  0  0  0  0  0  0  0  0  0
    1.9176    0.3044   -0.6717 H   0  0  0  0  0  0  0  0  0  0  0  0
    1.2540   -1.7235   -0.6411 C   0  0  0  0  0  0  0  0  0  0  0  0
    0.3518   -2.3111   -0.8344 H   0  0  0  0  0  0  0  0  0  0  0  0
    2.0164   -2.0122   -1.3705 H   0  0  0  0  0  0  0  0  0  0  0  0
    1.6245   -1.9697    0.3587 H   0  0  0  0  0  0  0  0  0  0  0  0
    0.3968    0.0269   -2.0339 O   0  0  0  0  0  0  0  0  0  0  0  0
    0.9803   -0.3000   -2.7392 H   0  0  0  0  0  0  0  0  0  0  0  0
   -0.0891    1.8346    0.2319 C   0  0  0  0  0  0  0  0  0  0  0  0
   -1.0898    2.3421   -0.2659 O   0  0  0  0  0  0  0  0  0  0  0  0
    0.8616    2.6608    0.8076 N   0  0  0  0  0  0  0  0  0  0  0  0
    1.6431    2.2211    1.2844 H   0  0  0  0  0  0  0  0  0  0  0  0
    0.7628    4.1155    0.8109 C   0  0  0  0  0  0  0  0  0  0  0  0
   -0.1484    4.4374    1.3262 H   0  0  0  0  0  0  0  0  0  0  0  0
    1.6236    4.5514    1.3269 H   0  0  0  0  0  0  0  0  0  0  0  0
    0.7429    4.5003   -0.2141 H   0  0  0  0  0  0  0  0  0  0  0  0
  1  2  1  0  0  0  0
  2  3  1  0  0  0  0
  2  4  1  0  0  0  0
  2  5  1  0  0  0  0
  5  6  2  0  0  0  0
  5  7  1  0  0  0  0
  7  8  1  0  0  0  0
  7  9  1  0  0  0  0
  9 10  1  0  0  0  0
  9 11  1  0  0  0  0
  9 19  1  0  0  0  0
 11 12  1  0  0  0  0
 11 13  1  0  0  0  0
 11 17  1  0  0  0  0
 13 14  1  0  0  0  0
 13 15  1  0  0  0  0
 13 16  1  0  0  0  0
 17 18  1  0  0  0  0
 19 20  2  0  0  0  0
 19 21  1  0  0  0  0
 21 22  1  0  0  0  0
 21 23  1  0  0  0  0
 23 24  1  0  0  0  0
 23 25  1  0  0  0  0
 23 26  1  0  0  0  0
M  END
$$$$

  -OEChem-01062216093D

 26 25  0     1  0  0  0  0  0999 V2000
   -3.1020   -3.0350    1.3960 H   0  0  0  0  0  0  0  0  0  0  0  0
   -3.0088   -2.1028    0.8321 C   0  0  0  0  0  0  0  0  0  0  0  0
   -3.7543   -1.3926    1.1983 H   0  0  0  0  0  0  0  0  0  0  0  0
   -3.1999   -2.3087   -0.2238 H   0  0  0  0  0  0  0  0  0  0  0  0
   -1.6167   -1.5250    1.0019 C   0  0  0  0  0  0  0  0  0  0  0  0
   -0.8061   -2.0857    1.7237 O   0  0  0  0  0  0  0  0  0  0  0  0
   -1.2811   -0.3555    0.3564 N   0  0  0  0  0  0  0  0  0  0  0  0
   -1.9960    0.0959   -0.2118 H   0  0  0  0  0  0  0  0  0  0  0  0
    0.0409    0.2958    0.3823 C   0  0  1  0  0  0  0  0  0  0  0  0
    0.5135    0.1019    1.3501 H   0  0  0  0  0  0  0  0  0  0  0  0
    0.9727   -0.2241   -0.7394 C   0  0  1  0  0  0  0  0  0  0  0  0
    1.9286    0.3047   -0.6596 H   0  0  0  0  0  0  0  0  0  0  0  0
    1.2638   -1.7215   -0.6492 C   0  0  0  0  0  0  0  0  0  0  0  0
    0.3622   -2.3068   -0.8511 H   0  0  0  0  0  0  0  0  0  0  0  0
    2.0278   -2.0032   -1.3794 H   0  0  0  0  0  0  0  0  0  0  0  0
    1.6313   -1.9785    0.3490 H   0  0  0  0  0  0  0  0  0  0  0  0
    0.4079    0.0420   -2.0259 O   0  0  0  0  0  0  0  0  0  0  0  0
    0.9807   -0.3009   -2.7326 H   0  0  0  0  0  0  0  0  0  0  0  0
   -0.0943    1.8265    0.2388 C   0  0  0  0  0  0  0  0  0  0  0  0
   -1.1707    2.3383   -0.0567 O   0  0  0  0  0  0  0  0  0  0  0  0
    0.9748    2.6525    0.5445 N   0  0  0  0  0  0  0  0  0  0  0  0
    1.8458    2.2138    0.8270 H   0  0  0  0  0  0  0  0  0  0  0  0
    0.9072    4.1074    0.4802 C   0  0  0  0  0  0  0  0  0  0  0  0
    0.1551    4.4877    1.1795 H   0  0  0  0  0  0  0  0  0  0  0  0
    1.8758    4.5429    0.7435 H   0  0  0  0  0  0  0  0  0  0  0  0
    0.6453    4.4338   -0.5318 H   0  0  0  0  0  0  0  0  0  0  0  0
  1  2  1  0  0  0  0
  2  3  1  0  0  0  0
  2  4  1  0  0  0  0
  2  5  1  0  0  0  0
  5  6  2  0  0  0  0
  5  7  1  0  0  0  0
  7  8  1  0  0  0  0
  7  9  1  0  0  0  0
  9 10  1  0  0  0  0
  9 11  1  0  0  0  0
  9 19  1  0  0  0  0
 11 12  1  0  0  0  0
 11 13  1  0  0  0  0
 11 17  1  0  0  0  0
 13 14  1  0  0  0  0
 13 15  1  0  0  0  0
 13 16  1  0  0  0  0
 17 18  1  0  0  0  0
 19 20  2  0  0  0  0
 19 21  1  0  0  0  0
 21 22  1  0  0  0  0
 21 23  1  0  0  0  0
 23 24  1  0  0  0  0
 23 25  1  0  0  0  0
 23 26  1  0  0  0  0
M  END
$$$$

  -OEChem-01062216093D

 26 25  0     1  0  0  0  0  0999 V2000
   -3.1037   -2.9710    1.4611 H   0  0  0  0  0  0  0  0  0  0  0  0
   -3.0177   -2.0416    0.8914 C   0  0  0  0  0  0  0  0  0  0  0  0
   -3.6621   -1.2871    1.3490 H   0  0  0  0  0  0  0  0  0  0  0  0
   -3.3505   -2.2228   -0.1334 H   0  0  0  0  0  0  0  0  0  0  0  0
   -1.5796   -1.5600    0.8893 C   0  0  0  0  0  0  0  0  0  0  0  0
   -0.7134   -2.2214    1.4414 O   0  0  0  0  0  0  0  0  0  0  0  0
   -1.2599   -0.3760    0.2620 N   0  0  0  0  0  0  0  0  0  0  0  0
   -2.0318    0.1929   -0.0808 H   0  0  0  0  0  0  0  0  0  0  0  0
    0.0557    0.2866    0.3340 C   0  0  1  0  0  0  0  0  0  0  0  0
    0.6241   -0.1133    1.1796 H   0  0  0  0  0  0  0  0  0  0  0  0
    0.8660    0.0453   -0.9598 C   0  0  1  0  0  0  0  0  0  0  0  0
    1.8371    0.5419   -0.8636 H   0  0  0  0  0  0  0  0  0  0  0  0
    1.1234   -1.4392   -1.2186 C   0  0  0  0  0  0  0  0  0  0  0  0
    0.1882   -1.9662   -1.4305 H   0  0  0  0  0  0  0  0  0  0  0  0
    1.7933   -1.5644   -2.0740 H   0  0  0  0  0  0  0  0  0  0  0  0
    1.5912   -1.9014   -0.3439 H   0  0  0  0  0  0  0  0  0  0  0  0
    0.1776    0.5835   -2.0919 O   0  0  0  0  0  0  0  0  0  0  0  0
    0.6564    0.3845   -2.9142 H   0  0  0  0  0  0  0  0  0  0  0  0
   -0.1009    1.8030    0.5844 C   0  0  0  0  0  0  0  0  0  0  0  0
   -1.2142    2.2963    0.7439 O   0  0  0  0  0  0  0  0  0  0  0  0
    1.0101    2.6242    0.6885 N   0  0  0  0  0  0  0  0  0  0  0  0
    1.9228    2.2041    0.5434 H   0  0  0  0  0  0  0  0  0  0  0  0
    0.9253    4.0611    0.9206 C   0  0  0  0  0  0  0  0  0  0  0  0
    0.4037    4.2676    1.8611 H   0  0  0  0  0  0  0  0  0  0  0  0
    1.9282    4.4944    0.9802 H   0  0  0  0  0  0  0  0  0  0  0  0
    0.3852    4.5496    0.1028 H   0  0  0  0  0  0  0  0  0  0  0  0
  1  2  1  0  0  0  0
  2  3  1  0  0  0  0
  2  4  1  0  0  0  0
  2  5  1  0  0  0  0
  5  6  2  0  0  0  0
  5  7  1  0  0  0  0
  7  8  1  0  0  0  0
  7  9  1  0  0  0  0
  9 10  1  0  0  0  0
  9 11  1  0  0  0  0
  9 19  1  0  0  0  0
 11 12  1  0  0  0  0
 11 13  1  0  0  0  0
 11 17  1  0  0  0  0
 13 14  1  0  0  0  0
 13 15  1  0  0  0  0
 13 16  1  0  0  0  0
 17 18  1  0  0  0  0
 19 20  2  0  0  0  0
 19 21  1  0  0  0  0
 21 22  1  0  0  0  0
 21 23  1  0  0  0  0
 23 24  1  0  0  0  0
 23 25  1  0  0  0  0
 23 26  1  0  0  0  0
M  END
$$$$

  -OEChem-01062216093D

 26 25  0     1  0  0  0  0  0999 V2000
   -3.1063   -2.9518    1.4698 H   0  0  0  0  0  0  0  0  0  0  0  0
   -3.0187   -2.0234    0.8986 C   0  0  0  0  0  0  0  0  0  0  0  0
   -3.6468   -1.2613    1.3665 H   0  0  0  0  0  0  0  0  0  0  0  0
   -3.3698   -2.2006   -0.1207 H   0  0  0  0  0  0  0  0  0  0  0  0
   -1.5753   -1.5588    0.8737 C   0  0  0  0  0  0  0  0  0  0  0  0
   -0.7070   -2.2390    1.3988 O   0  0  0  0  0  0  0  0  0  0  0  0
   -1.2540   -0.3720    0.2518 N   0  0  0  0  0  0  0  0  0  0  0  0
   -2.0298    0.2139   -0.0494 H   0  0  0  0  0  0  0  0  0  0  0  0
    0.0661    0.2822    0.3302 C   0  0  1  0  0  0  0  0  0  0  0  0
    0.6301   -0.1202    1.1774 H   0  0  0  0  0  0  0  0  0  0  0  0
    0.8805    0.0320   -0.9610 C   0  0  1  0  0  0  0  0  0  0  0  0
    1.8574    0.5160   -0.8623 H   0  0  0  0  0  0  0  0  0  0  0  0
    1.1257   -1.4549   -1.2191 C   0  0  0  0  0  0  0  0  0  0  0  0
    0.1869   -1.9741   -1.4343 H   0  0  0  0  0  0  0  0  0  0  0  0
    1.7972   -1.5859   -2.0724 H   0  0  0  0  0  0  0  0  0  0  0  0
    1.5869   -1.9212   -0.3428 H   0  0  0  0  0  0  0  0  0  0  0  0
    0.2002    0.5737   -2.0966 O   0  0  0  0  0  0  0  0  0  0  0  0
    0.6605    0.3362   -2.9196 H   0  0  0  0  0  0  0  0  0  0  0  0
   -0.0924    1.7986    0.5907 C   0  0  0  0  0  0  0  0  0  0  0  0
   -1.1648    2.2457    0.9873 O   0  0  0  0  0  0  0  0  0  0  0  0
    0.9598    2.6812    0.4058 N   0  0  0  0  0  0  0  0  0  0  0  0
    1.8102    2.3128   -0.0080 H   0  0  0  0  0  0  0  0  0  0  0  0
    0.8377    4.1226    0.5883 C   0  0  0  0  0  0  0  0  0  0  0  0
    0.5228    4.3546    1.6112 H   0  0  0  0  0  0  0  0  0  0  0  0
    1.8005    4.6095    0.4060 H   0  0  0  0  0  0  0  0  0  0  0  0
    0.1019    4.5360   -0.1096 H   0  0  0  0  0  0  0  0  0  0  0  0
  1  2  1  0  0  0  0
  2  3  1  0  0  0  0
  2  4  1  0  0  0  0
  2  5  1  0  0  0  0
  5  6  2  0  0  0  0
  5  7  1  0  0  0  0
  7  8  1  0  0  0  0
  7  9  1  0  0  0  0
  9 10  1  0  0  0  0
  9 11  1  0  0  0  0
  9 19  1  0  0  0  0
 11 12  1  0  0  0  0
 11 13  1  0  0  0  0
 11 17  1  0  0  0  0
 13 14  1  0  0  0  0
 13 15  1  0  0  0  0
 13 16  1  0  0  0  0
 17 18  1  0  0  0  0
 19 20  2  0  0  0  0
 19 21  1  0  0  0  0
 21 22  1  0  0  0  0
 21 23  1  0  0  0  0
 23 24  1  0  0  0  0
 23 25  1  0  0  0  0
 23 26  1  0  0  0  0
M  END
$$$$

  -OEChem-01062216093D

 26 25  0     1  0  0  0  0  0999 V2000
   -3.1117   -2.9235    1.4841 H   0  0  0  0  0  0  0  0  0  0  0  0
   -3.0230   -1.9968    0.9104 C   0  0  0  0  0  0  0  0  0  0  0  0
   -3.6322   -1.2268    1.3902 H   0  0  0  0  0  0  0  0  0  0  0  0
   -3.3966   -2.1703   -0.1015 H   0  0  0  0  0  0  0  0  0  0  0  0
   -1.5741   -1.5512    0.8571 C   0  0  0  0  0  0  0  0  0  0  0  0
   -0.7052   -2.2467    1.3605 O   0  0  0  0  0  0  0  0  0  0  0  0
   -1.2508   -0.3630    0.2377 N   0  0  0  0  0  0  0  0  0  0  0  0
   -2.0283    0.2325   -0.0368 H   0  0  0  0  0  0  0  0  0  0  0  0
    0.0754    0.2809    0.3142 C   0  0  1  0  0  0  0  0  0  0  0  0
    0.6337   -0.1215    1.1653 H   0  0  0  0  0  0  0  0  0  0  0  0
    0.9029    0.0179   -0.9670 C   0  0  1  0  0  0  0  0  0  0  0  0
    1.8831    0.4938   -0.8580 H   0  0  0  0  0  0  0  0  0  0  0  0
    1.1403   -1.4721   -1.2135 C   0  0  0  0  0  0  0  0  0  0  0  0
    0.2002   -1.9864   -1.4339 H   0  0  0  0  0  0  0  0  0  0  0  0
    1.8190   -1.6133   -2.0594 H   0  0  0  0  0  0  0  0  0  0  0  0
    1.5907   -1.9359   -0.3303 H   0  0  0  0  0  0  0  0  0  0  0  0
    0.2401    0.5551   -2.1154 O   0  0  0  0  0  0  0  0  0  0  0  0
    0.6798    0.2625   -2.9324 H   0  0  0  0  0  0  0  0  0  0  0  0
   -0.0839    1.7963    0.5835 C   0  0  0  0  0  0  0  0  0  0  0  0
   -1.0512    2.1994    1.2220 O   0  0  0  0  0  0  0  0  0  0  0  0
    0.8343    2.7278    0.1268 N   0  0  0  0  0  0  0  0  0  0  0  0
    1.5098    2.3997   -0.5568 H   0  0  0  0  0  0  0  0  0  0  0  0
    0.6607    4.1656    0.2950 C   0  0  0  0  0  0  0  0  0  0  0  0
    0.5763    4.4203    1.3568 H   0  0  0  0  0  0  0  0  0  0  0  0
    1.5208    4.7007   -0.1186 H   0  0  0  0  0  0  0  0  0  0  0  0
   -0.2424    4.5057   -0.2225 H   0  0  0  0  0  0  0  0  0  0  0  0
  1  2  1  0  0  0  0
  2  3  1  0  0  0  0
  2  4  1  0  0  0  0
  2  5  1  0  0  0  0
  5  6  2  0  0  0  0
  5  7  1  0  0  0  0
  7  8  1  0  0  0  0
  7  9  1  0  0  0  0
  9 10  1  0  0  0  0
  9 11  1  0  0  0  0
  9 19  1  0  0  0  0
 11 12  1  0  0  0  0
 11 13  1  0  0  0  0
 11 17  1  0  0  0  0
 13 14  1  0  0  0  0
 13 15  1  0  0  0  0
 13 16  1  0  0  0  0
 17 18  1  0  0  0  0
 19 20  2  0  0  0  0
 19 21  1  0  0  0  0
 21 22  1  0  0  0  0
 21 23  1  0  0  0  0
 23 24  1  0  0  0  0
 23 25  1  0  0  0  0
 23 26  1  0  0  0  0
M  END
$$$$

  -OEChem-01062216093D

 26 25  0     1  0  0  0  0  0999 V2000
   -3.1082   -2.9191    1.4851 H   0  0  0  0  0  0  0  0  0  0  0  0
   -3.0229   -1.9912    0.9127 C   0  0  0  0  0  0  0  0  0  0  0  0
   -3.6327   -1.2235    1.3954 H   0  0  0  0  0  0  0  0  0  0  0  0
   -3.3987   -2.1641   -0.0985 H   0  0  0  0  0  0  0  0  0  0  0  0
   -1.5748   -1.5423    0.8574 C   0  0  0  0  0  0  0  0  0  0  0  0
   -0.7040   -2.2381    1.3566 O   0  0  0  0  0  0  0  0  0  0  0  0
   -1.2541   -0.3538    0.2362 N   0  0  0  0  0  0  0  0  0  0  0  0
   -2.0327    0.2306   -0.0562 H   0  0  0  0  0  0  0  0  0  0  0  0
    0.0746    0.2870    0.3028 C   0  0  1  0  0  0  0  0  0  0  0  0
    0.6320   -0.1133    1.1559 H   0  0  0  0  0  0  0  0  0  0  0  0
    0.9104    0.0153   -0.9716 C   0  0  1  0  0  0  0  0  0  0  0  0
    1.8886    0.4948   -0.8564 H   0  0  0  0  0  0  0  0  0  0  0  0
    1.1521   -1.4764   -1.2031 C   0  0  0  0  0  0  0  0  0  0  0  0
    0.2138   -1.9946   -1.4222 H   0  0  0  0  0  0  0  0  0  0  0  0
    1.8354   -1.6250   -2.0442 H   0  0  0  0  0  0  0  0  0  0  0  0
    1.5993   -1.9306   -0.3133 H   0  0  0  0  0  0  0  0  0  0  0  0
    0.2593    0.5410   -2.1329 O   0  0  0  0  0  0  0  0  0  0  0  0
    0.6887    0.2116   -2.9419 H   0  0  0  0  0  0  0  0  0  0  0  0
   -0.0821    1.8012    0.5746 C   0  0  0  0  0  0  0  0  0  0  0  0
   -0.8843    2.1798    1.4209 O   0  0  0  0  0  0  0  0  0  0  0  0
    0.6382    2.7554   -0.1241 N   0  0  0  0  0  0  0  0  0  0  0  0
    1.0869    2.4273   -0.9762 H   0  0  0  0  0  0  0  0  0  0  0  0
    0.4279    4.1887    0.0386 C   0  0  0  0  0  0  0  0  0  0  0  0
    0.5925    4.4840    1.0802 H   0  0  0  0  0  0  0  0  0  0  0  0
    1.1280    4.7464   -0.5907 H   0  0  0  0  0  0  0  0  0  0  0  0
   -0.5927    4.4623   -0.2485 H   0  0  0  0  0  0  0  0  0  0  0  0
  1  2  1  0  0  0  0
  2  3  1  0  0  0  0
  2  4  1  0  0  0  0
  2  5  1  0  0  0  0
  5  6  2  0  0  0  0
  5  7  1  0  0  0  0
  7  8  1  0  0  0  0
  7  9  1  0  0  0  0
  9 10  1  0  0  0  0
  9 11  1  0  0  0  0
  9 19  1  0  0  0  0
 11 12  1  0  0  0  0
 11 13  1  0  0  0  0
 11 17  1  0  0  0  0
 13 14  1  0  0  0  0
 13 15  1  0  0  0  0
 13 16  1  0  0  0  0
 17 18  1  0  0  0  0
 19 20  2  0  0  0  0
 19 21  1  0  0  0  0
 21 22  1  0  0  0  0
 21 23  1  0  0  0  0
 23 24  1  0  0  0  0
 23 25  1  0  0  0  0
 23 26  1  0  0  0  0
M  END
$$$$

  -OEChem-01062216093D

 26 25  0     1  0  0  0  0  0999 V2000
   -3.0930   -2.9374    1.4688 H   0  0  0  0  0  0  0  0  0  0  0  0
   -3.0119   -2.0077    0.8986 C   0  0  0  0  0  0  0  0  0  0  0  0
   -3.6467   -1.2518    1.3674 H   0  0  0  0  0  0  0  0  0  0  0  0
   -3.3610   -2.1872   -0.1210 H   0  0  0  0  0  0  0  0  0  0  0  0
   -1.5715   -1.5321    0.8770 C   0  0  0  0  0  0  0  0  0  0  0  0
   -0.7009   -2.2116    1.3977 O   0  0  0  0  0  0  0  0  0  0  0  0
   -1.2572   -0.3434    0.2522 N   0  0  0  0  0  0  0  0  0  0  0  0
   -2.0330    0.2073   -0.1035 H   0  0  0  0  0  0  0  0  0  0  0  0
    0.0697    0.3020    0.3014 C   0  0  1  0  0  0  0  0  0  0  0  0
    0.6346   -0.0949    1.1513 H   0  0  0  0  0  0  0  0  0  0  0  0
    0.8955    0.0169   -0.9778 C   0  0  1  0  0  0  0  0  0  0  0  0
    1.8702    0.5069   -0.8740 H   0  0  0  0  0  0  0  0  0  0  0  0
    1.1448   -1.4766   -1.1896 C   0  0  0  0  0  0  0  0  0  0  0  0
    0.2086   -2.0032   -1.3977 H   0  0  0  0  0  0  0  0  0  0  0  0
    1.8255   -1.6326   -2.0313 H   0  0  0  0  0  0  0  0  0  0  0  0
    1.5983   -1.9161   -0.2955 H   0  0  0  0  0  0  0  0  0  0  0  0
    0.2393    0.5235   -2.1468 O   0  0  0  0  0  0  0  0  0  0  0  0
    0.6753    0.1875   -2.9502 H   0  0  0  0  0  0  0  0  0  0  0  0
   -0.0773    1.8159    0.5727 C   0  0  0  0  0  0  0  0  0  0  0  0
   -0.6672    2.1923    1.5781 O   0  0  0  0  0  0  0  0  0  0  0  0
    0.3885    2.7687   -0.3162 N   0  0  0  0  0  0  0  0  0  0  0  0
    0.6415    2.4140   -1.2378 H   0  0  0  0  0  0  0  0  0  0  0  0
    0.1450    4.1973   -0.1599 C   0  0  0  0  0  0  0  0  0  0  0  0
    0.5493    4.5528    0.7938 H   0  0  0  0  0  0  0  0  0  0  0  0
    0.6313    4.7532   -0.9672 H   0  0  0  0  0  0  0  0  0  0  0  0
   -0.9289    4.4090   -0.1888 H   0  0  0  0  0  0  0  0  0  0  0  0
  1  2  1  0  0  0  0
  2  3  1  0  0  0  0
  2  4  1  0  0  0  0
  2  5  1  0  0  0  0
  5  6  2  0  0  0  0
  5  7  1  0  0  0  0
  7  8  1  0  0  0  0
  7  9  1  0  0  0  0
  9 10  1  0  0  0  0
  9 11  1  0  0  0  0
  9 19  1  0  0  0  0
 11 12  1  0  0  0  0
 11 13  1  0  0  0  0
 11 17  1  0  0  0  0
 13 14  1  0  0  0  0
 13 15  1  0  0  0  0
 13 16  1  0  0  0  0
 17 18  1  0  0  0  0
 19 20  2  0  0  0  0
 19 21  1  0  0  0  0
 21 22  1  0  0  0  0
 21 23  1  0  0  0  0
 23 24  1  0  0  0  0
 23 25  1  0  0  0  0
 23 26  1  0  0  0  0
M  END
$$$$

  -OEChem-01062216093D

 26 25  0     1  0  0  0  0  0999 V2000
   -3.0671   -2.9737    1.4467 H   0  0  0  0  0  0  0  0  0  0  0  0
   -2.9949   -2.0410    0.8804 C   0  0  0  0  0  0  0  0  0  0  0  0
   -3.6658   -1.3046    1.3291 H   0  0  0  0  0  0  0  0  0  0  0  0
   -3.3059   -2.2291   -0.1499 H   0  0  0  0  0  0  0  0  0  0  0  0
   -1.5690   -1.5239    0.9055 C   0  0  0  0  0  0  0  0  0  0  0  0
   -0.6985   -2.1737    1.4624 O   0  0  0  0  0  0  0  0  0  0  0  0
   -1.2654   -0.3366    0.2724 N   0  0  0  0  0  0  0  0  0  0  0  0
   -2.0323    0.1636   -0.1666 H   0  0  0  0  0  0  0  0  0  0  0  0
    0.0567    0.3194    0.3023 C   0  0  1  0  0  0  0  0  0  0  0  0
    0.6335   -0.0705    1.1478 H   0  0  0  0  0  0  0  0  0  0  0  0
    0.8661    0.0205   -0.9840 C   0  0  1  0  0  0  0  0  0  0  0  0
    1.8362    0.5227   -0.8974 H   0  0  0  0  0  0  0  0  0  0  0  0
    1.1281   -1.4736   -1.1741 C   0  0  0  0  0  0  0  0  0  0  0  0
    0.1960   -2.0126   -1.3680 H   0  0  0  0  0  0  0  0  0  0  0  0
    1.8050   -1.6355   -2.0178 H   0  0  0  0  0  0  0  0  0  0  0  0
    1.5917   -1.8947   -0.2764 H   0  0  0  0  0  0  0  0  0  0  0  0
    0.1968    0.5033   -2.1572 O   0  0  0  0  0  0  0  0  0  0  0  0
    0.6520    0.1832   -2.9566 H   0  0  0  0  0  0  0  0  0  0  0  0
   -0.0842    1.8342    0.5657 C   0  0  0  0  0  0  0  0  0  0  0  0
   -0.4209    2.2259    1.6756 O   0  0  0  0  0  0  0  0  0  0  0  0
    0.0836    2.7671   -0.4415 N   0  0  0  0  0  0  0  0  0  0  0  0
    0.1937    2.3854   -1.3813 H   0  0  0  0  0  0  0  0  0  0  0  0
   -0.1692    4.1930   -0.2774 C   0  0  0  0  0  0  0  0  0  0  0  0
    0.4586    4.6040    0.5203 H   0  0  0  0  0  0  0  0  0  0  0  0
    0.0608    4.7262   -1.2049 H   0  0  0  0  0  0  0  0  0  0  0  0
   -1.2201    4.3696   -0.0258 H   0  0  0  0  0  0  0  0  0  0  0  0
  1  2  1  0  0  0  0
  2  3  1  0  0  0  0
  2  4  1  0  0  0  0
  2  5  1  0  0  0  0
  5  6  2  0  0  0  0
  5  7  1  0  0  0  0
  7  8  1  0  0  0  0
  7  9  1  0  0  0  0
  9 10  1  0  0  0  0
  9 11  1  0  0  0  0
  9 19  1  0  0  0  0
 11 12  1  0  0  0  0
 11 13  1  0  0  0  0
 11 17  1  0  0  0  0
 13 14  1  0  0  0  0
 13 15  1  0  0  0  0
 13 16  1  0  0  0  0
 17 18  1  0  0  0  0
 19 20  2  0  0  0  0
 19 21  1  0  0  0  0
 21 22  1  0  0  0  0
 21 23  1  0  0  0  0
 23 24  1  0  0  0  0
 23 25  1  0  0  0  0
 23 26  1  0  0  0  0
M  END
$$$$

  -OEChem-01062216093D

 26 25  0     1  0  0  0  0  0999 V2000
   -3.0319   -3.0289    1.4368 H   0  0  0  0  0  0  0  0  0  0  0  0
   -2.9753   -2.0964    0.8681 C   0  0  0  0  0  0  0  0  0  0  0  0
   -3.6860   -1.3828    1.2920 H   0  0  0  0  0  0  0  0  0  0  0  0
   -3.2470   -2.2999   -0.1704 H   0  0  0  0  0  0  0  0  0  0  0  0
   -1.5699   -1.5291    0.9353 C   0  0  0  0  0  0  0  0  0  0  0  0
   -0.6976   -2.1419    1.5296 O   0  0  0  0  0  0  0  0  0  0  0  0
   -1.2839   -0.3423    0.2923 N   0  0  0  0  0  0  0  0  0  0  0  0
   -2.0396    0.1035   -0.2188 H   0  0  0  0  0  0  0  0  0  0  0  0
    0.0286    0.3331    0.3103 C   0  0  1  0  0  0  0  0  0  0  0  0
    0.6175   -0.0463    1.1524 H   0  0  0  0  0  0  0  0  0  0  0  0
    0.8290    0.0370   -0.9815 C   0  0  1  0  0  0  0  0  0  0  0  0
    1.7913    0.5558   -0.9069 H   0  0  0  0  0  0  0  0  0  0  0  0
    1.1112   -1.4546   -1.1634 C   0  0  0  0  0  0  0  0  0  0  0  0
    0.1851   -2.0080   -1.3448 H   0  0  0  0  0  0  0  0  0  0  0  0
    1.7819   -1.6131   -2.0127 H   0  0  0  0  0  0  0  0  0  0  0  0
    1.5893   -1.8625   -0.2672 H   0  0  0  0  0  0  0  0  0  0  0  0
    0.1435    0.5023   -2.1532 O   0  0  0  0  0  0  0  0  0  0  0  0
    0.6184    0.2137   -2.9534 H   0  0  0  0  0  0  0  0  0  0  0  0
   -0.1226    1.8477    0.5620 C   0  0  0  0  0  0  0  0  0  0  0  0
   -0.1816    2.2725    1.7081 O   0  0  0  0  0  0  0  0  0  0  0  0
   -0.2727    2.7391   -0.4838 N   0  0  0  0  0  0  0  0  0  0  0  0
   -0.2532    2.3367   -1.4215 H   0  0  0  0  0  0  0  0  0  0  0  0
   -0.4782    4.1718   -0.3167 C   0  0  0  0  0  0  0  0  0  0  0  0
    0.3370    4.6105    0.2681 H   0  0  0  0  0  0  0  0  0  0  0  0
   -0.5064    4.6653   -1.2928 H   0  0  0  0  0  0  0  0  0  0  0  0
   -1.4253    4.3650    0.1976 H   0  0  0  0  0  0  0  0  0  0  0  0
  1  2  1  0  0  0  0
  2  3  1  0  0  0  0
  2  4  1  0  0  0  0
  2  5  1  0  0  0  0
  5  6  2  0  0  0  0
  5  7  1  0  0  0  0
  7  8  1  0  0  0  0
  7  9  1  0  0  0  0
  9 10  1  0  0  0  0
  9 11  1  0  0  0  0
  9 19  1  0  0  0  0
 11 12  1  0  0  0  0
 11 13  1  0  0  0  0
 11 17  1  0  0  0  0
 13 14  1  0  0  0  0
 13 15  1  0  0  0  0
 13 16  1  0  0  0  0
 17 18  1  0  0  0  0
 19 20  2  0  0  0  0
 19 21  1  0  0  0  0
 21 22  1  0  0  0  0
 21 23  1  0  0  0  0
 23 24  1  0  0  0  0
 23 25  1  0  0  0  0
 23 26  1  0  0  0  0
M  END
$$$$

  -OEChem-01062216093D

 26 25  0     1  0  0  0  0  0999 V2000
   -3.0097   -3.0966    1.4199 H   0  0  0  0  0  0  0  0  0  0  0  0
   -2.9711   -2.1554    0.8642 C   0  0  0  0  0  0  0  0  0  0  0  0
   -3.7001   -1.4638    1.2935 H   0  0  0  0  0  0  0  0  0  0  0  0
   -3.2325   -2.3510   -0.1784 H   0  0  0  0  0  0  0  0  0  0  0  0
   -1.5792   -1.5576    0.9469 C   0  0  0  0  0  0  0  0  0  0  0  0
   -0.7025   -2.1486    1.5559 O   0  0  0  0  0  0  0  0  0  0  0  0
   -1.3103   -0.3667    0.3039 N   0  0  0  0  0  0  0  0  0  0  0  0
   -2.0647    0.0542   -0.2299 H   0  0  0  0  0  0  0  0  0  0  0  0
   -0.0108    0.3335    0.3321 C   0  0  1  0  0  0  0  0  0  0  0  0
    0.5826   -0.0402    1.1738 H   0  0  0  0  0  0  0  0  0  0  0  0
    0.7970    0.0698   -0.9599 C   0  0  1  0  0  0  0  0  0  0  0  0
    1.7478    0.6081   -0.8767 H   0  0  0  0  0  0  0  0  0  0  0  0
    1.1094   -1.4133   -1.1584 C   0  0  0  0  0  0  0  0  0  0  0  0
    0.1949   -1.9835   -1.3462 H   0  0  0  0  0  0  0  0  0  0  0  0
    1.7834   -1.5479   -2.0091 H   0  0  0  0  0  0  0  0  0  0  0  0
    1.5955   -1.8211   -0.2665 H   0  0  0  0  0  0  0  0  0  0  0  0
    0.1024    0.5373   -2.1255 O   0  0  0  0  0  0  0  0  0  0  0  0
    0.6060    0.3065   -2.9270 H   0  0  0  0  0  0  0  0  0  0  0  0
   -0.1886    1.8441    0.5788 C   0  0  0  0  0  0  0  0  0  0  0  0
    0.0293    2.3174    1.6860 O   0  0  0  0  0  0  0  0  0  0  0  0
   -0.6463    2.6737   -0.4279 N   0  0  0  0  0  0  0  0  0  0  0  0
   -0.6859    2.2542   -1.3574 H   0  0  0  0  0  0  0  0  0  0  0  0
   -0.7643    4.1195   -0.2925 C   0  0  0  0  0  0  0  0  0  0  0  0
    0.2151    4.5665   -0.0926 H   0  0  0  0  0  0  0  0  0  0  0  0
   -1.1631    4.5537   -1.2142 H   0  0  0  0  0  0  0  0  0  0  0  0
   -1.4422    4.3731    0.5292 H   0  0  0  0  0  0  0  0  0  0  0  0
  1  2  1  0  0  0  0
  2  3  1  0  0  0  0
  2  4  1  0  0  0  0
  2  5  1  0  0  0  0
  5  6  2  0  0  0  0
  5  7  1  0  0  0  0
  7  8  1  0  0  0  0
  7  9  1  0  0  0  0
  9 10  1  0  0  0  0
  9 11  1  0  0  0  0
  9 19  1  0  0  0  0
 11 12  1  0  0  0  0
 11 13  1  0  0  0  0
 11 17  1  0  0  0  0
 13 14  1  0  0  0  0
 13 15  1  0  0  0  0
 13 16  1  0  0  0  0
 17 18  1  0  0  0  0
 19 20  2  0  0  0  0
 19 21  1  0  0  0  0
 21 22  1  0  0  0  0
 21 23  1  0  0  0  0
 23 24  1  0  0  0  0
 23 25  1  0  0  0  0
 23 26  1  0  0  0  0
M  END
$$$$

  -OEChem-01062216093D

 26 25  0     1  0  0  0  0  0999 V2000
   -3.0016   -3.1264    1.4197 H   0  0  0  0  0  0  0  0  0  0  0  0
   -2.9647   -2.1860    0.8624 C   0  0  0  0  0  0  0  0  0  0  0  0
   -3.7070   -1.5012    1.2795 H   0  0  0  0  0  0  0  0  0  0  0  0
   -3.2089   -2.3870   -0.1834 H   0  0  0  0  0  0  0  0  0  0  0  0
   -1.5806   -1.5732    0.9643 C   0  0  0  0  0  0  0  0  0  0  0  0
   -0.7074   -2.1517    1.5899 O   0  0  0  0  0  0  0  0  0  0  0  0
   -1.3144   -0.3815    0.3218 N   0  0  0  0  0  0  0  0  0  0  0  0
   -2.0637    0.0274   -0.2280 H   0  0  0  0  0  0  0  0  0  0  0  0
   -0.0187    0.3268    0.3602 C   0  0  1  0  0  0  0  0  0  0  0  0
    0.5798   -0.0502    1.1970 H   0  0  0  0  0  0  0  0  0  0  0  0
    0.7777    0.0887   -0.9408 C   0  0  1  0  0  0  0  0  0  0  0  0
    1.7268    0.6305   -0.8585 H   0  0  0  0  0  0  0  0  0  0  0  0
    1.0930   -1.3898   -1.1689 C   0  0  0  0  0  0  0  0  0  0  0  0
    0.1785   -1.9600   -1.3568 H   0  0  0  0  0  0  0  0  0  0  0  0
    1.7583   -1.5074   -2.0289 H   0  0  0  0  0  0  0  0  0  0  0  0
    1.5899   -1.8117   -0.2897 H   0  0  0  0  0  0  0  0  0  0  0  0
    0.0622    0.5776   -2.0849 O   0  0  0  0  0  0  0  0  0  0  0  0
    0.5736    0.4017   -2.8953 H   0  0  0  0  0  0  0  0  0  0  0  0
   -0.1981    1.8363    0.6029 C   0  0  0  0  0  0  0  0  0  0  0  0
    0.2678    2.3624    1.6048 O   0  0  0  0  0  0  0  0  0  0  0  0
   -0.9280    2.6012   -0.2891 N   0  0  0  0  0  0  0  0  0  0  0  0
   -1.0823    2.1671   -1.1986 H   0  0  0  0  0  0  0  0  0  0  0  0
   -1.0577    4.0479   -0.1731 C   0  0  0  0  0  0  0  0  0  0  0  0
   -0.0755    4.5272   -0.2406 H   0  0  0  0  0  0  0  0  0  0  0  0
   -1.6910    4.4356   -0.9768 H   0  0  0  0  0  0  0  0  0  0  0  0
   -1.5157    4.3159    0.7848 H   0  0  0  0  0  0  0  0  0  0  0  0
  1  2  1  0  0  0  0
  2  3  1  0  0  0  0
  2  4  1  0  0  0  0
  2  5  1  0  0  0  0
  5  6  2  0  0  0  0
  5  7  1  0  0  0  0
  7  8  1  0  0  0  0
  7  9  1  0  0  0  0
  9 10  1  0  0  0  0
  9 11  1  0  0  0  0
  9 19  1  0  0  0  0
 11 12  1  0  0  0  0
 11 13  1  0  0  0  0
 11 17  1  0  0  0  0
 13 14  1  0  0  0  0
 13 15  1  0  0  0  0
 13 16  1  0  0  0  0
 17 18  1  0  0  0  0
 19 20  2  0  0  0  0
 19 21  1  0  0  0  0
 21 22  1  0  0  0  0
 21 23  1  0  0  0  0
 23 24  1  0  0  0  0
 23 25  1  0  0  0  0
 23 26  1  0  0  0  0
M  END
$$$$

  -OEChem-01062216093D

 26 25  0     1  0  0  0  0  0999 V2000
   -2.9652   -3.1928    1.3839 H   0  0  0  0  0  0  0  0  0  0  0  0
   -2.9361   -2.2508    0.8288 C   0  0  0  0  0  0  0  0  0  0  0  0
   -3.7293   -1.5983    1.2020 H   0  0  0  0  0  0  0  0  0  0  0  0
   -3.1114   -2.4604   -0.2291 H   0  0  0  0  0  0  0  0  0  0  0  0
   -1.5871   -1.5803    1.0090 C   0  0  0  0  0  0  0  0  0  0  0  0
   -0.7351   -2.1124    1.7008 O   0  0  0  0  0  0  0  0  0  0  0  0
   -1.3267   -0.3911    0.3593 N   0  0  0  0  0  0  0  0  0  0  0  0
   -2.0350   -0.0541   -0.2844 H   0  0  0  0  0  0  0  0  0  0  0  0
   -0.0342    0.3251    0.3985 C   0  0  1  0  0  0  0  0  0  0  0  0
    0.5743   -0.0533    1.2272 H   0  0  0  0  0  0  0  0  0  0  0  0
    0.7401    0.1002   -0.9148 C   0  0  1  0  0  0  0  0  0  0  0  0
    1.6885    0.6455   -0.8468 H   0  0  0  0  0  0  0  0  0  0  0  0
    1.0558   -1.3745   -1.1667 C   0  0  0  0  0  0  0  0  0  0  0  0
    0.1406   -1.9460   -1.3466 H   0  0  0  0  0  0  0  0  0  0  0  0
    1.7066   -1.4782   -2.0396 H   0  0  0  0  0  0  0  0  0  0  0  0
    1.5694   -1.8048   -0.3011 H   0  0  0  0  0  0  0  0  0  0  0  0
   -0.0091    0.6034   -2.0301 O   0  0  0  0  0  0  0  0  0  0  0  0
    0.5033    0.4931   -2.8510 H   0  0  0  0  0  0  0  0  0  0  0  0
   -0.1962    1.8383    0.6302 C   0  0  0  0  0  0  0  0  0  0  0  0
    0.5135    2.4150    1.4439 O   0  0  0  0  0  0  0  0  0  0  0  0
   -1.1510    2.5555   -0.0705 N   0  0  0  0  0  0  0  0  0  0  0  0
   -1.4988    2.0974   -0.9092 H   0  0  0  0  0  0  0  0  0  0  0  0
   -1.2720    4.0051    0.0244 C   0  0  0  0  0  0  0  0  0  0  0  0
   -0.3638    4.4908   -0.3472 H   0  0  0  0  0  0  0  0  0  0  0  0
   -2.1217    4.3523   -0.5710 H   0  0  0  0  0  0  0  0  0  0  0  0
   -1.4344    4.3098    1.0638 H   0  0  0  0  0  0  0  0  0  0  0  0
  1  2  1  0  0  0  0
  2  3  1  0  0  0  0
  2  4  1  0  0  0  0
  2  5  1  0  0  0  0
  5  6  2  0  0  0  0
  5  7  1  0  0  0  0
  7  8  1  0  0  0  0
  7  9  1  0  0  0  0
  9 10  1  0  0  0  0
  9 11  1  0  0  0  0
  9 19  1  0  0  0  0
 11 12  1  0  0  0  0
 11 13  1  0  0  0  0
 11 17  1  0  0  0  0
 13 14  1  0  0  0  0
 13 15  1  0  0  0  0
 13 16  1  0  0  0  0
 17 18  1  0  0  0  0
 19 20  2  0  0  0  0
 19 21  1  0  0  0  0
 21 22  1  0  0  0  0
 21 23  1  0  0  0  0
 23 24  1  0  0  0  0
 23 25  1  0  0  0  0
 23 26  1  0  0  0  0
M  END
$$$$

  -OEChem-01062216093D

 26 25  0     1  0  0  0  0  0999 V2000
   -2.9035   -3.2517    1.3498 H   0  0  0  0  0  0  0  0  0  0  0  0
   -2.8762   -2.3285    0.7642 C   0  0  0  0  0  0  0  0  0  0  0  0
   -3.7414   -1.7173    1.0316 H   0  0  0  0  0  0  0  0  0  0  0  0
   -2.9306   -2.5836   -0.2967 H   0  0  0  0  0  0  0  0  0  0  0  0
   -1.5959   -1.5668    1.0506 C   0  0  0  0  0  0  0  0  0  0  0  0
   -0.7849   -2.0247    1.8379 O   0  0  0  0  0  0  0  0  0  0  0  0
   -1.3511   -0.3794    0.3907 N   0  0  0  0  0  0  0  0  0  0  0  0
   -1.9638   -0.1756   -0.3928 H   0  0  0  0  0  0  0  0  0  0  0  0
   -0.0558    0.3336    0.4201 C   0  0  1  0  0  0  0  0  0  0  0  0
    0.5596   -0.0471    1.2422 H   0  0  0  0  0  0  0  0  0  0  0  0
    0.6971    0.0937   -0.9012 C   0  0  1  0  0  0  0  0  0  0  0  0
    1.6485    0.6359   -0.8533 H   0  0  0  0  0  0  0  0  0  0  0  0
    1.0046   -1.3834   -1.1514 C   0  0  0  0  0  0  0  0  0  0  0  0
    0.0861   -1.9521   -1.3221 H   0  0  0  0  0  0  0  0  0  0  0  0
    1.6468   -1.4910   -2.0303 H   0  0  0  0  0  0  0  0  0  0  0  0
    1.5250   -1.8132   -0.2895 H   0  0  0  0  0  0  0  0  0  0  0  0
   -0.0741    0.5966   -2.0001 O   0  0  0  0  0  0  0  0  0  0  0  0
    0.4439    0.5437   -2.8230 H   0  0  0  0  0  0  0  0  0  0  0  0
   -0.1841    1.8514    0.6493 C   0  0  0  0  0  0  0  0  0  0  0  0
    0.7309    2.4624    1.1868 O   0  0  0  0  0  0  0  0  0  0  0  0
   -1.2983    2.5505    0.2163 N   0  0  0  0  0  0  0  0  0  0  0  0
   -1.9464    2.0442   -0.3772 H   0  0  0  0  0  0  0  0  0  0  0  0
   -1.4158    4.0002    0.3073 C   0  0  0  0  0  0  0  0  0  0  0  0
   -0.6453    4.4860   -0.3002 H   0  0  0  0  0  0  0  0  0  0  0  0
   -2.3975    4.3226   -0.0525 H   0  0  0  0  0  0  0  0  0  0  0  0
   -1.3057    4.3294    1.3459 H   0  0  0  0  0  0  0  0  0  0  0  0
  1  2  1  0  0  0  0
  2  3  1  0  0  0  0
  2  4  1  0  0  0  0
  2  5  1  0  0  0  0
  5  6  2  0  0  0  0
  5  7  1  0  0  0  0
  7  8  1  0  0  0  0
  7  9  1  0  0  0  0
  9 10  1  0  0  0  0
  9 11  1  0  0  0  0
  9 19  1  0  0  0  0
 11 12  1  0  0  0  0
 11 13  1  0  0  0  0
 11 17  1  0  0  0  0
 13 14  1  0  0  0  0
 13 15  1  0  0  0  0
 13 16  1  0  0  0  0
 17 18  1  0  0  0  0
 19 20  2  0  0  0  0
 19 21  1  0  0  0  0
 21 22  1  0  0  0  0
 21 23  1  0  0  0  0
 23 24  1  0  0  0  0
 23 25  1  0  0  0  0
 23 26  1  0  0  0  0
M  END
$$$$

  -OEChem-01062216093D

 26 25  0     1  0  0  0  0  0999 V2000
   -2.8669   -3.2643    1.3121 H   0  0  0  0  0  0  0  0  0  0  0  0
   -2.8512   -2.3361    0.7334 C   0  0  0  0  0  0  0  0  0  0  0  0
   -3.7374   -1.7491    0.9863 H   0  0  0  0  0  0  0  0  0  0  0  0
   -2.8770   -2.5851   -0.3302 H   0  0  0  0  0  0  0  0  0  0  0  0
   -1.5977   -1.5433    1.0526 C   0  0  0  0  0  0  0  0  0  0  0  0
   -0.8120   -1.9658    1.8839 O   0  0  0  0  0  0  0  0  0  0  0  0
   -1.3521   -0.3617    0.3824 N   0  0  0  0  0  0  0  0  0  0  0  0
   -1.9232   -0.2024   -0.4432 H   0  0  0  0  0  0  0  0  0  0  0  0
   -0.0511    0.3416    0.4047 C   0  0  1  0  0  0  0  0  0  0  0  0
    0.5639   -0.0349    1.2289 H   0  0  0  0  0  0  0  0  0  0  0  0
    0.6955    0.0748   -0.9160 C   0  0  1  0  0  0  0  0  0  0  0  0
    1.6520    0.6088   -0.8807 H   0  0  0  0  0  0  0  0  0  0  0  0
    0.9896   -1.4084   -1.1466 C   0  0  0  0  0  0  0  0  0  0  0  0
    0.0661   -1.9717   -1.3081 H   0  0  0  0  0  0  0  0  0  0  0  0
    1.6293   -1.5334   -2.0249 H   0  0  0  0  0  0  0  0  0  0  0  0
    1.5084   -1.8306   -0.2802 H   0  0  0  0  0  0  0  0  0  0  0  0
   -0.0763    0.5698   -2.0171 O   0  0  0  0  0  0  0  0  0  0  0  0
    0.4512    0.5423   -2.8348 H   0  0  0  0  0  0  0  0  0  0  0  0
   -0.1649    1.8625    0.6256 C   0  0  0  0  0  0  0  0  0  0  0  0
    0.8364    2.5141    0.8964 O   0  0  0  0  0  0  0  0  0  0  0  0
   -1.3746    2.5203    0.4805 N   0  0  0  0  0  0  0  0  0  0  0  0
   -2.1877    1.9504    0.2743 H   0  0  0  0  0  0  0  0  0  0  0  0
   -1.5387    3.9566    0.6646 C   0  0  0  0  0  0  0  0  0  0  0  0
   -0.8866    4.5073   -0.0216 H   0  0  0  0  0  0  0  0  0  0  0  0
   -2.5742    4.2478    0.4646 H   0  0  0  0  0  0  0  0  0  0  0  0
   -1.2909    4.2410    1.6926 H   0  0  0  0  0  0  0  0  0  0  0  0
  1  2  1  0  0  0  0
  2  3  1  0  0  0  0
  2  4  1  0  0  0  0
  2  5  1  0  0  0  0
  5  6  2  0  0  0  0
  5  7  1  0  0  0  0
  7  8  1  0  0  0  0
  7  9  1  0  0  0  0
  9 10  1  0  0  0  0
  9 11  1  0  0  0  0
  9 19  1  0  0  0  0
 11 12  1  0  0  0  0
 11 13  1  0  0  0  0
 11 17  1  0  0  0  0
 13 14  1  0  0  0  0
 13 15  1  0  0  0  0
 13 16  1  0  0  0  0
 17 18  1  0  0  0  0
 19 20  2  0  0  0  0
 19 21  1  0  0  0  0
 21 22  1  0  0  0  0
 21 23  1  0  0  0  0
 23 24  1  0  0  0  0
 23 25  1  0  0  0  0
 23 26  1  0  0  0  0
M  END
$$$$

  -OEChem-01062216093D

 26 25  0     1  0  0  0  0  0999 V2000
   -2.8585   -3.2604    1.2857 H   0  0  0  0  0  0  0  0  0  0  0  0
   -2.8496   -2.3236    0.7211 C   0  0  0  0  0  0  0  0  0  0  0  0
   -3.7382   -1.7452    0.9853 H   0  0  0  0  0  0  0  0  0  0  0  0
   -2.8775   -2.5569   -0.3460 H   0  0  0  0  0  0  0  0  0  0  0  0
   -1.5985   -1.5297    1.0469 C   0  0  0  0  0  0  0  0  0  0  0  0
   -0.8219   -1.9452    1.8902 O   0  0  0  0  0  0  0  0  0  0  0  0
   -1.3458   -0.3512    0.3740 N   0  0  0  0  0  0  0  0  0  0  0  0
   -1.9158   -0.1864   -0.4523 H   0  0  0  0  0  0  0  0  0  0  0  0
   -0.0413    0.3461    0.3951 C   0  0  1  0  0  0  0  0  0  0  0  0
    0.5718   -0.0280    1.2212 H   0  0  0  0  0  0  0  0  0  0  0  0
    0.7026    0.0649   -0.9259 C   0  0  1  0  0  0  0  0  0  0  0  0
    1.6637    0.5909   -0.8973 H   0  0  0  0  0  0  0  0  0  0  0  0
    0.9869   -1.4212   -1.1487 C   0  0  0  0  0  0  0  0  0  0  0  0
    0.0600   -1.9794   -1.3079 H   0  0  0  0  0  0  0  0  0  0  0  0
    1.6256   -1.5543   -2.0266 H   0  0  0  0  0  0  0  0  0  0  0  0
    1.5030   -1.8419   -0.2801 H   0  0  0  0  0  0  0  0  0  0  0  0
   -0.0683    0.5574   -2.0285 O   0  0  0  0  0  0  0  0  0  0  0  0
    0.4675    0.5512   -2.8412 H   0  0  0  0  0  0  0  0  0  0  0  0
   -0.1582    1.8682    0.6121 C   0  0  0  0  0  0  0  0  0  0  0  0
    0.8487    2.5648    0.6597 O   0  0  0  0  0  0  0  0  0  0  0  0
   -1.3965    2.4676    0.7667 N   0  0  0  0  0  0  0  0  0  0  0  0
   -2.1998    1.8488    0.8112 H   0  0  0  0  0  0  0  0  0  0  0  0
   -1.5770    3.8885    1.0357 C   0  0  0  0  0  0  0  0  0  0  0  0
   -1.1181    4.4897    0.2437 H   0  0  0  0  0  0  0  0  0  0  0  0
   -2.6428    4.1326    1.0792 H   0  0  0  0  0  0  0  0  0  0  0  0
   -1.1197    4.1581    1.9935 H   0  0  0  0  0  0  0  0  0  0  0  0
  1  2  1  0  0  0  0
  2  3  1  0  0  0  0
  2  4  1  0  0  0  0
  2  5  1  0  0  0  0
  5  6  2  0  0  0  0
  5  7  1  0  0  0  0
  7  8  1  0  0  0  0
  7  9  1  0  0  0  0
  9 10  1  0  0  0  0
  9 11  1  0  0  0  0
  9 19  1  0  0  0  0
 11 12  1  0  0  0  0
 11 13  1  0  0  0  0
 11 17  1  0  0  0  0
 13 14  1  0  0  0  0
 13 15  1  0  0  0  0
 13 16  1  0  0  0  0
 17 18  1  0  0  0  0
 19 20  2  0  0  0  0
 19 21  1  0  0  0  0
 21 22  1  0  0  0  0
 21 23  1  0  0  0  0
 23 24  1  0  0  0  0
 23 25  1  0  0  0  0
 23 26  1  0  0  0  0
M  END
$$$$

  -OEChem-01062216093D

 26 25  0     1  0  0  0  0  0999 V2000
   -2.8796   -3.2296    1.2968 H   0  0  0  0  0  0  0  0  0  0  0  0
   -2.8498   -2.3083    0.7080 C   0  0  0  0  0  0  0  0  0  0  0  0
   -3.7369   -1.7140    0.9394 H   0  0  0  0  0  0  0  0  0  0  0  0
   -2.8599   -2.5692   -0.3531 H   0  0  0  0  0  0  0  0  0  0  0  0
   -1.5964   -1.5193    1.0368 C   0  0  0  0  0  0  0  0  0  0  0  0
   -0.8236   -1.9345    1.8838 O   0  0  0  0  0  0  0  0  0  0  0  0
   -1.3387   -0.3399    0.3683 N   0  0  0  0  0  0  0  0  0  0  0  0
   -1.9176   -0.1585   -0.4488 H   0  0  0  0  0  0  0  0  0  0  0  0
   -0.0321    0.3529    0.3863 C   0  0  1  0  0  0  0  0  0  0  0  0
    0.5807   -0.0212    1.2125 H   0  0  0  0  0  0  0  0  0  0  0  0
    0.7072    0.0585   -0.9356 C   0  0  1  0  0  0  0  0  0  0  0  0
    1.6713    0.5789   -0.9142 H   0  0  0  0  0  0  0  0  0  0  0  0
    0.9832   -1.4307   -1.1481 C   0  0  0  0  0  0  0  0  0  0  0  0
    0.0531   -1.9844   -1.3032 H   0  0  0  0  0  0  0  0  0  0  0  0
    1.6207   -1.5742   -2.0251 H   0  0  0  0  0  0  0  0  0  0  0  0
    1.4970   -1.8483   -0.2765 H   0  0  0  0  0  0  0  0  0  0  0  0
   -0.0653    0.5476   -2.0386 O   0  0  0  0  0  0  0  0  0  0  0  0
    0.4758    0.5618   -2.8473 H   0  0  0  0  0  0  0  0  0  0  0  0
   -0.1556    1.8748    0.6093 C   0  0  0  0  0  0  0  0  0  0  0  0
    0.8040    2.6177    0.4379 O   0  0  0  0  0  0  0  0  0  0  0  0
   -1.3437    2.4138    1.0719 N   0  0  0  0  0  0  0  0  0  0  0  0
   -2.0811    1.7549    1.3033 H   0  0  0  0  0  0  0  0  0  0  0  0
   -1.5176    3.8226    1.4016 C   0  0  0  0  0  0  0  0  0  0  0  0
   -1.2975    4.4498    0.5313 H   0  0  0  0  0  0  0  0  0  0  0  0
   -2.5495    4.0134    1.7111 H   0  0  0  0  0  0  0  0  0  0  0  0
   -0.8502    4.1092    2.2211 H   0  0  0  0  0  0  0  0  0  0  0  0
  1  2  1  0  0  0  0
  2  3  1  0  0  0  0
  2  4  1  0  0  0  0
  2  5  1  0  0  0  0
  5  6  2  0  0  0  0
  5  7  1  0  0  0  0
  7  8  1  0  0  0  0
  7  9  1  0  0  0  0
  9 10  1  0  0  0  0
  9 11  1  0  0  0  0
  9 19  1  0  0  0  0
 11 12  1  0  0  0  0
 11 13  1  0  0  0  0
 11 17  1  0  0  0  0
 13 14  1  0  0  0  0
 13 15  1  0  0  0  0
 13 16  1  0  0  0  0
 17 18  1  0  0  0  0
 19 20  2  0  0  0  0
 19 21  1  0  0  0  0
 21 22  1  0  0  0  0
 21 23  1  0  0  0  0
 23 24  1  0  0  0  0
 23 25  1  0  0  0  0
 23 26  1  0  0  0  0
M  END
$$$$

  -OEChem-01062216093D

 26 25  0     1  0  0  0  0  0999 V2000
   -2.9014   -3.1972    1.3111 H   0  0  0  0  0  0  0  0  0  0  0  0
   -2.8578   -2.2856    0.7083 C   0  0  0  0  0  0  0  0  0  0  0  0
   -3.7372   -1.6758    0.9282 H   0  0  0  0  0  0  0  0  0  0  0  0
   -2.8687   -2.5621   -0.3488 H   0  0  0  0  0  0  0  0  0  0  0  0
   -1.5950   -1.5082    1.0274 C   0  0  0  0  0  0  0  0  0  0  0  0
   -0.8215   -1.9257    1.8728 O   0  0  0  0  0  0  0  0  0  0  0  0
   -1.3346   -0.3285    0.3614 N   0  0  0  0  0  0  0  0  0  0  0  0
   -1.9241   -0.1335   -0.4449 H   0  0  0  0  0  0  0  0  0  0  0  0
   -0.0267    0.3604    0.3751 C   0  0  1  0  0  0  0  0  0  0  0  0
    0.5862   -0.0113    1.2021 H   0  0  0  0  0  0  0  0  0  0  0  0
    0.7123    0.0531   -0.9456 C   0  0  1  0  0  0  0  0  0  0  0  0
    1.6777    0.5716   -0.9269 H   0  0  0  0  0  0  0  0  0  0  0  0
    0.9870   -1.4378   -1.1483 C   0  0  0  0  0  0  0  0  0  0  0  0
    0.0563   -1.9910   -1.3028 H   0  0  0  0  0  0  0  0  0  0  0  0
    1.6263   -1.5864   -2.0232 H   0  0  0  0  0  0  0  0  0  0  0  0
    1.4982   -1.8516   -0.2734 H   0  0  0  0  0  0  0  0  0  0  0  0
   -0.0570    0.5347   -2.0542 O   0  0  0  0  0  0  0  0  0  0  0  0
    0.4944    0.5706   -2.8551 H   0  0  0  0  0  0  0  0  0  0  0  0
   -0.1596    1.8813    0.6028 C   0  0  0  0  0  0  0  0  0  0  0  0
    0.7049    2.6669    0.2312 O   0  0  0  0  0  0  0  0  0  0  0  0
   -1.2186    2.3642    1.3517 N   0  0  0  0  0  0  0  0  0  0  0  0
   -1.8593    1.6731    1.7317 H   0  0  0  0  0  0  0  0  0  0  0  0
   -1.3672    3.7620    1.7366 C   0  0  0  0  0  0  0  0  0  0  0  0
   -1.4014    4.4025    0.8490 H   0  0  0  0  0  0  0  0  0  0  0  0
   -2.2952    3.9027    2.2987 H   0  0  0  0  0  0  0  0  0  0  0  0
   -0.5287    4.0766    2.3666 H   0  0  0  0  0  0  0  0  0  0  0  0
  1  2  1  0  0  0  0
  2  3  1  0  0  0  0
  2  4  1  0  0  0  0
  2  5  1  0  0  0  0
  5  6  2  0  0  0  0
  5  7  1  0  0  0  0
  7  8  1  0  0  0  0
  7  9  1  0  0  0  0
  9 10  1  0  0  0  0
  9 11  1  0  0  0  0
  9 19  1  0  0  0  0
 11 12  1  0  0  0  0
 11 13  1  0  0  0  0
 11 17  1  0  0  0  0
 13 14  1  0  0  0  0
 13 15  1  0  0  0  0
 13 16  1  0  0  0  0
 17 18  1  0  0  0  0
 19 20  2  0  0  0  0
 19 21  1  0  0  0  0
 21 22  1  0  0  0  0
 21 23  1  0  0  0  0
 23 24  1  0  0  0  0
 23 25  1  0  0  0  0
 23 26  1  0  0  0  0
M  END
$$$$

  -OEChem-01062216093D

 26 25  0     1  0  0  0  0  0999 V2000
   -2.8986   -3.1916    1.2952 H   0  0  0  0  0  0  0  0  0  0  0  0
   -2.8593   -2.2748    0.7000 C   0  0  0  0  0  0  0  0  0  0  0  0
   -3.7405   -1.6696    0.9266 H   0  0  0  0  0  0  0  0  0  0  0  0
   -2.8719   -2.5429   -0.3594 H   0  0  0  0  0  0  0  0  0  0  0  0
   -1.5979   -1.4960    1.0226 C   0  0  0  0  0  0  0  0  0  0  0  0
   -0.8266   -1.9111    1.8717 O   0  0  0  0  0  0  0  0  0  0  0  0
   -1.3360   -0.3149    0.3603 N   0  0  0  0  0  0  0  0  0  0  0  0
   -1.9304   -0.1120   -0.4406 H   0  0  0  0  0  0  0  0  0  0  0  0
   -0.0268    0.3689    0.3691 C   0  0  1  0  0  0  0  0  0  0  0  0
    0.5876   -0.0040    1.1942 H   0  0  0  0  0  0  0  0  0  0  0  0
    0.7089    0.0482   -0.9508 C   0  0  1  0  0  0  0  0  0  0  0  0
    1.6741    0.5669   -0.9347 H   0  0  0  0  0  0  0  0  0  0  0  0
    0.9835   -1.4442   -1.1413 C   0  0  0  0  0  0  0  0  0  0  0  0
    0.0529   -1.9982   -1.2922 H   0  0  0  0  0  0  0  0  0  0  0  0
    1.6230   -1.5993   -2.0148 H   0  0  0  0  0  0  0  0  0  0  0  0
    1.4940   -1.8512   -0.2630 H   0  0  0  0  0  0  0  0  0  0  0  0
   -0.0575    0.5222   -2.0646 O   0  0  0  0  0  0  0  0  0  0  0  0
    0.5058    0.5948   -2.8545 H   0  0  0  0  0  0  0  0  0  0  0  0
   -0.1624    1.8885    0.6043 C   0  0  0  0  0  0  0  0  0  0  0  0
    0.5550    2.7081    0.0417 O   0  0  0  0  0  0  0  0  0  0  0  0
   -1.0156    2.3302    1.6000 N   0  0  0  0  0  0  0  0  0  0  0  0
   -1.5312    1.6176    2.1097 H   0  0  0  0  0  0  0  0  0  0  0  0
   -1.1296    3.7237    2.0113 C   0  0  0  0  0  0  0  0  0  0  0  0
   -1.4293    4.3499    1.1643 H   0  0  0  0  0  0  0  0  0  0  0  0
   -1.8829    3.8252    2.7985 H   0  0  0  0  0  0  0  0  0  0  0  0
   -0.1722    4.0880    2.3986 H   0  0  0  0  0  0  0  0  0  0  0  0
  1  2  1  0  0  0  0
  2  3  1  0  0  0  0
  2  4  1  0  0  0  0
  2  5  1  0  0  0  0
  5  6  2  0  0  0  0
  5  7  1  0  0  0  0
  7  8  1  0  0  0  0
  7  9  1  0  0  0  0
  9 10  1  0  0  0  0
  9 11  1  0  0  0  0
  9 19  1  0  0  0  0
 11 12  1  0  0  0  0
 11 13  1  0  0  0  0
 11 17  1  0  0  0  0
 13 14  1  0  0  0  0
 13 15  1  0  0  0  0
 13 16  1  0  0  0  0
 17 18  1  0  0  0  0
 19 20  2  0  0  0  0
 19 21  1  0  0  0  0
 21 22  1  0  0  0  0
 21 23  1  0  0  0  0
 23 24  1  0  0  0  0
 23 25  1  0  0  0  0
 23 26  1  0  0  0  0
M  END
$$$$

  -OEChem-01062216093D

 26 25  0     1  0  0  0  0  0999 V2000
   -2.8785   -3.2054    1.2438 H   0  0  0  0  0  0  0  0  0  0  0  0
   -2.8613   -2.2620    0.6907 C   0  0  0  0  0  0  0  0  0  0  0  0
   -3.7428   -1.6768    0.9636 H   0  0  0  0  0  0  0  0  0  0  0  0
   -2.8949   -2.4816   -0.3792 H   0  0  0  0  0  0  0  0  0  0  0  0
   -1.6008   -1.4852    1.0210 C   0  0  0  0  0  0  0  0  0  0  0  0
   -0.8308   -1.9045    1.8697 O   0  0  0  0  0  0  0  0  0  0  0  0
   -1.3366   -0.3014    0.3652 N   0  0  0  0  0  0  0  0  0  0  0  0
   -1.9347   -0.0901   -0.4309 H   0  0  0  0  0  0  0  0  0  0  0  0
   -0.0250    0.3750    0.3698 C   0  0  1  0  0  0  0  0  0  0  0  0
    0.5913   -0.0048    1.1906 H   0  0  0  0  0  0  0  0  0  0  0  0
    0.7061    0.0429   -0.9509 C   0  0  1  0  0  0  0  0  0  0  0  0
    1.6717    0.5609   -0.9370 H   0  0  0  0  0  0  0  0  0  0  0  0
    0.9770   -1.4512   -1.1332 C   0  0  0  0  0  0  0  0  0  0  0  0
    0.0447   -2.0035   -1.2813 H   0  0  0  0  0  0  0  0  0  0  0  0
    1.6159   -1.6134   -2.0061 H   0  0  0  0  0  0  0  0  0  0  0  0
    1.4862   -1.8548   -0.2526 H   0  0  0  0  0  0  0  0  0  0  0  0
   -0.0544    0.5117   -2.0708 O   0  0  0  0  0  0  0  0  0  0  0  0
    0.5177    0.6073   -2.8516 H   0  0  0  0  0  0  0  0  0  0  0  0
   -0.1550    1.8933    0.6164 C   0  0  0  0  0  0  0  0  0  0  0  0
    0.3666    2.7355   -0.1055 O   0  0  0  0  0  0  0  0  0  0  0  0
   -0.7385    2.3124    1.7988 N   0  0  0  0  0  0  0  0  0  0  0  0
   -1.1158    1.5903    2.4075 H   0  0  0  0  0  0  0  0  0  0  0  0
   -0.8350    3.7087    2.2058 C   0  0  0  0  0  0  0  0  0  0  0  0
   -1.4066    4.2832    1.4694 H   0  0  0  0  0  0  0  0  0  0  0  0
   -1.3408    3.7865    3.1730 H   0  0  0  0  0  0  0  0  0  0  0  0
    0.1626    4.1502    2.3010 H   0  0  0  0  0  0  0  0  0  0  0  0
  1  2  1  0  0  0  0
  2  3  1  0  0  0  0
  2  4  1  0  0  0  0
  2  5  1  0  0  0  0
  5  6  2  0  0  0  0
  5  7  1  0  0  0  0
  7  8  1  0  0  0  0
  7  9  1  0  0  0  0
  9 10  1  0  0  0  0
  9 11  1  0  0  0  0
  9 19  1  0  0  0  0
 11 12  1  0  0  0  0
 11 13  1  0  0  0  0
 11 17  1  0  0  0  0
 13 14  1  0  0  0  0
 13 15  1  0  0  0  0
 13 16  1  0  0  0  0
 17 18  1  0  0  0  0
 19 20  2  0  0  0  0
 19 21  1  0  0  0  0
 21 22  1  0  0  0  0
 21 23  1  0  0  0  0
 23 24  1  0  0  0  0
 23 25  1  0  0  0  0
 23 26  1  0  0  0  0
M  END
$$$$

  -OEChem-01062216093D

 26 25  0     1  0  0  0  0  0999 V2000
   -2.8951   -3.1900    1.2466 H   0  0  0  0  0  0  0  0  0  0  0  0
   -2.8750   -2.2453    0.6961 C   0  0  0  0  0  0  0  0  0  0  0  0
   -3.7469   -1.6518    0.9816 H   0  0  0  0  0  0  0  0  0  0  0  0
   -2.9237   -2.4608   -0.3740 H   0  0  0  0  0  0  0  0  0  0  0  0
   -1.6026   -1.4827    1.0129 C   0  0  0  0  0  0  0  0  0  0  0  0
   -0.8204   -1.9174    1.8430 O   0  0  0  0  0  0  0  0  0  0  0  0
   -1.3396   -0.2942    0.3653 N   0  0  0  0  0  0  0  0  0  0  0  0
   -1.9505   -0.0652   -0.4159 H   0  0  0  0  0  0  0  0  0  0  0  0
   -0.0274    0.3783    0.3639 C   0  0  1  0  0  0  0  0  0  0  0  0
    0.5902   -0.0086    1.1803 H   0  0  0  0  0  0  0  0  0  0  0  0
    0.7066    0.0406   -0.9545 C   0  0  1  0  0  0  0  0  0  0  0  0
    1.6693    0.5637   -0.9367 H   0  0  0  0  0  0  0  0  0  0  0  0
    0.9842   -1.4534   -1.1267 C   0  0  0  0  0  0  0  0  0  0  0  0
    0.0546   -2.0096   -1.2776 H   0  0  0  0  0  0  0  0  0  0  0  0
    1.6293   -1.6178   -1.9946 H   0  0  0  0  0  0  0  0  0  0  0  0
    1.4891   -1.8510   -0.2409 H   0  0  0  0  0  0  0  0  0  0  0  0
   -0.0429    0.5003   -2.0848 O   0  0  0  0  0  0  0  0  0  0  0  0
    0.5407    0.6273   -2.8521 H   0  0  0  0  0  0  0  0  0  0  0  0
   -0.1493    1.8953    0.6244 C   0  0  0  0  0  0  0  0  0  0  0  0
    0.1076    2.7487   -0.2165 O   0  0  0  0  0  0  0  0  0  0  0  0
   -0.4177    2.3093    1.9172 N   0  0  0  0  0  0  0  0  0  0  0  0
   -0.6258    1.5849    2.6002 H   0  0  0  0  0  0  0  0  0  0  0  0
   -0.4995    3.7079    2.3197 C   0  0  0  0  0  0  0  0  0  0  0  0
   -1.2963    4.2184    1.7690 H   0  0  0  0  0  0  0  0  0  0  0  0
   -0.7162    3.7809    3.3897 H   0  0  0  0  0  0  0  0  0  0  0  0
    0.4488    4.2194    2.1242 H   0  0  0  0  0  0  0  0  0  0  0  0
  1  2  1  0  0  0  0
  2  3  1  0  0  0  0
  2  4  1  0  0  0  0
  2  5  1  0  0  0  0
  5  6  2  0  0  0  0
  5  7  1  0  0  0  0
  7  8  1  0  0  0  0
  7  9  1  0  0  0  0
  9 10  1  0  0  0  0
  9 11  1  0  0  0  0
  9 19  1  0  0  0  0
 11 12  1  0  0  0  0
 11 13  1  0  0  0  0
 11 17  1  0  0  0  0
 13 14  1  0  0  0  0
 13 15  1  0  0  0  0
 13 16  1  0  0  0  0
 17 18  1  0  0  0  0
 19 20  2  0  0  0  0
 19 21  1  0  0  0  0
 21 22  1  0  0  0  0
 21 23  1  0  0  0  0
 23 24  1  0  0  0  0
 23 25  1  0  0  0  0
 23 26  1  0  0  0  0
M  END
$$$$

  -OEChem-01062216093D

 26 25  0     1  0  0  0  0  0999 V2000
   -2.9357   -3.1501    1.2596 H   0  0  0  0  0  0  0  0  0  0  0  0
   -2.9035   -2.2024    0.7146 C   0  0  0  0  0  0  0  0  0  0  0  0
   -3.7476   -1.5847    1.0306 H   0  0  0  0  0  0  0  0  0  0  0  0
   -2.9914   -2.4087   -0.3548 H   0  0  0  0  0  0  0  0  0  0  0  0
   -1.5996   -1.4806    0.9972 C   0  0  0  0  0  0  0  0  0  0  0  0
   -0.7982   -1.9547    1.7871 O   0  0  0  0  0  0  0  0  0  0  0  0
   -1.3284   -0.2866    0.3634 N   0  0  0  0  0  0  0  0  0  0  0  0
   -1.9666   -0.0115   -0.3802 H   0  0  0  0  0  0  0  0  0  0  0  0
   -0.0130    0.3771    0.3560 C   0  0  1  0  0  0  0  0  0  0  0  0
    0.6017   -0.0235    1.1677 H   0  0  0  0  0  0  0  0  0  0  0  0
    0.7298    0.0445   -0.9598 C   0  0  1  0  0  0  0  0  0  0  0  0
    1.6934    0.5654   -0.9316 H   0  0  0  0  0  0  0  0  0  0  0  0
    1.0039   -1.4502   -1.1318 C   0  0  0  0  0  0  0  0  0  0  0  0
    0.0726   -2.0026   -1.2863 H   0  0  0  0  0  0  0  0  0  0  0  0
    1.6518   -1.6167   -1.9972 H   0  0  0  0  0  0  0  0  0  0  0  0
    1.5038   -1.8507   -0.2444 H   0  0  0  0  0  0  0  0  0  0  0  0
   -0.0006    0.5040   -2.1017 O   0  0  0  0  0  0  0  0  0  0  0  0
    0.5706    0.5337   -2.8876 H   0  0  0  0  0  0  0  0  0  0  0  0
   -0.1232    1.8918    0.6357 C   0  0  0  0  0  0  0  0  0  0  0  0
   -0.2304    2.7347   -0.2459 O   0  0  0  0  0  0  0  0  0  0  0  0
   -0.0570    2.3220    1.9497 N   0  0  0  0  0  0  0  0  0  0  0  0
   -0.0372    1.6053    2.6707 H   0  0  0  0  0  0  0  0  0  0  0  0
   -0.1769    3.7193    2.3480 C   0  0  0  0  0  0  0  0  0  0  0  0
   -1.1521    4.1198    2.0521 H   0  0  0  0  0  0  0  0  0  0  0  0
   -0.0790    3.8122    3.4339 H   0  0  0  0  0  0  0  0  0  0  0  0
    0.6086    4.3205    1.8784 H   0  0  0  0  0  0  0  0  0  0  0  0
  1  2  1  0  0  0  0
  2  3  1  0  0  0  0
  2  4  1  0  0  0  0
  2  5  1  0  0  0  0
  5  6  2  0  0  0  0
  5  7  1  0  0  0  0
  7  8  1  0  0  0  0
  7  9  1  0  0  0  0
  9 10  1  0  0  0  0
  9 11  1  0  0  0  0
  9 19  1  0  0  0  0
 11 12  1  0  0  0  0
 11 13  1  0  0  0  0
 11 17  1  0  0  0  0
 13 14  1  0  0  0  0
 13 15  1  0  0  0  0
 13 16  1  0  0  0  0
 17 18  1  0  0  0  0
 19 20  2  0  0  0  0
 19 21  1  0  0  0  0
 21 22  1  0  0  0  0
 21 23  1  0  0  0  0
 23 24  1  0  0  0  0
 23 25  1  0  0  0  0
 23 26  1  0  0  0  0
M  END
$$$$

  -OEChem-01062216093D

 26 25  0     1  0  0  0  0  0999 V2000
   -2.9966   -3.0876    1.3037 H   0  0  0  0  0  0  0  0  0  0  0  0
   -2.9418   -2.1449    0.7523 C   0  0  0  0  0  0  0  0  0  0  0  0
   -3.7463   -1.4893    1.0939 H   0  0  0  0  0  0  0  0  0  0  0  0
   -3.0762   -2.3516   -0.3123 H   0  0  0  0  0  0  0  0  0  0  0  0
   -1.5981   -1.4804    0.9848 C   0  0  0  0  0  0  0  0  0  0  0  0
   -0.7784   -2.0021    1.7249 O   0  0  0  0  0  0  0  0  0  0  0  0
   -1.3071   -0.2893    0.3550 N   0  0  0  0  0  0  0  0  0  0  0  0
   -1.9788    0.0514   -0.3299 H   0  0  0  0  0  0  0  0  0  0  0  0
    0.0141    0.3608    0.3452 C   0  0  1  0  0  0  0  0  0  0  0  0
    0.6187   -0.0499    1.1591 H   0  0  0  0  0  0  0  0  0  0  0  0
    0.7724    0.0464   -0.9650 C   0  0  1  0  0  0  0  0  0  0  0  0
    1.7396    0.5585   -0.9170 H   0  0  0  0  0  0  0  0  0  0  0  0
    1.0341   -1.4484   -1.1519 C   0  0  0  0  0  0  0  0  0  0  0  0
    0.0979   -1.9898   -1.3158 H   0  0  0  0  0  0  0  0  0  0  0  0
    1.6845   -1.6125   -2.0158 H   0  0  0  0  0  0  0  0  0  0  0  0
    1.5258   -1.8633   -0.2666 H   0  0  0  0  0  0  0  0  0  0  0  0
    0.0619    0.5223   -2.1111 O   0  0  0  0  0  0  0  0  0  0  0  0
    0.6143    0.4691   -2.9086 H   0  0  0  0  0  0  0  0  0  0  0  0
   -0.0886    1.8744    0.6265 C   0  0  0  0  0  0  0  0  0  0  0  0
   -0.5904    2.6571   -0.1707 O   0  0  0  0  0  0  0  0  0  0  0  0
    0.2891    2.3536    1.8695 N   0  0  0  0  0  0  0  0  0  0  0  0
    0.5759    1.6693    2.5642 H   0  0  0  0  0  0  0  0  0  0  0  0
    0.1170    3.7418    2.2809 C   0  0  0  0  0  0  0  0  0  0  0  0
   -0.9447    4.0095    2.2925 H   0  0  0  0  0  0  0  0  0  0  0  0
    0.5236    3.8912    3.2856 H   0  0  0  0  0  0  0  0  0  0  0  0
    0.6425    4.4132    1.5936 H   0  0  0  0  0  0  0  0  0  0  0  0
  1  2  1  0  0  0  0
  2  3  1  0  0  0  0
  2  4  1  0  0  0  0
  2  5  1  0  0  0  0
  5  6  2  0  0  0  0
  5  7  1  0  0  0  0
  7  8  1  0  0  0  0
  7  9  1  0  0  0  0
  9 10  1  0  0  0  0
  9 11  1  0  0  0  0
  9 19  1  0  0  0  0
 11 12  1  0  0  0  0
 11 13  1  0  0  0  0
 11 17  1  0  0  0  0
 13 14  1  0  0  0  0
 13 15  1  0  0  0  0
 13 16  1  0  0  0  0
 17 18  1  0  0  0  0
 19 20  2  0  0  0  0
 19 21  1  0  0  0  0
 21 22  1  0  0  0  0
 21 23  1  0  0  0  0
 23 24  1  0  0  0  0
 23 25  1  0  0  0  0
 23 26  1  0  0  0  0
M  END
$$$$

  -OEChem-01062216093D

 26 25  0     1  0  0  0  0  0999 V2000
   -3.0465   -3.0368    1.3540 H   0  0  0  0  0  0  0  0  0  0  0  0
   -2.9749   -2.0984    0.7972 C   0  0  0  0  0  0  0  0  0  0  0  0
   -3.7344   -1.4075    1.1710 H   0  0  0  0  0  0  0  0  0  0  0  0
   -3.1644   -2.3005   -0.2598 H   0  0  0  0  0  0  0  0  0  0  0  0
   -1.5951   -1.4918    0.9691 C   0  0  0  0  0  0  0  0  0  0  0  0
   -0.7622   -2.0549    1.6628 O   0  0  0  0  0  0  0  0  0  0  0  0
   -1.2855   -0.3077    0.3362 N   0  0  0  0  0  0  0  0  0  0  0  0
   -1.9880    0.0999   -0.2779 H   0  0  0  0  0  0  0  0  0  0  0  0
    0.0372    0.3391    0.3360 C   0  0  1  0  0  0  0  0  0  0  0  0
    0.6308   -0.0717    1.1580 H   0  0  0  0  0  0  0  0  0  0  0  0
    0.8108    0.0475   -0.9684 C   0  0  1  0  0  0  0  0  0  0  0  0
    1.7795    0.5551   -0.9038 H   0  0  0  0  0  0  0  0  0  0  0  0
    1.0669   -1.4456   -1.1753 C   0  0  0  0  0  0  0  0  0  0  0  0
    0.1284   -1.9809   -1.3471 H   0  0  0  0  0  0  0  0  0  0  0  0
    1.7178   -1.6014   -2.0405 H   0  0  0  0  0  0  0  0  0  0  0  0
    1.5553   -1.8739   -0.2946 H   0  0  0  0  0  0  0  0  0  0  0  0
    0.1092    0.5430   -2.1111 O   0  0  0  0  0  0  0  0  0  0  0  0
    0.6392    0.4357   -2.9183 H   0  0  0  0  0  0  0  0  0  0  0  0
   -0.0736    1.8533    0.6036 C   0  0  0  0  0  0  0  0  0  0  0  0
   -0.8456    2.5595   -0.0348 O   0  0  0  0  0  0  0  0  0  0  0  0
    0.5641    2.4007    1.7044 N   0  0  0  0  0  0  0  0  0  0  0  0
    1.0848    1.7689    2.3060 H   0  0  0  0  0  0  0  0  0  0  0  0
    0.3859    3.7846    2.1277 C   0  0  0  0  0  0  0  0  0  0  0  0
   -0.6568    3.9685    2.4066 H   0  0  0  0  0  0  0  0  0  0  0  0
    1.0197    3.9995    2.9934 H   0  0  0  0  0  0  0  0  0  0  0  0
    0.6616    4.4714    1.3205 H   0  0  0  0  0  0  0  0  0  0  0  0
  1  2  1  0  0  0  0
  2  3  1  0  0  0  0
  2  4  1  0  0  0  0
  2  5  1  0  0  0  0
  5  6  2  0  0  0  0
  5  7  1  0  0  0  0
  7  8  1  0  0  0  0
  7  9  1  0  0  0  0
  9 10  1  0  0  0  0
  9 11  1  0  0  0  0
  9 19  1  0  0  0  0
 11 12  1  0  0  0  0
 11 13  1  0  0  0  0
 11 17  1  0  0  0  0
 13 14  1  0  0  0  0
 13 15  1  0  0  0  0
 13 16  1  0  0  0  0
 17 18  1  0  0  0  0
 19 20  2  0  0  0  0
 19 21  1  0  0  0  0
 21 22  1  0  0  0  0
 21 23  1  0  0  0  0
 23 24  1  0  0  0  0
 23 25  1  0  0  0  0
 23 26  1  0  0  0  0
M  END
$$$$

  -OEChem-01062216093D

 26 25  0     1  0  0  0  0  0999 V2000
   -3.0741   -3.0096    1.3905 H   0  0  0  0  0  0  0  0  0  0  0  0
   -2.9959   -2.0726    0.8321 C   0  0  0  0  0  0  0  0  0  0  0  0
   -3.7200   -1.3604    1.2354 H   0  0  0  0  0  0  0  0  0  0  0  0
   -3.2311   -2.2667   -0.2172 H   0  0  0  0  0  0  0  0  0  0  0  0
   -1.5928   -1.5081    0.9516 C   0  0  0  0  0  0  0  0  0  0  0  0
   -0.7487   -2.1020    1.6052 O   0  0  0  0  0  0  0  0  0  0  0  0
   -1.2743   -0.3288    0.3145 N   0  0  0  0  0  0  0  0  0  0  0  0
   -2.0024    0.1343   -0.2262 H   0  0  0  0  0  0  0  0  0  0  0  0
    0.0464    0.3226    0.3291 C   0  0  1  0  0  0  0  0  0  0  0  0
    0.6309   -0.0820    1.1607 H   0  0  0  0  0  0  0  0  0  0  0  0
    0.8339    0.0492   -0.9696 C   0  0  1  0  0  0  0  0  0  0  0  0
    1.8013    0.5573   -0.8928 H   0  0  0  0  0  0  0  0  0  0  0  0
    1.0929   -1.4413   -1.1898 C   0  0  0  0  0  0  0  0  0  0  0  0
    0.1556   -1.9762   -1.3699 H   0  0  0  0  0  0  0  0  0  0  0  0
    1.7476   -1.5883   -2.0536 H   0  0  0  0  0  0  0  0  0  0  0  0
    1.5779   -1.8772   -0.3110 H   0  0  0  0  0  0  0  0  0  0  0  0
    0.1373    0.5560   -2.1102 O   0  0  0  0  0  0  0  0  0  0  0  0
    0.6515    0.4135   -2.9224 H   0  0  0  0  0  0  0  0  0  0  0  0
   -0.0768    1.8379    0.5815 C   0  0  0  0  0  0  0  0  0  0  0  0
   -1.0187    2.4789    0.1267 O   0  0  0  0  0  0  0  0  0  0  0  0
    0.7727    2.4557    1.4839 N   0  0  0  0  0  0  0  0  0  0  0  0
    1.4675    1.8775    1.9473 H   0  0  0  0  0  0  0  0  0  0  0  0
    0.6250    3.8453    1.8999 C   0  0  0  0  0  0  0  0  0  0  0  0
   -0.3328    3.9930    2.4095 H   0  0  0  0  0  0  0  0  0  0  0  0
    1.4297    4.1213    2.5879 H   0  0  0  0  0  0  0  0  0  0  0  0
    0.6694    4.5120    1.0323 H   0  0  0  0  0  0  0  0  0  0  0  0
  1  2  1  0  0  0  0
  2  3  1  0  0  0  0
  2  4  1  0  0  0  0
  2  5  1  0  0  0  0
  5  6  2  0  0  0  0
  5  7  1  0  0  0  0
  7  8  1  0  0  0  0
  7  9  1  0  0  0  0
  9 10  1  0  0  0  0
  9 11  1  0  0  0  0
  9 19  1  0  0  0  0
 11 12  1  0  0  0  0
 11 13  1  0  0  0  0
 11 17  1  0  0  0  0
 13 14  1  0  0  0  0
 13 15  1  0  0  0  0
 13 16  1  0  0  0  0
 17 18  1  0  0  0  0
 19 20  2  0  0  0  0
 19 21  1  0  0  0  0
 21 22  1  0  0  0  0
 21 23  1  0  0  0  0
 23 24  1  0  0  0  0
 23 25  1  0  0  0  0
 23 26  1  0  0  0  0
M  END
$$$$

  -OEChem-01062216093D

 26 25  0     1  0  0  0  0  0999 V2000
   -3.0914   -2.9900    1.4257 H   0  0  0  0  0  0  0  0  0  0  0  0
   -3.0095   -2.0549    0.8647 C   0  0  0  0  0  0  0  0  0  0  0  0
   -3.6981   -1.3239    1.2955 H   0  0  0  0  0  0  0  0  0  0  0  0
   -3.2900   -2.2410   -0.1748 H   0  0  0  0  0  0  0  0  0  0  0  0
   -1.5885   -1.5282    0.9298 C   0  0  0  0  0  0  0  0  0  0  0  0
   -0.7345   -2.1471    1.5464 O   0  0  0  0  0  0  0  0  0  0  0  0
   -1.2676   -0.3509    0.2908 N   0  0  0  0  0  0  0  0  0  0  0  0
   -2.0161    0.1574   -0.1768 H   0  0  0  0  0  0  0  0  0  0  0  0
    0.0495    0.3078    0.3245 C   0  0  1  0  0  0  0  0  0  0  0  0
    0.6271   -0.0904    1.1641 H   0  0  0  0  0  0  0  0  0  0  0  0
    0.8489    0.0498   -0.9701 C   0  0  1  0  0  0  0  0  0  0  0  0
    1.8152    0.5588   -0.8834 H   0  0  0  0  0  0  0  0  0  0  0  0
    1.1137   -1.4377   -1.2025 C   0  0  0  0  0  0  0  0  0  0  0  0
    0.1798   -1.9734   -1.3975 H   0  0  0  0  0  0  0  0  0  0  0  0
    1.7778   -1.5747   -2.0606 H   0  0  0  0  0  0  0  0  0  0  0  0
    1.5905   -1.8807   -0.3227 H   0  0  0  0  0  0  0  0  0  0  0  0
    0.1560    0.5658   -2.1093 O   0  0  0  0  0  0  0  0  0  0  0  0
    0.6607    0.4036   -2.9240 H   0  0  0  0  0  0  0  0  0  0  0  0
   -0.0886    1.8238    0.5662 C   0  0  0  0  0  0  0  0  0  0  0  0
   -1.1352    2.4101    0.3062 O   0  0  0  0  0  0  0  0  0  0  0  0
    0.9148    2.5120    1.2273 N   0  0  0  0  0  0  0  0  0  0  0  0
    1.7342    1.9874    1.5185 H   0  0  0  0  0  0  0  0  0  0  0  0
    0.8041    3.9140    1.6112 C   0  0  0  0  0  0  0  0  0  0  0  0
   -0.0349    4.0571    2.3004 H   0  0  0  0  0  0  0  0  0  0  0  0
    1.7210    4.2435    2.1092 H   0  0  0  0  0  0  0  0  0  0  0  0
    0.6462    4.5417    0.7278 H   0  0  0  0  0  0  0  0  0  0  0  0
  1  2  1  0  0  0  0
  2  3  1  0  0  0  0
  2  4  1  0  0  0  0
  2  5  1  0  0  0  0
  5  6  2  0  0  0  0
  5  7  1  0  0  0  0
  7  8  1  0  0  0  0
  7  9  1  0  0  0  0
  9 10  1  0  0  0  0
  9 11  1  0  0  0  0
  9 19  1  0  0  0  0
 11 12  1  0  0  0  0
 11 13  1  0  0  0  0
 11 17  1  0  0  0  0
 13 14  1  0  0  0  0
 13 15  1  0  0  0  0
 13 16  1  0  0  0  0
 17 18  1  0  0  0  0
 19 20  2  0  0  0  0
 19 21  1  0  0  0  0
 21 22  1  0  0  0  0
 21 23  1  0  0  0  0
 23 24  1  0  0  0  0
 23 25  1  0  0  0  0
 23 26  1  0  0  0  0
M  END
$$$$

  -OEChem-01062216093D

 26 25  0     1  0  0  0  0  0999 V2000
   -3.1002   -2.9853    1.4481 H   0  0  0  0  0  0  0  0  0  0  0  0
   -3.0157   -2.0544    0.8806 C   0  0  0  0  0  0  0  0  0  0  0  0
   -3.6813   -1.3098    1.3240 H   0  0  0  0  0  0  0  0  0  0  0  0
   -3.3245   -2.2404   -0.1508 H   0  0  0  0  0  0  0  0  0  0  0  0
   -1.5849   -1.5513    0.9092 C   0  0  0  0  0  0  0  0  0  0  0  0
   -0.7232   -2.1920    1.4920 O   0  0  0  0  0  0  0  0  0  0  0  0
   -1.2652   -0.3701    0.2768 N   0  0  0  0  0  0  0  0  0  0  0  0
   -2.0280    0.1727   -0.1239 H   0  0  0  0  0  0  0  0  0  0  0  0
    0.0492    0.2946    0.3327 C   0  0  1  0  0  0  0  0  0  0  0  0
    0.6225   -0.1036    1.1754 H   0  0  0  0  0  0  0  0  0  0  0  0
    0.8556    0.0531   -0.9618 C   0  0  1  0  0  0  0  0  0  0  0  0
    1.8220    0.5597   -0.8676 H   0  0  0  0  0  0  0  0  0  0  0  0
    1.1208   -1.4316   -1.2130 C   0  0  0  0  0  0  0  0  0  0  0  0
    0.1876   -1.9641   -1.4195 H   0  0  0  0  0  0  0  0  0  0  0  0
    1.7888   -1.5582   -2.0698 H   0  0  0  0  0  0  0  0  0  0  0  0
    1.5932   -1.8870   -0.3370 H   0  0  0  0  0  0  0  0  0  0  0  0
    0.1638    0.5828   -2.0955 O   0  0  0  0  0  0  0  0  0  0  0  0
    0.6580    0.4098   -2.9145 H   0  0  0  0  0  0  0  0  0  0  0  0
   -0.1007    1.8103    0.5775 C   0  0  0  0  0  0  0  0  0  0  0  0
   -1.2020    2.3500    0.5195 O   0  0  0  0  0  0  0  0  0  0  0  0
    0.9923    2.5654    0.9690 N   0  0  0  0  0  0  0  0  0  0  0  0
    1.8877    2.0940    1.0524 H   0  0  0  0  0  0  0  0  0  0  0  0
    0.9159    3.9903    1.2675 C   0  0  0  0  0  0  0  0  0  0  0  0
    0.2104    4.1745    2.0846 H   0  0  0  0  0  0  0  0  0  0  0  0
    1.8980    4.3669    1.5687 H   0  0  0  0  0  0  0  0  0  0  0  0
    0.5871    4.5489    0.3849 H   0  0  0  0  0  0  0  0  0  0  0  0
  1  2  1  0  0  0  0
  2  3  1  0  0  0  0
  2  4  1  0  0  0  0
  2  5  1  0  0  0  0
  5  6  2  0  0  0  0
  5  7  1  0  0  0  0
  7  8  1  0  0  0  0
  7  9  1  0  0  0  0
  9 10  1  0  0  0  0
  9 11  1  0  0  0  0
  9 19  1  0  0  0  0
 11 12  1  0  0  0  0
 11 13  1  0  0  0  0
 11 17  1  0  0  0  0
 13 14  1  0  0  0  0
 13 15  1  0  0  0  0
 13 16  1  0  0  0  0
 17 18  1  0  0  0  0
 19 20  2  0  0  0  0
 19 21  1  0  0  0  0
 21 22  1  0  0  0  0
 21 23  1  0  0  0  0
 23 24  1  0  0  0  0
 23 25  1  0  0  0  0
 23 26  1  0  0  0  0
M  END
$$$$

  -OEChem-01062216093D

 26 25  0     1  0  0  0  0  0999 V2000
   -3.0855   -2.9402    1.5024 H   0  0  0  0  0  0  0  0  0  0  0  0
   -3.0118   -2.0129    0.9275 C   0  0  0  0  0  0  0  0  0  0  0  0
   -3.6136   -1.2449    1.4199 H   0  0  0  0  0  0  0  0  0  0  0  0
   -3.4054   -2.1868   -0.0767 H   0  0  0  0  0  0  0  0  0  0  0  0
   -1.5658   -1.5624    0.8450 C   0  0  0  0  0  0  0  0  0  0  0  0
   -0.6819   -2.2604    1.3183 O   0  0  0  0  0  0  0  0  0  0  0  0
   -1.2586   -0.3732    0.2206 N   0  0  0  0  0  0  0  0  0  0  0  0
   -2.0431    0.2232   -0.0342 H   0  0  0  0  0  0  0  0  0  0  0  0
    0.0545    0.2936    0.3055 C   0  0  1  0  0  0  0  0  0  0  0  0
    0.7222   -0.2725    0.9619 H   0  0  0  0  0  0  0  0  0  0  0  0
    0.7054    0.3670   -1.0917 C   0  0  1  0  0  0  0  0  0  0  0  0
    1.6822    0.8534   -1.0012 H   0  0  0  0  0  0  0  0  0  0  0  0
    0.9228   -1.0226   -1.6931 C   0  0  0  0  0  0  0  0  0  0  0  0
   -0.0336   -1.5156   -1.8922 H   0  0  0  0  0  0  0  0  0  0  0  0
    1.4761   -0.9467   -2.6336 H   0  0  0  0  0  0  0  0  0  0  0  0
    1.4977   -1.6490   -1.0040 H   0  0  0  0  0  0  0  0  0  0  0  0
   -0.1122    1.1249   -1.9878 O   0  0  0  0  0  0  0  0  0  0  0  0
    0.2720    1.1362   -2.8809 H   0  0  0  0  0  0  0  0  0  0  0  0
   -0.0685    1.7050    0.9209 C   0  0  0  0  0  0  0  0  0  0  0  0
   -1.1561    2.1276    1.3029 O   0  0  0  0  0  0  0  0  0  0  0  0
    1.0508    2.5033    1.0915 N   0  0  0  0  0  0  0  0  0  0  0  0
    1.9429    2.1404    0.7708 H   0  0  0  0  0  0  0  0  0  0  0  0
    1.0012    3.8411    1.6687 C   0  0  0  0  0  0  0  0  0  0  0  0
    0.5949    3.8058    2.6850 H   0  0  0  0  0  0  0  0  0  0  0  0
    2.0064    4.2707    1.7140 H   0  0  0  0  0  0  0  0  0  0  0  0
    0.3715    4.4977    1.0592 H   0  0  0  0  0  0  0  0  0  0  0  0
  1  2  1  0  0  0  0
  2  3  1  0  0  0  0
  2  4  1  0  0  0  0
  2  5  1  0  0  0  0
  5  6  2  0  0  0  0
  5  7  1  0  0  0  0
  7  8  1  0  0  0  0
  7  9  1  0  0  0  0
  9 10  1  0  0  0  0
  9 11  1  0  0  0  0
  9 19  1  0  0  0  0
 11 12  1  0  0  0  0
 11 13  1  0  0  0  0
 11 17  1  0  0  0  0
 13 14  1  0  0  0  0
 13 15  1  0  0  0  0
 13 16  1  0  0  0  0
 17 18  1  0  0  0  0
 19 20  2  0  0  0  0
 19 21  1  0  0  0  0
 21 22  1  0  0  0  0
 21 23  1  0  0  0  0
 23 24  1  0  0  0  0
 23 25  1  0  0  0  0
 23 26  1  0  0  0  0
M  END
$$$$

  -OEChem-01062216093D

 26 25  0     1  0  0  0  0  0999 V2000
   -3.0815   -2.9259    1.5091 H   0  0  0  0  0  0  0  0  0  0  0  0
   -3.0091   -1.9987    0.9339 C   0  0  0  0  0  0  0  0  0  0  0  0
   -3.5987   -1.2271    1.4352 H   0  0  0  0  0  0  0  0  0  0  0  0
   -3.4178   -2.1690   -0.0649 H   0  0  0  0  0  0  0  0  0  0  0  0
   -1.5612   -1.5585    0.8315 C   0  0  0  0  0  0  0  0  0  0  0  0
   -0.6750   -2.2711    1.2779 O   0  0  0  0  0  0  0  0  0  0  0  0
   -1.2553   -0.3662    0.2118 N   0  0  0  0  0  0  0  0  0  0  0  0
   -2.0415    0.2370   -0.0184 H   0  0  0  0  0  0  0  0  0  0  0  0
    0.0621    0.2934    0.2999 C   0  0  1  0  0  0  0  0  0  0  0  0
    0.7269   -0.2745    0.9580 H   0  0  0  0  0  0  0  0  0  0  0  0
    0.7162    0.3553   -1.0977 C   0  0  1  0  0  0  0  0  0  0  0  0
    1.6988    0.8301   -1.0097 H   0  0  0  0  0  0  0  0  0  0  0  0
    0.9203   -1.0395   -1.6918 C   0  0  0  0  0  0  0  0  0  0  0  0
   -0.0406   -1.5233   -1.8921 H   0  0  0  0  0  0  0  0  0  0  0  0
    1.4779   -0.9744   -2.6304 H   0  0  0  0  0  0  0  0  0  0  0  0
    1.4856   -1.6689   -0.9974 H   0  0  0  0  0  0  0  0  0  0  0  0
   -0.0943    1.1144   -1.9994 O   0  0  0  0  0  0  0  0  0  0  0  0
    0.2733    1.0877   -2.8995 H   0  0  0  0  0  0  0  0  0  0  0  0
   -0.0618    1.7018    0.9264 C   0  0  0  0  0  0  0  0  0  0  0  0
   -1.0826    2.0235    1.5273 O   0  0  0  0  0  0  0  0  0  0  0  0
    0.9671    2.6254    0.8367 N   0  0  0  0  0  0  0  0  0  0  0  0
    1.7739    2.3747    0.2743 H   0  0  0  0  0  0  0  0  0  0  0  0
    0.8794    3.9778    1.3737 C   0  0  0  0  0  0  0  0  0  0  0  0
    0.6904    3.9511    2.4521 H   0  0  0  0  0  0  0  0  0  0  0  0
    1.8176    4.5139    1.2021 H   0  0  0  0  0  0  0  0  0  0  0  0
    0.0694    4.5309    0.8867 H   0  0  0  0  0  0  0  0  0  0  0  0
  1  2  1  0  0  0  0
  2  3  1  0  0  0  0
  2  4  1  0  0  0  0
  2  5  1  0  0  0  0
  5  6  2  0  0  0  0
  5  7  1  0  0  0  0
  7  8  1  0  0  0  0
  7  9  1  0  0  0  0
  9 10  1  0  0  0  0
  9 11  1  0  0  0  0
  9 19  1  0  0  0  0
 11 12  1  0  0  0  0
 11 13  1  0  0  0  0
 11 17  1  0  0  0  0
 13 14  1  0  0  0  0
 13 15  1  0  0  0  0
 13 16  1  0  0  0  0
 17 18  1  0  0  0  0
 19 20  2  0  0  0  0
 19 21  1  0  0  0  0
 21 22  1  0  0  0  0
 21 23  1  0  0  0  0
 23 24  1  0  0  0  0
 23 25  1  0  0  0  0
 23 26  1  0  0  0  0
M  END
$$$$

  -OEChem-01062216093D

 26 25  0     1  0  0  0  0  0999 V2000
   -3.0806   -2.9161    1.4985 H   0  0  0  0  0  0  0  0  0  0  0  0
   -3.0097   -1.9735    0.9486 C   0  0  0  0  0  0  0  0  0  0  0  0
   -3.5719   -1.2081    1.4893 H   0  0  0  0  0  0  0  0  0  0  0  0
   -3.4497   -2.1081   -0.0423 H   0  0  0  0  0  0  0  0  0  0  0  0
   -1.5587   -1.5515    0.8177 C   0  0  0  0  0  0  0  0  0  0  0  0
   -0.6724   -2.2841    1.2300 O   0  0  0  0  0  0  0  0  0  0  0  0
   -1.2515   -0.3566    0.2029 N   0  0  0  0  0  0  0  0  0  0  0  0
   -2.0378    0.2507   -0.0123 H   0  0  0  0  0  0  0  0  0  0  0  0
    0.0713    0.2935    0.2894 C   0  0  1  0  0  0  0  0  0  0  0  0
    0.7301   -0.2775    0.9510 H   0  0  0  0  0  0  0  0  0  0  0  0
    0.7381    0.3434   -1.1031 C   0  0  1  0  0  0  0  0  0  0  0  0
    1.7263    0.8058   -1.0085 H   0  0  0  0  0  0  0  0  0  0  0  0
    0.9298   -1.0565   -1.6890 C   0  0  0  0  0  0  0  0  0  0  0  0
   -0.0353   -1.5294   -1.8950 H   0  0  0  0  0  0  0  0  0  0  0  0
    1.4963   -1.0028   -2.6231 H   0  0  0  0  0  0  0  0  0  0  0  0
    1.4814   -1.6893   -0.9867 H   0  0  0  0  0  0  0  0  0  0  0  0
   -0.0575    1.1032   -2.0174 O   0  0  0  0  0  0  0  0  0  0  0  0
    0.2908    1.0241   -2.9223 H   0  0  0  0  0  0  0  0  0  0  0  0
   -0.0507    1.6981    0.9270 C   0  0  0  0  0  0  0  0  0  0  0  0
   -0.9437    1.9243    1.7374 O   0  0  0  0  0  0  0  0  0  0  0  0
    0.8164    2.7291    0.6029 N   0  0  0  0  0  0  0  0  0  0  0  0
    1.4264    2.5767   -0.1943 H   0  0  0  0  0  0  0  0  0  0  0  0
    0.6658    4.0871    1.1120 C   0  0  0  0  0  0  0  0  0  0  0  0
    0.6982    4.0926    2.2066 H   0  0  0  0  0  0  0  0  0  0  0  0
    1.4768    4.7214    0.7415 H   0  0  0  0  0  0  0  0  0  0  0  0
   -0.2876    4.5152    0.7852 H   0  0  0  0  0  0  0  0  0  0  0  0
  1  2  1  0  0  0  0
  2  3  1  0  0  0  0
  2  4  1  0  0  0  0
  2  5  1  0  0  0  0
  5  6  2  0  0  0  0
  5  7  1  0  0  0  0
  7  8  1  0  0  0  0
  7  9  1  0  0  0  0
  9 10  1  0  0  0  0
  9 11  1  0  0  0  0
  9 19  1  0  0  0  0
 11 12  1  0  0  0  0
 11 13  1  0  0  0  0
 11 17  1  0  0  0  0
 13 14  1  0  0  0  0
 13 15  1  0  0  0  0
 13 16  1  0  0  0  0
 17 18  1  0  0  0  0
 19 20  2  0  0  0  0
 19 21  1  0  0  0  0
 21 22  1  0  0  0  0
 21 23  1  0  0  0  0
 23 24  1  0  0  0  0
 23 25  1  0  0  0  0
 23 26  1  0  0  0  0
M  END
$$$$

  -OEChem-01062216093D

 26 25  0     1  0  0  0  0  0999 V2000
   -3.0772   -2.9130    1.4940 H   0  0  0  0  0  0  0  0  0  0  0  0
   -3.0088   -1.9684    0.9471 C   0  0  0  0  0  0  0  0  0  0  0  0
   -3.5774   -1.2077    1.4876 H   0  0  0  0  0  0  0  0  0  0  0  0
   -3.4434   -2.1027   -0.0462 H   0  0  0  0  0  0  0  0  0  0  0  0
   -1.5590   -1.5394    0.8248 C   0  0  0  0  0  0  0  0  0  0  0  0
   -0.6727   -2.2700    1.2398 O   0  0  0  0  0  0  0  0  0  0  0  0
   -1.2526   -0.3446    0.2082 N   0  0  0  0  0  0  0  0  0  0  0  0
   -2.0389    0.2510   -0.0349 H   0  0  0  0  0  0  0  0  0  0  0  0
    0.0728    0.3020    0.2828 C   0  0  1  0  0  0  0  0  0  0  0  0
    0.7308   -0.2681    0.9462 H   0  0  0  0  0  0  0  0  0  0  0  0
    0.7464    0.3412   -1.1069 C   0  0  1  0  0  0  0  0  0  0  0  0
    1.7356    0.8012   -1.0072 H   0  0  0  0  0  0  0  0  0  0  0  0
    0.9369   -1.0638   -1.6802 C   0  0  0  0  0  0  0  0  0  0  0  0
   -0.0284   -1.5364   -1.8859 H   0  0  0  0  0  0  0  0  0  0  0  0
    1.5079   -1.0193   -2.6119 H   0  0  0  0  0  0  0  0  0  0  0  0
    1.4843   -1.6917   -0.9702 H   0  0  0  0  0  0  0  0  0  0  0  0
   -0.0391    1.0954   -2.0357 O   0  0  0  0  0  0  0  0  0  0  0  0
    0.3013    0.9816   -2.9405 H   0  0  0  0  0  0  0  0  0  0  0  0
   -0.0452    1.7049    0.9224 C   0  0  0  0  0  0  0  0  0  0  0  0
   -0.7478    1.8607    1.9147 O   0  0  0  0  0  0  0  0  0  0  0  0
    0.5982    2.8100    0.3907 N   0  0  0  0  0  0  0  0  0  0  0  0
    0.9560    2.6960   -0.5543 H   0  0  0  0  0  0  0  0  0  0  0  0
    0.4021    4.1636    0.8956 C   0  0  0  0  0  0  0  0  0  0  0  0
    0.6731    4.2214    1.9551 H   0  0  0  0  0  0  0  0  0  0  0  0
    1.0309    4.8673    0.3419 H   0  0  0  0  0  0  0  0  0  0  0  0
   -0.6438    4.4674    0.7822 H   0  0  0  0  0  0  0  0  0  0  0  0
  1  2  1  0  0  0  0
  2  3  1  0  0  0  0
  2  4  1  0  0  0  0
  2  5  1  0  0  0  0
  5  6  2  0  0  0  0
  5  7  1  0  0  0  0
  7  8  1  0  0  0  0
  7  9  1  0  0  0  0
  9 10  1  0  0  0  0
  9 11  1  0  0  0  0
  9 19  1  0  0  0  0
 11 12  1  0  0  0  0
 11 13  1  0  0  0  0
 11 17  1  0  0  0  0
 13 14  1  0  0  0  0
 13 15  1  0  0  0  0
 13 16  1  0  0  0  0
 17 18  1  0  0  0  0
 19 20  2  0  0  0  0
 19 21  1  0  0  0  0
 21 22  1  0  0  0  0
 21 23  1  0  0  0  0
 23 24  1  0  0  0  0
 23 25  1  0  0  0  0
 23 26  1  0  0  0  0
M  END
$$$$

  -OEChem-01062216093D

 26 25  0     1  0  0  0  0  0999 V2000
   -3.0702   -2.9277    1.4728 H   0  0  0  0  0  0  0  0  0  0  0  0
   -3.0030   -1.9797    0.9320 C   0  0  0  0  0  0  0  0  0  0  0  0
   -3.5933   -1.2296    1.4640 H   0  0  0  0  0  0  0  0  0  0  0  0
   -3.4142   -2.1152   -0.0711 H   0  0  0  0  0  0  0  0  0  0  0  0
   -1.5569   -1.5305    0.8426 C   0  0  0  0  0  0  0  0  0  0  0  0
   -0.6707   -2.2479    1.2794 O   0  0  0  0  0  0  0  0  0  0  0  0
   -1.2544   -0.3359    0.2231 N   0  0  0  0  0  0  0  0  0  0  0  0
   -2.0399    0.2342   -0.0759 H   0  0  0  0  0  0  0  0  0  0  0  0
    0.0686    0.3160    0.2843 C   0  0  1  0  0  0  0  0  0  0  0  0
    0.7318   -0.2504    0.9460 H   0  0  0  0  0  0  0  0  0  0  0  0
    0.7353    0.3444   -1.1099 C   0  0  1  0  0  0  0  0  0  0  0  0
    1.7204    0.8146   -1.0144 H   0  0  0  0  0  0  0  0  0  0  0  0
    0.9358   -1.0655   -1.6677 C   0  0  0  0  0  0  0  0  0  0  0  0
   -0.0262   -1.5473   -1.8674 H   0  0  0  0  0  0  0  0  0  0  0  0
    1.5060   -1.0271   -2.6002 H   0  0  0  0  0  0  0  0  0  0  0  0
    1.4882   -1.6820   -0.9516 H   0  0  0  0  0  0  0  0  0  0  0  0
   -0.0527    1.0851   -2.0500 O   0  0  0  0  0  0  0  0  0  0  0  0
    0.2929    0.9595   -2.9518 H   0  0  0  0  0  0  0  0  0  0  0  0
   -0.0427    1.7193    0.9208 C   0  0  0  0  0  0  0  0  0  0  0  0
   -0.5180    1.8392    2.0433 O   0  0  0  0  0  0  0  0  0  0  0  0
    0.3271    2.8620    0.2332 N   0  0  0  0  0  0  0  0  0  0  0  0
    0.4774    2.7361   -0.7667 H   0  0  0  0  0  0  0  0  0  0  0  0
    0.0951    4.2094    0.7389 C   0  0  0  0  0  0  0  0  0  0  0  0
    0.5883    4.3466    1.7071 H   0  0  0  0  0  0  0  0  0  0  0  0
    0.4987    4.9490    0.0406 H   0  0  0  0  0  0  0  0  0  0  0  0
   -0.9774    4.3938    0.8604 H   0  0  0  0  0  0  0  0  0  0  0  0
  1  2  1  0  0  0  0
  2  3  1  0  0  0  0
  2  4  1  0  0  0  0
  2  5  1  0  0  0  0
  5  6  2  0  0  0  0
  5  7  1  0  0  0  0
  7  8  1  0  0  0  0
  7  9  1  0  0  0  0
  9 10  1  0  0  0  0
  9 11  1  0  0  0  0
  9 19  1  0  0  0  0
 11 12  1  0  0  0  0
 11 13  1  0  0  0  0
 11 17  1  0  0  0  0
 13 14  1  0  0  0  0
 13 15  1  0  0  0  0
 13 16  1  0  0  0  0
 17 18  1  0  0  0  0
 19 20  2  0  0  0  0
 19 21  1  0  0  0  0
 21 22  1  0  0  0  0
 21 23  1  0  0  0  0
 23 24  1  0  0  0  0
 23 25  1  0  0  0  0
 23 26  1  0  0  0  0
M  END
$$$$

  -OEChem-01062216093D

 26 25  0     1  0  0  0  0  0999 V2000
   -3.0594   -2.9468    1.4763 H   0  0  0  0  0  0  0  0  0  0  0  0
   -2.9963   -2.0136    0.9095 C   0  0  0  0  0  0  0  0  0  0  0  0
   -3.6240   -1.2640    1.3972 H   0  0  0  0  0  0  0  0  0  0  0  0
   -3.3679   -2.1897   -0.1026 H   0  0  0  0  0  0  0  0  0  0  0  0
   -1.5592   -1.5302    0.8583 C   0  0  0  0  0  0  0  0  0  0  0  0
   -0.6705   -2.2225    1.3280 O   0  0  0  0  0  0  0  0  0  0  0  0
   -1.2657   -0.3348    0.2353 N   0  0  0  0  0  0  0  0  0  0  0  0
   -2.0491    0.2004   -0.1265 H   0  0  0  0  0  0  0  0  0  0  0  0
    0.0496    0.3327    0.2872 C   0  0  1  0  0  0  0  0  0  0  0  0
    0.7208   -0.2259    0.9477 H   0  0  0  0  0  0  0  0  0  0  0  0
    0.7083    0.3529   -1.1111 C   0  0  1  0  0  0  0  0  0  0  0  0
    1.6847    0.8423   -1.0222 H   0  0  0  0  0  0  0  0  0  0  0  0
    0.9320   -1.0609   -1.6500 C   0  0  0  0  0  0  0  0  0  0  0  0
   -0.0220   -1.5627   -1.8386 H   0  0  0  0  0  0  0  0  0  0  0  0
    1.4978   -1.0257   -2.5854 H   0  0  0  0  0  0  0  0  0  0  0  0
    1.4987   -1.6565   -0.9273 H   0  0  0  0  0  0  0  0  0  0  0  0
   -0.0882    1.0723   -2.0626 O   0  0  0  0  0  0  0  0  0  0  0  0
    0.2773    0.9592   -2.9586 H   0  0  0  0  0  0  0  0  0  0  0  0
   -0.0610    1.7378    0.9164 C   0  0  0  0  0  0  0  0  0  0  0  0
   -0.2757    1.8518    2.1160 O   0  0  0  0  0  0  0  0  0  0  0  0
    0.0012    2.8827    0.1431 N   0  0  0  0  0  0  0  0  0  0  0  0
    0.0099    2.7338   -0.8661 H   0  0  0  0  0  0  0  0  0  0  0  0
   -0.2235    4.2255    0.6627 C   0  0  0  0  0  0  0  0  0  0  0  0
    0.4955    4.4541    1.4564 H   0  0  0  0  0  0  0  0  0  0  0  0
   -0.1014    4.9640   -0.1354 H   0  0  0  0  0  0  0  0  0  0  0  0
   -1.2369    4.3154    1.0677 H   0  0  0  0  0  0  0  0  0  0  0  0
  1  2  1  0  0  0  0
  2  3  1  0  0  0  0
  2  4  1  0  0  0  0
  2  5  1  0  0  0  0
  5  6  2  0  0  0  0
  5  7  1  0  0  0  0
  7  8  1  0  0  0  0
  7  9  1  0  0  0  0
  9 10  1  0  0  0  0
  9 11  1  0  0  0  0
  9 19  1  0  0  0  0
 11 12  1  0  0  0  0
 11 13  1  0  0  0  0
 11 17  1  0  0  0  0
 13 14  1  0  0  0  0
 13 15  1  0  0  0  0
 13 16  1  0  0  0  0
 17 18  1  0  0  0  0
 19 20  2  0  0  0  0
 19 21  1  0  0  0  0
 21 22  1  0  0  0  0
 21 23  1  0  0  0  0
 23 24  1  0  0  0  0
 23 25  1  0  0  0  0
 23 26  1  0  0  0  0
M  END
$$$$

  -OEChem-01062216093D

 26 25  0     1  0  0  0  0  0999 V2000
   -3.0407   -3.0047    1.4429 H   0  0  0  0  0  0  0  0  0  0  0  0
   -2.9861   -2.0681    0.8809 C   0  0  0  0  0  0  0  0  0  0  0  0
   -3.6532   -1.3394    1.3478 H   0  0  0  0  0  0  0  0  0  0  0  0
   -3.3159   -2.2518   -0.1444 H   0  0  0  0  0  0  0  0  0  0  0  0
   -1.5634   -1.5416    0.8809 C   0  0  0  0  0  0  0  0  0  0  0  0
   -0.6740   -2.2021    1.3924 O   0  0  0  0  0  0  0  0  0  0  0  0
   -1.2825   -0.3454    0.2537 N   0  0  0  0  0  0  0  0  0  0  0  0
   -2.0608    0.1483   -0.1725 H   0  0  0  0  0  0  0  0  0  0  0  0
    0.0215    0.3440    0.3025 C   0  0  1  0  0  0  0  0  0  0  0  0
    0.7021   -0.2042    0.9625 H   0  0  0  0  0  0  0  0  0  0  0  0
    0.6737    0.3689   -1.0983 C   0  0  1  0  0  0  0  0  0  0  0  0
    1.6406    0.8775   -1.0139 H   0  0  0  0  0  0  0  0  0  0  0  0
    0.9236   -1.0427   -1.6313 C   0  0  0  0  0  0  0  0  0  0  0  0
   -0.0208   -1.5640   -1.8148 H   0  0  0  0  0  0  0  0  0  0  0  0
    1.4860   -1.0005   -2.5685 H   0  0  0  0  0  0  0  0  0  0  0  0
    1.5042   -1.6238   -0.9076 H   0  0  0  0  0  0  0  0  0  0  0  0
   -0.1374    1.0707   -2.0516 O   0  0  0  0  0  0  0  0  0  0  0  0
    0.2493    0.9890   -2.9422 H   0  0  0  0  0  0  0  0  0  0  0  0
   -0.1023    1.7513    0.9218 C   0  0  0  0  0  0  0  0  0  0  0  0
   -0.0332    1.8964    2.1349 O   0  0  0  0  0  0  0  0  0  0  0  0
   -0.3603    2.8582    0.1346 N   0  0  0  0  0  0  0  0  0  0  0  0
   -0.4420    2.6865   -0.8680 H   0  0  0  0  0  0  0  0  0  0  0  0
   -0.5324    4.2091    0.6525 C   0  0  0  0  0  0  0  0  0  0  0  0
    0.3650    4.5294    1.1919 H   0  0  0  0  0  0  0  0  0  0  0  0
   -0.7095    4.9089   -0.1696 H   0  0  0  0  0  0  0  0  0  0  0  0
   -1.3881    4.2515    1.3342 H   0  0  0  0  0  0  0  0  0  0  0  0
  1  2  1  0  0  0  0
  2  3  1  0  0  0  0
  2  4  1  0  0  0  0
  2  5  1  0  0  0  0
  5  6  2  0  0  0  0
  5  7  1  0  0  0  0
  7  8  1  0  0  0  0
  7  9  1  0  0  0  0
  9 10  1  0  0  0  0
  9 11  1  0  0  0  0
  9 19  1  0  0  0  0
 11 12  1  0  0  0  0
 11 13  1  0  0  0  0
 11 17  1  0  0  0  0
 13 14  1  0  0  0  0
 13 15  1  0  0  0  0
 13 16  1  0  0  0  0
 17 18  1  0  0  0  0
 19 20  2  0  0  0  0
 19 21  1  0  0  0  0
 21 22  1  0  0  0  0
 21 23  1  0  0  0  0
 23 24  1  0  0  0  0
 23 25  1  0  0  0  0
 23 26  1  0  0  0  0
M  END
$$$$

  -OEChem-01062216093D

 26 25  0     1  0  0  0  0  0999 V2000
   -3.0244   -3.0729    1.4119 H   0  0  0  0  0  0  0  0  0  0  0  0
   -2.9802   -2.1306    0.8585 C   0  0  0  0  0  0  0  0  0  0  0  0
   -3.6782   -1.4235    1.3131 H   0  0  0  0  0  0  0  0  0  0  0  0
   -3.2789   -2.3154   -0.1760 H   0  0  0  0  0  0  0  0  0  0  0  0
   -1.5723   -1.5667    0.9001 C   0  0  0  0  0  0  0  0  0  0  0  0
   -0.6856   -2.1963    1.4528 O   0  0  0  0  0  0  0  0  0  0  0  0
   -1.3012   -0.3676    0.2735 N   0  0  0  0  0  0  0  0  0  0  0  0
   -2.0724    0.0953   -0.1979 H   0  0  0  0  0  0  0  0  0  0  0  0
   -0.0076    0.3413    0.3310 C   0  0  1  0  0  0  0  0  0  0  0  0
    0.6816   -0.2015    0.9869 H   0  0  0  0  0  0  0  0  0  0  0  0
    0.6417    0.3935   -1.0688 C   0  0  1  0  0  0  0  0  0  0  0  0
    1.5996    0.9182   -0.9783 H   0  0  0  0  0  0  0  0  0  0  0  0
    0.9138   -1.0061   -1.6218 C   0  0  0  0  0  0  0  0  0  0  0  0
   -0.0220   -1.5411   -1.8095 H   0  0  0  0  0  0  0  0  0  0  0  0
    1.4712   -0.9415   -2.5606 H   0  0  0  0  0  0  0  0  0  0  0  0
    1.5072   -1.5867   -0.9084 H   0  0  0  0  0  0  0  0  0  0  0  0
   -0.1841    1.0953   -2.0096 O   0  0  0  0  0  0  0  0  0  0  0  0
    0.2253    1.0713   -2.8934 H   0  0  0  0  0  0  0  0  0  0  0  0
   -0.1519    1.7474    0.9452 C   0  0  0  0  0  0  0  0  0  0  0  0
    0.1965    1.9575    2.0991 O   0  0  0  0  0  0  0  0  0  0  0  0
   -0.7136    2.7794    0.2162 N   0  0  0  0  0  0  0  0  0  0  0  0
   -0.8697    2.5854   -0.7732 H   0  0  0  0  0  0  0  0  0  0  0  0
   -0.8154    4.1500    0.7002 C   0  0  0  0  0  0  0  0  0  0  0  0
    0.1788    4.5557    0.9142 H   0  0  0  0  0  0  0  0  0  0  0  0
   -1.2934    4.7820   -0.0543 H   0  0  0  0  0  0  0  0  0  0  0  0
   -1.4168    4.1897    1.6143 H   0  0  0  0  0  0  0  0  0  0  0  0
  1  2  1  0  0  0  0
  2  3  1  0  0  0  0
  2  4  1  0  0  0  0
  2  5  1  0  0  0  0
  5  6  2  0  0  0  0
  5  7  1  0  0  0  0
  7  8  1  0  0  0  0
  7  9  1  0  0  0  0
  9 10  1  0  0  0  0
  9 11  1  0  0  0  0
  9 19  1  0  0  0  0
 11 12  1  0  0  0  0
 11 13  1  0  0  0  0
 11 17  1  0  0  0  0
 13 14  1  0  0  0  0
 13 15  1  0  0  0  0
 13 16  1  0  0  0  0
 17 18  1  0  0  0  0
 19 20  2  0  0  0  0
 19 21  1  0  0  0  0
 21 22  1  0  0  0  0
 21 23  1  0  0  0  0
 23 24  1  0  0  0  0
 23 25  1  0  0  0  0
 23 26  1  0  0  0  0
M  END
$$$$

  -OEChem-01062216093D

 26 25  0     1  0  0  0  0  0999 V2000
   -3.0124   -3.1284    1.3685 H   0  0  0  0  0  0  0  0  0  0  0  0
   -2.9688   -2.1799    0.8259 C   0  0  0  0  0  0  0  0  0  0  0  0
   -3.7051   -1.4958    1.2548 H   0  0  0  0  0  0  0  0  0  0  0  0
   -3.2162   -2.3623   -0.2225 H   0  0  0  0  0  0  0  0  0  0  0  0
   -1.5796   -1.5799    0.9346 C   0  0  0  0  0  0  0  0  0  0  0  0
   -0.7087   -2.1785    1.5434 O   0  0  0  0  0  0  0  0  0  0  0  0
   -1.3065   -0.3823    0.3064 N   0  0  0  0  0  0  0  0  0  0  0  0
   -2.0555    0.0422   -0.2319 H   0  0  0  0  0  0  0  0  0  0  0  0
   -0.0155    0.3319    0.3682 C   0  0  1  0  0  0  0  0  0  0  0  0
    0.6811   -0.2133    1.0143 H   0  0  0  0  0  0  0  0  0  0  0  0
    0.6134    0.4078   -1.0372 C   0  0  1  0  0  0  0  0  0  0  0  0
    1.5692    0.9373   -0.9534 H   0  0  0  0  0  0  0  0  0  0  0  0
    0.8851   -0.9806   -1.6180 C   0  0  0  0  0  0  0  0  0  0  0  0
   -0.0502   -1.5170   -1.8040 H   0  0  0  0  0  0  0  0  0  0  0  0
    1.4311   -0.8960   -2.5620 H   0  0  0  0  0  0  0  0  0  0  0  0
    1.4902   -1.5702   -0.9220 H   0  0  0  0  0  0  0  0  0  0  0  0
   -0.2370    1.1228   -1.9457 O   0  0  0  0  0  0  0  0  0  0  0  0
    0.1778    1.1636   -2.8263 H   0  0  0  0  0  0  0  0  0  0  0  0
   -0.1560    1.7403    0.9747 C   0  0  0  0  0  0  0  0  0  0  0  0
    0.4461    2.0381    1.9976 O   0  0  0  0  0  0  0  0  0  0  0  0
   -0.9772    2.6774    0.3737 N   0  0  0  0  0  0  0  0  0  0  0  0
   -1.2588    2.4538   -0.5798 H   0  0  0  0  0  0  0  0  0  0  0  0
   -1.0753    4.0586    0.8279 C   0  0  0  0  0  0  0  0  0  0  0  0
   -0.1077    4.5625    0.7348 H   0  0  0  0  0  0  0  0  0  0  0  0
   -1.8104    4.6019    0.2265 H   0  0  0  0  0  0  0  0  0  0  0  0
   -1.3932    4.0961    1.8752 H   0  0  0  0  0  0  0  0  0  0  0  0
  1  2  1  0  0  0  0
  2  3  1  0  0  0  0
  2  4  1  0  0  0  0
  2  5  1  0  0  0  0
  5  6  2  0  0  0  0
  5  7  1  0  0  0  0
  7  8  1  0  0  0  0
  7  9  1  0  0  0  0
  9 10  1  0  0  0  0
  9 11  1  0  0  0  0
  9 19  1  0  0  0  0
 11 12  1  0  0  0  0
 11 13  1  0  0  0  0
 11 17  1  0  0  0  0
 13 14  1  0  0  0  0
 13 15  1  0  0  0  0
 13 16  1  0  0  0  0
 17 18  1  0  0  0  0
 19 20  2  0  0  0  0
 19 21  1  0  0  0  0
 21 22  1  0  0  0  0
 21 23  1  0  0  0  0
 23 24  1  0  0  0  0
 23 25  1  0  0  0  0
 23 26  1  0  0  0  0
M  END
$$$$

  -OEChem-01062216093D

 26 25  0     1  0  0  0  0  0999 V2000
   -2.9732   -3.2085    1.3061 H   0  0  0  0  0  0  0  0  0  0  0  0
   -2.9362   -2.2595    0.7637 C   0  0  0  0  0  0  0  0  0  0  0  0
   -3.7403   -1.6154    1.1274 H   0  0  0  0  0  0  0  0  0  0  0  0
   -3.0871   -2.4566   -0.3003 H   0  0  0  0  0  0  0  0  0  0  0  0
   -1.5947   -1.5855    0.9823 C   0  0  0  0  0  0  0  0  0  0  0  0
   -0.7582   -2.1214    1.6892 O   0  0  0  0  0  0  0  0  0  0  0  0
   -1.3241   -0.3906    0.3477 N   0  0  0  0  0  0  0  0  0  0  0  0
   -2.0128   -0.0560   -0.3191 H   0  0  0  0  0  0  0  0  0  0  0  0
   -0.0336    0.3262    0.4094 C   0  0  1  0  0  0  0  0  0  0  0  0
    0.6695   -0.2221    1.0458 H   0  0  0  0  0  0  0  0  0  0  0  0
    0.5715    0.4129   -1.0030 C   0  0  1  0  0  0  0  0  0  0  0  0
    1.5259    0.9469   -0.9321 H   0  0  0  0  0  0  0  0  0  0  0  0
    0.8374   -0.9669   -1.6067 C   0  0  0  0  0  0  0  0  0  0  0  0
   -0.0986   -1.5056   -1.7815 H   0  0  0  0  0  0  0  0  0  0  0  0
    1.3642   -0.8668   -2.5602 H   0  0  0  0  0  0  0  0  0  0  0  0
    1.4590   -1.5624   -0.9306 H   0  0  0  0  0  0  0  0  0  0  0  0
   -0.3058    1.1358   -1.8780 O   0  0  0  0  0  0  0  0  0  0  0  0
    0.1141    1.2512   -2.7494 H   0  0  0  0  0  0  0  0  0  0  0  0
   -0.1498    1.7410    1.0056 C   0  0  0  0  0  0  0  0  0  0  0  0
    0.6830    2.1384    1.8101 O   0  0  0  0  0  0  0  0  0  0  0  0
   -1.1694    2.5893    0.6096 N   0  0  0  0  0  0  0  0  0  0  0  0
   -1.6639    2.3091   -0.2331 H   0  0  0  0  0  0  0  0  0  0  0  0
   -1.2484    3.9819    1.0318 C   0  0  0  0  0  0  0  0  0  0  0  0
   -0.3837    4.5434    0.6633 H   0  0  0  0  0  0  0  0  0  0  0  0
   -2.1582    4.4447    0.6381 H   0  0  0  0  0  0  0  0  0  0  0  0
   -1.2735    4.0505    2.1245 H   0  0  0  0  0  0  0  0  0  0  0  0
  1  2  1  0  0  0  0
  2  3  1  0  0  0  0
  2  4  1  0  0  0  0
  2  5  1  0  0  0  0
  5  6  2  0  0  0  0
  5  7  1  0  0  0  0
  7  8  1  0  0  0  0
  7  9  1  0  0  0  0
  9 10  1  0  0  0  0
  9 11  1  0  0  0  0
  9 19  1  0  0  0  0
 11 12  1  0  0  0  0
 11 13  1  0  0  0  0
 11 17  1  0  0  0  0
 13 14  1  0  0  0  0
 13 15  1  0  0  0  0
 13 16  1  0  0  0  0
 17 18  1  0  0  0  0
 19 20  2  0  0  0  0
 19 21  1  0  0  0  0
 21 22  1  0  0  0  0
 21 23  1  0  0  0  0
 23 24  1  0  0  0  0
 23 25  1  0  0  0  0
 23 26  1  0  0  0  0
M  END
$$$$

  -OEChem-01062216093D

 26 25  0     1  0  0  0  0  0999 V2000
   -2.9541   -3.2335    1.2852 H   0  0  0  0  0  0  0  0  0  0  0  0
   -2.9068   -2.3030    0.7122 C   0  0  0  0  0  0  0  0  0  0  0  0
   -3.7543   -1.6736    0.9943 H   0  0  0  0  0  0  0  0  0  0  0  0
   -2.9751   -2.5416   -0.3517 H   0  0  0  0  0  0  0  0  0  0  0  0
   -1.6053   -1.5784    1.0001 C   0  0  0  0  0  0  0  0  0  0  0  0
   -0.8019   -2.0664    1.7765 O   0  0  0  0  0  0  0  0  0  0  0  0
   -1.3379   -0.3839    0.3628 N   0  0  0  0  0  0  0  0  0  0  0  0
   -1.9630   -0.1256   -0.3954 H   0  0  0  0  0  0  0  0  0  0  0  0
   -0.0425    0.3253    0.4214 C   0  0  1  0  0  0  0  0  0  0  0  0
    0.6604   -0.2293    1.0521 H   0  0  0  0  0  0  0  0  0  0  0  0
    0.5528    0.4061   -0.9948 C   0  0  1  0  0  0  0  0  0  0  0  0
    1.5099    0.9367   -0.9330 H   0  0  0  0  0  0  0  0  0  0  0  0
    0.8088   -0.9741   -1.6021 C   0  0  0  0  0  0  0  0  0  0  0  0
   -0.1304   -1.5082   -1.7738 H   0  0  0  0  0  0  0  0  0  0  0  0
    1.3305   -0.8740   -2.5583 H   0  0  0  0  0  0  0  0  0  0  0  0
    1.4319   -1.5733   -0.9307 H   0  0  0  0  0  0  0  0  0  0  0  0
   -0.3315    1.1339   -1.8566 O   0  0  0  0  0  0  0  0  0  0  0  0
    0.0974    1.2993   -2.7151 H   0  0  0  0  0  0  0  0  0  0  0  0
   -0.1314    1.7418    1.0186 C   0  0  0  0  0  0  0  0  0  0  0  0
    0.8499    2.2343    1.5610 O   0  0  0  0  0  0  0  0  0  0  0  0
   -1.2815    2.5010    0.8872 N   0  0  0  0  0  0  0  0  0  0  0  0
   -2.0146    2.1144    0.3023 H   0  0  0  0  0  0  0  0  0  0  0  0
   -1.3810    3.8887    1.3208 C   0  0  0  0  0  0  0  0  0  0  0  0
   -0.6732    4.5144    0.7672 H   0  0  0  0  0  0  0  0  0  0  0  0
   -2.3920    4.2678    1.1440 H   0  0  0  0  0  0  0  0  0  0  0  0
   -1.1643    3.9724    2.3910 H   0  0  0  0  0  0  0  0  0  0  0  0
  1  2  1  0  0  0  0
  2  3  1  0  0  0  0
  2  4  1  0  0  0  0
  2  5  1  0  0  0  0
  5  6  2  0  0  0  0
  5  7  1  0  0  0  0
  7  8  1  0  0  0  0
  7  9  1  0  0  0  0
  9 10  1  0  0  0  0
  9 11  1  0  0  0  0
  9 19  1  0  0  0  0
 11 12  1  0  0  0  0
 11 13  1  0  0  0  0
 11 17  1  0  0  0  0
 13 14  1  0  0  0  0
 13 15  1  0  0  0  0
 13 16  1  0  0  0  0
 17 18  1  0  0  0  0
 19 20  2  0  0  0  0
 19 21  1  0  0  0  0
 21 22  1  0  0  0  0
 21 23  1  0  0  0  0
 23 24  1  0  0  0  0
 23 25  1  0  0  0  0
 23 26  1  0  0  0  0
M  END
$$$$

  -OEChem-01062216093D

 26 25  0     1  0  0  0  0  0999 V2000
   -2.9358   -3.2340    1.2630 H   0  0  0  0  0  0  0  0  0  0  0  0
   -2.8896   -2.3058    0.6861 C   0  0  0  0  0  0  0  0  0  0  0  0
   -3.7564   -1.6908    0.9398 H   0  0  0  0  0  0  0  0  0  0  0  0
   -2.9232   -2.5519   -0.3780 H   0  0  0  0  0  0  0  0  0  0  0  0
   -1.6099   -1.5561    1.0055 C   0  0  0  0  0  0  0  0  0  0  0  0
   -0.8279   -2.0151    1.8204 O   0  0  0  0  0  0  0  0  0  0  0  0
   -1.3388   -0.3675    0.3593 N   0  0  0  0  0  0  0  0  0  0  0  0
   -1.9381   -0.1348   -0.4287 H   0  0  0  0  0  0  0  0  0  0  0  0
   -0.0379    0.3323    0.4108 C   0  0  1  0  0  0  0  0  0  0  0  0
    0.6627   -0.2225    1.0433 H   0  0  0  0  0  0  0  0  0  0  0  0
    0.5511    0.3933   -1.0098 C   0  0  1  0  0  0  0  0  0  0  0  0
    1.5124    0.9172   -0.9595 H   0  0  0  0  0  0  0  0  0  0  0  0
    0.7944   -0.9944   -1.6056 C   0  0  0  0  0  0  0  0  0  0  0  0
   -0.1490   -1.5229   -1.7705 H   0  0  0  0  0  0  0  0  0  0  0  0
    1.3141   -0.9067   -2.5641 H   0  0  0  0  0  0  0  0  0  0  0  0
    1.4149   -1.5920   -0.9304 H   0  0  0  0  0  0  0  0  0  0  0  0
   -0.3328    1.1193   -1.8724 O   0  0  0  0  0  0  0  0  0  0  0  0
    0.1079    1.3134   -2.7185 H   0  0  0  0  0  0  0  0  0  0  0  0
   -0.1119    1.7537    0.9999 C   0  0  0  0  0  0  0  0  0  0  0  0
    0.9193    2.3437    1.2987 O   0  0  0  0  0  0  0  0  0  0  0  0
   -1.3256    2.4030    1.1446 N   0  0  0  0  0  0  0  0  0  0  0  0
   -2.1577    1.8821    0.8888 H   0  0  0  0  0  0  0  0  0  0  0  0
   -1.4609    3.7574    1.6644 C   0  0  0  0  0  0  0  0  0  0  0  0
   -0.9010    4.4640    1.0429 H   0  0  0  0  0  0  0  0  0  0  0  0
   -2.5130    4.0576    1.6661 H   0  0  0  0  0  0  0  0  0  0  0  0
   -1.0828    3.8131    2.6905 H   0  0  0  0  0  0  0  0  0  0  0  0
  1  2  1  0  0  0  0
  2  3  1  0  0  0  0
  2  4  1  0  0  0  0
  2  5  1  0  0  0  0
  5  6  2  0  0  0  0
  5  7  1  0  0  0  0
  7  8  1  0  0  0  0
  7  9  1  0  0  0  0
  9 10  1  0  0  0  0
  9 11  1  0  0  0  0
  9 19  1  0  0  0  0
 11 12  1  0  0  0  0
 11 13  1  0  0  0  0
 11 17  1  0  0  0  0
 13 14  1  0  0  0  0
 13 15  1  0  0  0  0
 13 16  1  0  0  0  0
 17 18  1  0  0  0  0
 19 20  2  0  0  0  0
 19 21  1  0  0  0  0
 21 22  1  0  0  0  0
 21 23  1  0  0  0  0
 23 24  1  0  0  0  0
 23 25  1  0  0  0  0
 23 26  1  0  0  0  0
M  END
$$$$

  -OEChem-01062216093D

 26 25  0     1  0  0  0  0  0999 V2000
   -2.9206   -3.2336    1.2279 H   0  0  0  0  0  0  0  0  0  0  0  0
   -2.8886   -2.2891    0.6772 C   0  0  0  0  0  0  0  0  0  0  0  0
   -3.7548   -1.6865    0.9605 H   0  0  0  0  0  0  0  0  0  0  0  0
   -2.9368   -2.5052   -0.3928 H   0  0  0  0  0  0  0  0  0  0  0  0
   -1.6090   -1.5404    0.9989 C   0  0  0  0  0  0  0  0  0  0  0  0
   -0.8346   -1.9909    1.8256 O   0  0  0  0  0  0  0  0  0  0  0  0
   -1.3326   -0.3555    0.3489 N   0  0  0  0  0  0  0  0  0  0  0  0
   -1.9338   -0.1164   -0.4365 H   0  0  0  0  0  0  0  0  0  0  0  0
   -0.0303    0.3424    0.3979 C   0  0  1  0  0  0  0  0  0  0  0  0
    0.6686   -0.2077    1.0361 H   0  0  0  0  0  0  0  0  0  0  0  0
    0.5572    0.3846   -1.0253 C   0  0  1  0  0  0  0  0  0  0  0  0
    1.5209    0.9052   -0.9856 H   0  0  0  0  0  0  0  0  0  0  0  0
    0.7953   -1.0106   -1.6056 C   0  0  0  0  0  0  0  0  0  0  0  0
   -0.1500   -1.5389   -1.7601 H   0  0  0  0  0  0  0  0  0  0  0  0
    1.3109   -0.9348   -2.5674 H   0  0  0  0  0  0  0  0  0  0  0  0
    1.4180   -1.6015   -0.9264 H   0  0  0  0  0  0  0  0  0  0  0  0
   -0.3275    1.1028   -1.8932 O   0  0  0  0  0  0  0  0  0  0  0  0
    0.1178    1.3039   -2.7351 H   0  0  0  0  0  0  0  0  0  0  0  0
   -0.1079    1.7670    0.9816 C   0  0  0  0  0  0  0  0  0  0  0  0
    0.9042    2.4514    1.0768 O   0  0  0  0  0  0  0  0  0  0  0  0
   -1.3165    2.2915    1.4056 N   0  0  0  0  0  0  0  0  0  0  0  0
   -2.1165    1.6674    1.3804 H   0  0  0  0  0  0  0  0  0  0  0  0
   -1.4560    3.6063    2.0182 C   0  0  0  0  0  0  0  0  0  0  0  0
   -1.0879    4.3852    1.3421 H   0  0  0  0  0  0  0  0  0  0  0  0
   -2.5082    3.8107    2.2386 H   0  0  0  0  0  0  0  0  0  0  0  0
   -0.8892    3.6543    2.9538 H   0  0  0  0  0  0  0  0  0  0  0  0
  1  2  1  0  0  0  0
  2  3  1  0  0  0  0
  2  4  1  0  0  0  0
  2  5  1  0  0  0  0
  5  6  2  0  0  0  0
  5  7  1  0  0  0  0
  7  8  1  0  0  0  0
  7  9  1  0  0  0  0
  9 10  1  0  0  0  0
  9 11  1  0  0  0  0
  9 19  1  0  0  0  0
 11 12  1  0  0  0  0
 11 13  1  0  0  0  0
 11 17  1  0  0  0  0
 13 14  1  0  0  0  0
 13 15  1  0  0  0  0
 13 16  1  0  0  0  0
 17 18  1  0  0  0  0
 19 20  2  0  0  0  0
 19 21  1  0  0  0  0
 21 22  1  0  0  0  0
 21 23  1  0  0  0  0
 23 24  1  0  0  0  0
 23 25  1  0  0  0  0
 23 26  1  0  0  0  0
M  END
$$$$

  -OEChem-01062216093D

 26 25  0     1  0  0  0  0  0999 V2000
   -2.9446   -3.1938    1.2619 H   0  0  0  0  0  0  0  0  0  0  0  0
   -2.8862   -2.2761    0.6696 C   0  0  0  0  0  0  0  0  0  0  0  0
   -3.7536   -1.6530    0.9000 H   0  0  0  0  0  0  0  0  0  0  0  0
   -2.9060   -2.5402   -0.3905 H   0  0  0  0  0  0  0  0  0  0  0  0
   -1.6080   -1.5259    0.9932 C   0  0  0  0  0  0  0  0  0  0  0  0
   -0.8407   -1.9666    1.8318 O   0  0  0  0  0  0  0  0  0  0  0  0
   -1.3296   -0.3413    0.3441 N   0  0  0  0  0  0  0  0  0  0  0  0
   -1.9367   -0.0929   -0.4341 H   0  0  0  0  0  0  0  0  0  0  0  0
   -0.0252    0.3525    0.3883 C   0  0  1  0  0  0  0  0  0  0  0  0
    0.6734   -0.1967    1.0271 H   0  0  0  0  0  0  0  0  0  0  0  0
    0.5589    0.3814   -1.0384 C   0  0  1  0  0  0  0  0  0  0  0  0
    1.5253    0.8971   -1.0062 H   0  0  0  0  0  0  0  0  0  0  0  0
    0.7896   -1.0187   -1.6102 C   0  0  0  0  0  0  0  0  0  0  0  0
   -0.1588   -1.5404   -1.7679 H   0  0  0  0  0  0  0  0  0  0  0  0
    1.3115   -0.9516   -2.5692 H   0  0  0  0  0  0  0  0  0  0  0  0
    1.4034   -1.6115   -0.9249 H   0  0  0  0  0  0  0  0  0  0  0  0
   -0.3259    1.0962   -1.9091 O   0  0  0  0  0  0  0  0  0  0  0  0
    0.1260    1.3136   -2.7432 H   0  0  0  0  0  0  0  0  0  0  0  0
   -0.1073    1.7761    0.9764 C   0  0  0  0  0  0  0  0  0  0  0  0
    0.8368    2.5519    0.8807 O   0  0  0  0  0  0  0  0  0  0  0  0
   -1.2320    2.1735    1.6777 N   0  0  0  0  0  0  0  0  0  0  0  0
   -1.9476    1.4677    1.8229 H   0  0  0  0  0  0  0  0  0  0  0  0
   -1.3512    3.4589    2.3534 C   0  0  0  0  0  0  0  0  0  0  0  0
   -1.2197    4.2796    1.6404 H   0  0  0  0  0  0  0  0  0  0  0  0
   -2.3405    3.5550    2.8112 H   0  0  0  0  0  0  0  0  0  0  0  0
   -0.5946    3.5498    3.1398 H   0  0  0  0  0  0  0  0  0  0  0  0
  1  2  1  0  0  0  0
  2  3  1  0  0  0  0
  2  4  1  0  0  0  0
  2  5  1  0  0  0  0
  5  6  2  0  0  0  0
  5  7  1  0  0  0  0
  7  8  1  0  0  0  0
  7  9  1  0  0  0  0
  9 10  1  0  0  0  0
  9 11  1  0  0  0  0
  9 19  1  0  0  0  0
 11 12  1  0  0  0  0
 11 13  1  0  0  0  0
 11 17  1  0  0  0  0
 13 14  1  0  0  0  0
 13 15  1  0  0  0  0
 13 16  1  0  0  0  0
 17 18  1  0  0  0  0
 19 20  2  0  0  0  0
 19 21  1  0  0  0  0
 21 22  1  0  0  0  0
 21 23  1  0  0  0  0
 23 24  1  0  0  0  0
 23 25  1  0  0  0  0
 23 26  1  0  0  0  0
M  END
$$$$

  -OEChem-01062216093D

 26 25  0     1  0  0  0  0  0999 V2000
   -2.9242   -3.1978    1.2225 H   0  0  0  0  0  0  0  0  0  0  0  0
   -2.8879   -2.2578    0.6643 C   0  0  0  0  0  0  0  0  0  0  0  0
   -3.7568   -1.6532    0.9351 H   0  0  0  0  0  0  0  0  0  0  0  0
   -2.9268   -2.4824   -0.4043 H   0  0  0  0  0  0  0  0  0  0  0  0
   -1.6108   -1.5069    0.9898 C   0  0  0  0  0  0  0  0  0  0  0  0
   -0.8488   -1.9408    1.8371 O   0  0  0  0  0  0  0  0  0  0  0  0
   -1.3287   -0.3232    0.3417 N   0  0  0  0  0  0  0  0  0  0  0  0
   -1.9406   -0.0658   -0.4301 H   0  0  0  0  0  0  0  0  0  0  0  0
   -0.0215    0.3637    0.3809 C   0  0  1  0  0  0  0  0  0  0  0  0
    0.6757   -0.1857    1.0209 H   0  0  0  0  0  0  0  0  0  0  0  0
    0.5614    0.3758   -1.0472 C   0  0  1  0  0  0  0  0  0  0  0  0
    1.5308    0.8864   -1.0194 H   0  0  0  0  0  0  0  0  0  0  0  0
    0.7855   -1.0308   -1.6054 C   0  0  0  0  0  0  0  0  0  0  0  0
   -0.1655   -1.5503   -1.7543 H   0  0  0  0  0  0  0  0  0  0  0  0
    1.3036   -0.9758   -2.5672 H   0  0  0  0  0  0  0  0  0  0  0  0
    1.3996   -1.6184   -0.9160 H   0  0  0  0  0  0  0  0  0  0  0  0
   -0.3195    1.0865   -1.9255 O   0  0  0  0  0  0  0  0  0  0  0  0
    0.1457    1.3283   -2.7453 H   0  0  0  0  0  0  0  0  0  0  0  0
   -0.1083    1.7856    0.9737 C   0  0  0  0  0  0  0  0  0  0  0  0
    0.7163    2.6496    0.6974 O   0  0  0  0  0  0  0  0  0  0  0  0
   -1.0744    2.0650    1.9240 N   0  0  0  0  0  0  0  0  0  0  0  0
   -1.6623    1.2882    2.2134 H   0  0  0  0  0  0  0  0  0  0  0  0
   -1.1625    3.3305    2.6408 C   0  0  0  0  0  0  0  0  0  0  0  0
   -1.2904    4.1605    1.9381 H   0  0  0  0  0  0  0  0  0  0  0  0
   -2.0193    3.3197    3.3213 H   0  0  0  0  0  0  0  0  0  0  0  0
   -0.2543    3.5015    3.2281 H   0  0  0  0  0  0  0  0  0  0  0  0
  1  2  1  0  0  0  0
  2  3  1  0  0  0  0
  2  4  1  0  0  0  0
  2  5  1  0  0  0  0
  5  6  2  0  0  0  0
  5  7  1  0  0  0  0
  7  8  1  0  0  0  0
  7  9  1  0  0  0  0
  9 10  1  0  0  0  0
  9 11  1  0  0  0  0
  9 19  1  0  0  0  0
 11 12  1  0  0  0  0
 11 13  1  0  0  0  0
 11 17  1  0  0  0  0
 13 14  1  0  0  0  0
 13 15  1  0  0  0  0
 13 16  1  0  0  0  0
 17 18  1  0  0  0  0
 19 20  2  0  0  0  0
 19 21  1  0  0  0  0
 21 22  1  0  0  0  0
 21 23  1  0  0  0  0
 23 24  1  0  0  0  0
 23 25  1  0  0  0  0
 23 26  1  0  0  0  0
M  END
$$$$

  -OEChem-01062216093D

 26 25  0     1  0  0  0  0  0999 V2000
   -2.9453   -3.1642    1.2508 H   0  0  0  0  0  0  0  0  0  0  0  0
   -2.8914   -2.2407    0.6673 C   0  0  0  0  0  0  0  0  0  0  0  0
   -3.7562   -1.6189    0.9111 H   0  0  0  0  0  0  0  0  0  0  0  0
   -2.9213   -2.4941   -0.3952 H   0  0  0  0  0  0  0  0  0  0  0  0
   -1.6098   -1.4947    0.9865 C   0  0  0  0  0  0  0  0  0  0  0  0
   -0.8475   -1.9254    1.8356 O   0  0  0  0  0  0  0  0  0  0  0  0
   -1.3285   -0.3100    0.3407 N   0  0  0  0  0  0  0  0  0  0  0  0
   -1.9484   -0.0448   -0.4220 H   0  0  0  0  0  0  0  0  0  0  0  0
   -0.0213    0.3751    0.3727 C   0  0  1  0  0  0  0  0  0  0  0  0
    0.6783   -0.1733    1.0111 H   0  0  0  0  0  0  0  0  0  0  0  0
    0.5582    0.3736   -1.0578 C   0  0  1  0  0  0  0  0  0  0  0  0
    1.5257    0.8874   -1.0341 H   0  0  0  0  0  0  0  0  0  0  0  0
    0.7870   -1.0374   -1.6032 C   0  0  0  0  0  0  0  0  0  0  0  0
   -0.1621   -1.5623   -1.7457 H   0  0  0  0  0  0  0  0  0  0  0  0
    1.3034   -0.9890   -2.5663 H   0  0  0  0  0  0  0  0  0  0  0  0
    1.4048   -1.6161   -0.9095 H   0  0  0  0  0  0  0  0  0  0  0  0
   -0.3214    1.0762   -1.9436 O   0  0  0  0  0  0  0  0  0  0  0  0
    0.1557    1.3503   -2.7460 H   0  0  0  0  0  0  0  0  0  0  0  0
   -0.1142    1.7941    0.9721 C   0  0  0  0  0  0  0  0  0  0  0  0
    0.5439    2.7340    0.5400 O   0  0  0  0  0  0  0  0  0  0  0  0
   -0.8510    1.9748    2.1290 N   0  0  0  0  0  0  0  0  0  0  0  0
   -1.2928    1.1467    2.5211 H   0  0  0  0  0  0  0  0  0  0  0  0
   -0.8972    3.2263    2.8742 C   0  0  0  0  0  0  0  0  0  0  0  0
   -1.2669    4.0378    2.2385 H   0  0  0  0  0  0  0  0  0  0  0  0
   -1.5673    3.1293    3.7336 H   0  0  0  0  0  0  0  0  0  0  0  0
    0.1002    3.4912    3.2404 H   0  0  0  0  0  0  0  0  0  0  0  0
  1  2  1  0  0  0  0
  2  3  1  0  0  0  0
  2  4  1  0  0  0  0
  2  5  1  0  0  0  0
  5  6  2  0  0  0  0
  5  7  1  0  0  0  0
  7  8  1  0  0  0  0
  7  9  1  0  0  0  0
  9 10  1  0  0  0  0
  9 11  1  0  0  0  0
  9 19  1  0  0  0  0
 11 12  1  0  0  0  0
 11 13  1  0  0  0  0
 11 17  1  0  0  0  0
 13 14  1  0  0  0  0
 13 15  1  0  0  0  0
 13 16  1  0  0  0  0
 17 18  1  0  0  0  0
 19 20  2  0  0  0  0
 19 21  1  0  0  0  0
 21 22  1  0  0  0  0
 21 23  1  0  0  0  0
 23 24  1  0  0  0  0
 23 25  1  0  0  0  0
 23 26  1  0  0  0  0
M  END
$$$$

  -OEChem-01062216093D

 26 25  0     1  0  0  0  0  0999 V2000
   -2.9352   -3.1629    1.2323 H   0  0  0  0  0  0  0  0  0  0  0  0
   -2.8941   -2.2246    0.6719 C   0  0  0  0  0  0  0  0  0  0  0  0
   -3.7564   -1.6119    0.9459 H   0  0  0  0  0  0  0  0  0  0  0  0
   -2.9411   -2.4510   -0.3960 H   0  0  0  0  0  0  0  0  0  0  0  0
   -1.6096   -1.4822    0.9881 C   0  0  0  0  0  0  0  0  0  0  0  0
   -0.8449   -1.9158    1.8343 O   0  0  0  0  0  0  0  0  0  0  0  0
   -1.3273   -0.2966    0.3452 N   0  0  0  0  0  0  0  0  0  0  0  0
   -1.9499   -0.0254   -0.4132 H   0  0  0  0  0  0  0  0  0  0  0  0
   -0.0173    0.3796    0.3723 C   0  0  1  0  0  0  0  0  0  0  0  0
    0.6828   -0.1737    1.0057 H   0  0  0  0  0  0  0  0  0  0  0  0
    0.5584    0.3684   -1.0603 C   0  0  1  0  0  0  0  0  0  0  0  0
    1.5273    0.8800   -1.0362 H   0  0  0  0  0  0  0  0  0  0  0  0
    0.7812   -1.0453   -1.6008 C   0  0  0  0  0  0  0  0  0  0  0  0
   -0.1707   -1.5661   -1.7391 H   0  0  0  0  0  0  0  0  0  0  0  0
    1.2951   -1.0023   -2.5656 H   0  0  0  0  0  0  0  0  0  0  0  0
    1.3983   -1.6242   -0.9066 H   0  0  0  0  0  0  0  0  0  0  0  0
   -0.3147    1.0707   -1.9527 O   0  0  0  0  0  0  0  0  0  0  0  0
    0.1765    1.3811   -2.7329 H   0  0  0  0  0  0  0  0  0  0  0  0
   -0.1048    1.7950    0.9798 C   0  0  0  0  0  0  0  0  0  0  0  0
    0.3482    2.7897    0.4247 O   0  0  0  0  0  0  0  0  0  0  0  0
   -0.5571    1.9117    2.2818 N   0  0  0  0  0  0  0  0  0  0  0  0
   -0.8639    1.0560    2.7395 H   0  0  0  0  0  0  0  0  0  0  0  0
   -0.5860    3.1660    3.0231 C   0  0  0  0  0  0  0  0  0  0  0  0
   -1.2144    3.9003    2.5083 H   0  0  0  0  0  0  0  0  0  0  0  0
   -0.9950    3.0029    4.0248 H   0  0  0  0  0  0  0  0  0  0  0  0
    0.4248    3.5747    3.1242 H   0  0  0  0  0  0  0  0  0  0  0  0
  1  2  1  0  0  0  0
  2  3  1  0  0  0  0
  2  4  1  0  0  0  0
  2  5  1  0  0  0  0
  5  6  2  0  0  0  0
  5  7  1  0  0  0  0
  7  8  1  0  0  0  0
  7  9  1  0  0  0  0
  9 10  1  0  0  0  0
  9 11  1  0  0  0  0
  9 19  1  0  0  0  0
 11 12  1  0  0  0  0
 11 13  1  0  0  0  0
 11 17  1  0  0  0  0
 13 14  1  0  0  0  0
 13 15  1  0  0  0  0
 13 16  1  0  0  0  0
 17 18  1  0  0  0  0
 19 20  2  0  0  0  0
 19 21  1  0  0  0  0
 21 22  1  0  0  0  0
 21 23  1  0  0  0  0
 23 24  1  0  0  0  0
 23 25  1  0  0  0  0
 23 26  1  0  0  0  0
M  END
$$$$

  -OEChem-01062216093D

 26 25  0     1  0  0  0  0  0999 V2000
   -2.9388   -3.1555    1.2308 H   0  0  0  0  0  0  0  0  0  0  0  0
   -2.9025   -2.2108    0.6809 C   0  0  0  0  0  0  0  0  0  0  0  0
   -3.7558   -1.5965    0.9785 H   0  0  0  0  0  0  0  0  0  0  0  0
   -2.9710   -2.4240   -0.3887 H   0  0  0  0  0  0  0  0  0  0  0  0
   -1.6083   -1.4795    0.9827 C   0  0  0  0  0  0  0  0  0  0  0  0
   -0.8294   -1.9287    1.8084 O   0  0  0  0  0  0  0  0  0  0  0  0
   -1.3288   -0.2895    0.3463 N   0  0  0  0  0  0  0  0  0  0  0  0
   -1.9626   -0.0028   -0.3971 H   0  0  0  0  0  0  0  0  0  0  0  0
   -0.0181    0.3832    0.3691 C   0  0  1  0  0  0  0  0  0  0  0  0
    0.6830   -0.1762    0.9959 H   0  0  0  0  0  0  0  0  0  0  0  0
    0.5579    0.3652   -1.0640 C   0  0  1  0  0  0  0  0  0  0  0  0
    1.5257    0.8787   -1.0378 H   0  0  0  0  0  0  0  0  0  0  0  0
    0.7837   -1.0511   -1.5956 C   0  0  0  0  0  0  0  0  0  0  0  0
   -0.1673   -1.5744   -1.7309 H   0  0  0  0  0  0  0  0  0  0  0  0
    1.2976   -1.0125   -2.5604 H   0  0  0  0  0  0  0  0  0  0  0  0
    1.4014   -1.6249   -0.8979 H   0  0  0  0  0  0  0  0  0  0  0  0
   -0.3072    1.0628   -1.9671 O   0  0  0  0  0  0  0  0  0  0  0  0
    0.1978    1.4140   -2.7204 H   0  0  0  0  0  0  0  0  0  0  0  0
   -0.0937    1.7949    0.9870 C   0  0  0  0  0  0  0  0  0  0  0  0
    0.1035    2.8228    0.3494 O   0  0  0  0  0  0  0  0  0  0  0  0
   -0.2233    1.8863    2.3611 N   0  0  0  0  0  0  0  0  0  0  0  0
   -0.3831    1.0175    2.8666 H   0  0  0  0  0  0  0  0  0  0  0  0
   -0.2412    3.1471    3.0918 C   0  0  0  0  0  0  0  0  0  0  0  0
   -1.0817    3.7674    2.7636 H   0  0  0  0  0  0  0  0  0  0  0  0
   -0.3467    2.9600    4.1647 H   0  0  0  0  0  0  0  0  0  0  0  0
    0.6904    3.6988    2.9277 H   0  0  0  0  0  0  0  0  0  0  0  0
  1  2  1  0  0  0  0
  2  3  1  0  0  0  0
  2  4  1  0  0  0  0
  2  5  1  0  0  0  0
  5  6  2  0  0  0  0
  5  7  1  0  0  0  0
  7  8  1  0  0  0  0
  7  9  1  0  0  0  0
  9 10  1  0  0  0  0
  9 11  1  0  0  0  0
  9 19  1  0  0  0  0
 11 12  1  0  0  0  0
 11 13  1  0  0  0  0
 11 17  1  0  0  0  0
 13 14  1  0  0  0  0
 13 15  1  0  0  0  0
 13 16  1  0  0  0  0
 17 18  1  0  0  0  0
 19 20  2  0  0  0  0
 19 21  1  0  0  0  0
 21 22  1  0  0  0  0
 21 23  1  0  0  0  0
 23 24  1  0  0  0  0
 23 25  1  0  0  0  0
 23 26  1  0  0  0  0
M  END
$$$$

  -OEChem-01062216093D

 26 25  0     1  0  0  0  0  0999 V2000
   -2.9685   -3.1188    1.2504 H   0  0  0  0  0  0  0  0  0  0  0  0
   -2.9260   -2.1682    0.7114 C   0  0  0  0  0  0  0  0  0  0  0  0
   -3.7463   -1.5321    1.0525 H   0  0  0  0  0  0  0  0  0  0  0  0
   -3.0455   -2.3640   -0.3569 H   0  0  0  0  0  0  0  0  0  0  0  0
   -1.5980   -1.4813    0.9669 C   0  0  0  0  0  0  0  0  0  0  0  0
   -0.7890   -1.9789    1.7344 O   0  0  0  0  0  0  0  0  0  0  0  0
   -1.3164   -0.2847    0.3442 N   0  0  0  0  0  0  0  0  0  0  0  0
   -1.9828    0.0500   -0.3489 H   0  0  0  0  0  0  0  0  0  0  0  0
   -0.0050    0.3845    0.3593 C   0  0  1  0  0  0  0  0  0  0  0  0
    0.6950   -0.1851    0.9781 H   0  0  0  0  0  0  0  0  0  0  0  0
    0.5775    0.3702   -1.0718 C   0  0  1  0  0  0  0  0  0  0  0  0
    1.5458    0.8819   -1.0381 H   0  0  0  0  0  0  0  0  0  0  0  0
    0.8035   -1.0470   -1.6015 C   0  0  0  0  0  0  0  0  0  0  0  0
   -0.1482   -1.5674   -1.7432 H   0  0  0  0  0  0  0  0  0  0  0  0
    1.3244   -1.0111   -2.5627 H   0  0  0  0  0  0  0  0  0  0  0  0
    1.4142   -1.6231   -0.8995 H   0  0  0  0  0  0  0  0  0  0  0  0
   -0.2735    1.0673   -1.9872 O   0  0  0  0  0  0  0  0  0  0  0  0
    0.2152    1.3181   -2.7892 H   0  0  0  0  0  0  0  0  0  0  0  0
   -0.0691    1.7897    0.9948 C   0  0  0  0  0  0  0  0  0  0  0  0
   -0.2294    2.8167    0.3472 O   0  0  0  0  0  0  0  0  0  0  0  0
    0.1373    1.8967    2.3591 N   0  0  0  0  0  0  0  0  0  0  0  0
    0.1914    1.0278    2.8858 H   0  0  0  0  0  0  0  0  0  0  0  0
    0.0817    3.1588    3.0864 C   0  0  0  0  0  0  0  0  0  0  0  0
   -0.9111    3.6110    2.9937 H   0  0  0  0  0  0  0  0  0  0  0  0
    0.2891    2.9926    4.1478 H   0  0  0  0  0  0  0  0  0  0  0  0
    0.8267    3.8599    2.6960 H   0  0  0  0  0  0  0  0  0  0  0  0
  1  2  1  0  0  0  0
  2  3  1  0  0  0  0
  2  4  1  0  0  0  0
  2  5  1  0  0  0  0
  5  6  2  0  0  0  0
  5  7  1  0  0  0  0
  7  8  1  0  0  0  0
  7  9  1  0  0  0  0
  9 10  1  0  0  0  0
  9 11  1  0  0  0  0
  9 19  1  0  0  0  0
 11 12  1  0  0  0  0
 11 13  1  0  0  0  0
 11 17  1  0  0  0  0
 13 14  1  0  0  0  0
 13 15  1  0  0  0  0
 13 16  1  0  0  0  0
 17 18  1  0  0  0  0
 19 20  2  0  0  0  0
 19 21  1  0  0  0  0
 21 22  1  0  0  0  0
 21 23  1  0  0  0  0
 23 24  1  0  0  0  0
 23 25  1  0  0  0  0
 23 26  1  0  0  0  0
M  END
$$$$

  -OEChem-01062216093D

 26 25  0     1  0  0  0  0  0999 V2000
   -3.0163   -3.0582    1.3145 H   0  0  0  0  0  0  0  0  0  0  0  0
   -2.9588   -2.1115    0.7702 C   0  0  0  0  0  0  0  0  0  0  0  0
   -3.7289   -1.4373    1.1532 H   0  0  0  0  0  0  0  0  0  0  0  0
   -3.1453   -2.3026   -0.2894 H   0  0  0  0  0  0  0  0  0  0  0  0
   -1.5880   -1.4872    0.9505 C   0  0  0  0  0  0  0  0  0  0  0  0
   -0.7508   -2.0413    1.6459 O   0  0  0  0  0  0  0  0  0  0  0  0
   -1.2942   -0.2917    0.3312 N   0  0  0  0  0  0  0  0  0  0  0  0
   -2.0027    0.1154   -0.2759 H   0  0  0  0  0  0  0  0  0  0  0  0
    0.0204    0.3703    0.3396 C   0  0  1  0  0  0  0  0  0  0  0  0
    0.7136   -0.2069    0.9584 H   0  0  0  0  0  0  0  0  0  0  0  0
    0.6188    0.3742   -1.0844 C   0  0  1  0  0  0  0  0  0  0  0  0
    1.5907    0.8772   -1.0351 H   0  0  0  0  0  0  0  0  0  0  0  0
    0.8361   -1.0400   -1.6249 C   0  0  0  0  0  0  0  0  0  0  0  0
   -0.1198   -1.5502   -1.7761 H   0  0  0  0  0  0  0  0  0  0  0  0
    1.3633   -1.0010   -2.5825 H   0  0  0  0  0  0  0  0  0  0  0  0
    1.4368   -1.6278   -0.9240 H   0  0  0  0  0  0  0  0  0  0  0  0
   -0.2147    1.0840   -2.0044 O   0  0  0  0  0  0  0  0  0  0  0  0
    0.2507    1.2435   -2.8424 H   0  0  0  0  0  0  0  0  0  0  0  0
   -0.0397    1.7737    0.9777 C   0  0  0  0  0  0  0  0  0  0  0  0
   -0.5873    2.7232    0.4313 O   0  0  0  0  0  0  0  0  0  0  0  0
    0.4715    1.9503    2.2523 N   0  0  0  0  0  0  0  0  0  0  0  0
    0.7902    1.1179    2.7416 H   0  0  0  0  0  0  0  0  0  0  0  0
    0.3610    3.2001    2.9948 C   0  0  0  0  0  0  0  0  0  0  0  0
   -0.6907    3.4536    3.1642 H   0  0  0  0  0  0  0  0  0  0  0  0
    0.8564    3.1075    3.9660 H   0  0  0  0  0  0  0  0  0  0  0  0
    0.8365    4.0174    2.4425 H   0  0  0  0  0  0  0  0  0  0  0  0
  1  2  1  0  0  0  0
  2  3  1  0  0  0  0
  2  4  1  0  0  0  0
  2  5  1  0  0  0  0
  5  6  2  0  0  0  0
  5  7  1  0  0  0  0
  7  8  1  0  0  0  0
  7  9  1  0  0  0  0
  9 10  1  0  0  0  0
  9 11  1  0  0  0  0
  9 19  1  0  0  0  0
 11 12  1  0  0  0  0
 11 13  1  0  0  0  0
 11 17  1  0  0  0  0
 13 14  1  0  0  0  0
 13 15  1  0  0  0  0
 13 16  1  0  0  0  0
 17 18  1  0  0  0  0
 19 20  2  0  0  0  0
 19 21  1  0  0  0  0
 21 22  1  0  0  0  0
 21 23  1  0  0  0  0
 23 24  1  0  0  0  0
 23 25  1  0  0  0  0
 23 26  1  0  0  0  0
M  END
$$$$

  -OEChem-01062216093D

 26 25  0     1  0  0  0  0  0999 V2000
   -3.0545   -3.0040    1.3801 H   0  0  0  0  0  0  0  0  0  0  0  0
   -2.9839   -2.0617    0.8298 C   0  0  0  0  0  0  0  0  0  0  0  0
   -3.7005   -1.3530    1.2520 H   0  0  0  0  0  0  0  0  0  0  0  0
   -3.2365   -2.2450   -0.2173 H   0  0  0  0  0  0  0  0  0  0  0  0
   -1.5785   -1.4998    0.9318 C   0  0  0  0  0  0  0  0  0  0  0  0
   -0.7234   -2.1039    1.5609 O   0  0  0  0  0  0  0  0  0  0  0  0
   -1.2718   -0.3108    0.3072 N   0  0  0  0  0  0  0  0  0  0  0  0
   -2.0132    0.1668   -0.2014 H   0  0  0  0  0  0  0  0  0  0  0  0
    0.0447    0.3475    0.3212 C   0  0  1  0  0  0  0  0  0  0  0  0
    0.7296   -0.2302    0.9486 H   0  0  0  0  0  0  0  0  0  0  0  0
    0.6586    0.3742   -1.0944 C   0  0  1  0  0  0  0  0  0  0  0  0
    1.6340    0.8690   -1.0302 H   0  0  0  0  0  0  0  0  0  0  0  0
    0.8680   -1.0338   -1.6537 C   0  0  0  0  0  0  0  0  0  0  0  0
   -0.0914   -1.5349   -1.8139 H   0  0  0  0  0  0  0  0  0  0  0  0
    1.3986   -0.9868   -2.6091 H   0  0  0  0  0  0  0  0  0  0  0  0
    1.4616   -1.6356   -0.9587 H   0  0  0  0  0  0  0  0  0  0  0  0
   -0.1660    1.1015   -2.0081 O   0  0  0  0  0  0  0  0  0  0  0  0
    0.2724    1.2000   -2.8698 H   0  0  0  0  0  0  0  0  0  0  0  0
   -0.0277    1.7541    0.9481 C   0  0  0  0  0  0  0  0  0  0  0  0
   -0.8448    2.5841    0.5663 O   0  0  0  0  0  0  0  0  0  0  0  0
    0.7280    2.0393    2.0731 N   0  0  0  0  0  0  0  0  0  0  0  0
    1.2809    1.2830    2.4670 H   0  0  0  0  0  0  0  0  0  0  0  0
    0.6012    3.2804    2.8278 C   0  0  0  0  0  0  0  0  0  0  0  0
   -0.4072    3.3745    3.2443 H   0  0  0  0  0  0  0  0  0  0  0  0
    1.3200    3.2966    3.6527 H   0  0  0  0  0  0  0  0  0  0  0  0
    0.7983    4.1430    2.1825 H   0  0  0  0  0  0  0  0  0  0  0  0
  1  2  1  0  0  0  0
  2  3  1  0  0  0  0
  2  4  1  0  0  0  0
  2  5  1  0  0  0  0
  5  6  2  0  0  0  0
  5  7  1  0  0  0  0
  7  8  1  0  0  0  0
  7  9  1  0  0  0  0
  9 10  1  0  0  0  0
  9 11  1  0  0  0  0
  9 19  1  0  0  0  0
 11 12  1  0  0  0  0
 11 13  1  0  0  0  0
 11 17  1  0  0  0  0
 13 14  1  0  0  0  0
 13 15  1  0  0  0  0
 13 16  1  0  0  0  0
 17 18  1  0  0  0  0
 19 20  2  0  0  0  0
 19 21  1  0  0  0  0
 21 22  1  0  0  0  0
 21 23  1  0  0  0  0
 23 24  1  0  0  0  0
 23 25  1  0  0  0  0
 23 26  1  0  0  0  0
M  END
$$$$

  -OEChem-01062216093D

 26 25  0     1  0  0  0  0  0999 V2000
   -3.0745   -2.9691    1.4362 H   0  0  0  0  0  0  0  0  0  0  0  0
   -3.0000   -2.0305    0.8799 C   0  0  0  0  0  0  0  0  0  0  0  0
   -3.6684   -1.2963    1.3365 H   0  0  0  0  0  0  0  0  0  0  0  0
   -3.3128   -2.2060   -0.1522 H   0  0  0  0  0  0  0  0  0  0  0  0
   -1.5727   -1.5177    0.9075 C   0  0  0  0  0  0  0  0  0  0  0  0
   -0.7058   -2.1552    1.4856 O   0  0  0  0  0  0  0  0  0  0  0  0
   -1.2615   -0.3335    0.2761 N   0  0  0  0  0  0  0  0  0  0  0  0
   -2.0238    0.1965   -0.1420 H   0  0  0  0  0  0  0  0  0  0  0  0
    0.0536    0.3281    0.3060 C   0  0  1  0  0  0  0  0  0  0  0  0
    0.7321   -0.2437    0.9456 H   0  0  0  0  0  0  0  0  0  0  0  0
    0.6833    0.3733   -1.1007 C   0  0  1  0  0  0  0  0  0  0  0  0
    1.6577    0.8682   -1.0228 H   0  0  0  0  0  0  0  0  0  0  0  0
    0.8989   -1.0278   -1.6750 C   0  0  0  0  0  0  0  0  0  0  0  0
   -0.0586   -1.5279   -1.8497 H   0  0  0  0  0  0  0  0  0  0  0  0
    1.4381   -0.9690   -2.6250 H   0  0  0  0  0  0  0  0  0  0  0  0
    1.4866   -1.6371   -0.9815 H   0  0  0  0  0  0  0  0  0  0  0  0
   -0.1371    1.1106   -2.0102 O   0  0  0  0  0  0  0  0  0  0  0  0
    0.2849    1.1769   -2.8832 H   0  0  0  0  0  0  0  0  0  0  0  0
   -0.0380    1.7391    0.9193 C   0  0  0  0  0  0  0  0  0  0  0  0
   -1.0140    2.4543    0.7178 O   0  0  0  0  0  0  0  0  0  0  0  0
    0.9050    2.1465    1.8478 N   0  0  0  0  0  0  0  0  0  0  0  0
    1.6268    1.4797    2.1054 H   0  0  0  0  0  0  0  0  0  0  0  0
    0.8037    3.3933    2.5969 C   0  0  0  0  0  0  0  0  0  0  0  0
   -0.0972    3.3945    3.2193 H   0  0  0  0  0  0  0  0  0  0  0  0
    1.6747    3.5145    3.2480 H   0  0  0  0  0  0  0  0  0  0  0  0
    0.7621    4.2486    1.9143 H   0  0  0  0  0  0  0  0  0  0  0  0
  1  2  1  0  0  0  0
  2  3  1  0  0  0  0
  2  4  1  0  0  0  0
  2  5  1  0  0  0  0
  5  6  2  0  0  0  0
  5  7  1  0  0  0  0
  7  8  1  0  0  0  0
  7  9  1  0  0  0  0
  9 10  1  0  0  0  0
  9 11  1  0  0  0  0
  9 19  1  0  0  0  0
 11 12  1  0  0  0  0
 11 13  1  0  0  0  0
 11 17  1  0  0  0  0
 13 14  1  0  0  0  0
 13 15  1  0  0  0  0
 13 16  1  0  0  0  0
 17 18  1  0  0  0  0
 19 20  2  0  0  0  0
 19 21  1  0  0  0  0
 21 22  1  0  0  0  0
 21 23  1  0  0  0  0
 23 24  1  0  0  0  0
 23 25  1  0  0  0  0
 23 26  1  0  0  0  0
M  END
$$$$

  -OEChem-01062216093D

 26 25  0     1  0  0  0  0  0999 V2000
   -3.0819   -2.9629    1.4640 H   0  0  0  0  0  0  0  0  0  0  0  0
   -3.0088   -2.0261    0.9047 C   0  0  0  0  0  0  0  0  0  0  0  0
   -3.6488   -1.2801    1.3821 H   0  0  0  0  0  0  0  0  0  0  0  0
   -3.3580   -2.1965   -0.1164 H   0  0  0  0  0  0  0  0  0  0  0  0
   -1.5727   -1.5386    0.8856 C   0  0  0  0  0  0  0  0  0  0  0  0
   -0.6971   -2.1981    1.4249 O   0  0  0  0  0  0  0  0  0  0  0  0
   -1.2636   -0.3547    0.2527 N   0  0  0  0  0  0  0  0  0  0  0  0
   -2.0383    0.2060   -0.0968 H   0  0  0  0  0  0  0  0  0  0  0  0
    0.0490    0.3132    0.3032 C   0  0  1  0  0  0  0  0  0  0  0  0
    0.7223   -0.2536    0.9529 H   0  0  0  0  0  0  0  0  0  0  0  0
    0.6926    0.3760   -1.0961 C   0  0  1  0  0  0  0  0  0  0  0  0
    1.6649    0.8725   -1.0063 H   0  0  0  0  0  0  0  0  0  0  0  0
    0.9161   -1.0182   -1.6833 C   0  0  0  0  0  0  0  0  0  0  0  0
   -0.0389   -1.5185   -1.8709 H   0  0  0  0  0  0  0  0  0  0  0  0
    1.4635   -0.9487   -2.6278 H   0  0  0  0  0  0  0  0  0  0  0  0
    1.4990   -1.6333   -0.9909 H   0  0  0  0  0  0  0  0  0  0  0  0
   -0.1248    1.1206   -2.0024 O   0  0  0  0  0  0  0  0  0  0  0  0
    0.2871    1.1682   -2.8816 H   0  0  0  0  0  0  0  0  0  0  0  0
   -0.0556    1.7264    0.9094 C   0  0  0  0  0  0  0  0  0  0  0  0
   -1.1169    2.3425    0.8932 O   0  0  0  0  0  0  0  0  0  0  0  0
    1.0172    2.2609    1.6030 N   0  0  0  0  0  0  0  0  0  0  0  0
    1.8530    1.6907    1.6910 H   0  0  0  0  0  0  0  0  0  0  0  0
    0.9586    3.5362    2.3068 C   0  0  0  0  0  0  0  0  0  0  0  0
    0.1943    3.5068    3.0905 H   0  0  0  0  0  0  0  0  0  0  0  0
    1.9238    3.7556    2.7730 H   0  0  0  0  0  0  0  0  0  0  0  0
    0.7194    4.3468    1.6107 H   0  0  0  0  0  0  0  0  0  0  0  0
  1  2  1  0  0  0  0
  2  3  1  0  0  0  0
  2  4  1  0  0  0  0
  2  5  1  0  0  0  0
  5  6  2  0  0  0  0
  5  7  1  0  0  0  0
  7  8  1  0  0  0  0
  7  9  1  0  0  0  0
  9 10  1  0  0  0  0
  9 11  1  0  0  0  0
  9 19  1  0  0  0  0
 11 12  1  0  0  0  0
 11 13  1  0  0  0  0
 11 17  1  0  0  0  0
 13 14  1  0  0  0  0
 13 15  1  0  0  0  0
 13 16  1  0  0  0  0
 17 18  1  0  0  0  0
 19 20  2  0  0  0  0
 19 21  1  0  0  0  0
 21 22  1  0  0  0  0
 21 23  1  0  0  0  0
 23 24  1  0  0  0  0
 23 25  1  0  0  0  0
 23 26  1  0  0  0  0
M  END
$$$$

  -OEChem-01062216093D

 26 25  0     1  0  0  0  0  0999 V2000
   -3.0858   -2.9539    1.4892 H   0  0  0  0  0  0  0  0  0  0  0  0
   -3.0131   -2.0235    0.9191 C   0  0  0  0  0  0  0  0  0  0  0  0
   -3.6331   -1.2650    1.4033 H   0  0  0  0  0  0  0  0  0  0  0  0
   -3.3871   -2.1987   -0.0924 H   0  0  0  0  0  0  0  0  0  0  0  0
   -1.5710   -1.5554    0.8635 C   0  0  0  0  0  0  0  0  0  0  0  0
   -0.6895   -2.2354    1.3664 O   0  0  0  0  0  0  0  0  0  0  0  0
   -1.2628   -0.3691    0.2343 N   0  0  0  0  0  0  0  0  0  0  0  0
   -2.0441    0.2136   -0.0603 H   0  0  0  0  0  0  0  0  0  0  0  0
    0.0486    0.3011    0.3054 C   0  0  1  0  0  0  0  0  0  0  0  0
    0.7189   -0.2638    0.9601 H   0  0  0  0  0  0  0  0  0  0  0  0
    0.6981    0.3748   -1.0912 C   0  0  1  0  0  0  0  0  0  0  0  0
    1.6705    0.8702   -0.9973 H   0  0  0  0  0  0  0  0  0  0  0  0
    0.9237   -1.0147   -1.6891 C   0  0  0  0  0  0  0  0  0  0  0  0
   -0.0302   -1.5145   -1.8839 H   0  0  0  0  0  0  0  0  0  0  0  0
    1.4739   -0.9376   -2.6315 H   0  0  0  0  0  0  0  0  0  0  0  0
    1.5048   -1.6353   -0.9999 H   0  0  0  0  0  0  0  0  0  0  0  0
   -0.1203    1.1269   -1.9908 O   0  0  0  0  0  0  0  0  0  0  0  0
    0.2801    1.1620   -2.8760 H   0  0  0  0  0  0  0  0  0  0  0  0
   -0.0675    1.7138    0.9133 C   0  0  0  0  0  0  0  0  0  0  0  0
   -1.1650    2.2351    1.0890 O   0  0  0  0  0  0  0  0  0  0  0  0
    1.0659    2.3794    1.3497 N   0  0  0  0  0  0  0  0  0  0  0  0
    1.9601    1.9101    1.2439 H   0  0  0  0  0  0  0  0  0  0  0  0
    1.0294    3.6899    1.9871 C   0  0  0  0  0  0  0  0  0  0  0  0
    0.4263    3.6557    2.9007 H   0  0  0  0  0  0  0  0  0  0  0  0
    2.0417    4.0092    2.2534 H   0  0  0  0  0  0  0  0  0  0  0  0
    0.5996    4.4337    1.3080 H   0  0  0  0  0  0  0  0  0  0  0  0
  1  2  1  0  0  0  0
  2  3  1  0  0  0  0
  2  4  1  0  0  0  0
  2  5  1  0  0  0  0
  5  6  2  0  0  0  0
  5  7  1  0  0  0  0
  7  8  1  0  0  0  0
  7  9  1  0  0  0  0
  9 10  1  0  0  0  0
  9 11  1  0  0  0  0
  9 19  1  0  0  0  0
 11 12  1  0  0  0  0
 11 13  1  0  0  0  0
 11 17  1  0  0  0  0
 13 14  1  0  0  0  0
 13 15  1  0  0  0  0
 13 16  1  0  0  0  0
 17 18  1  0  0  0  0
 19 20  2  0  0  0  0
 19 21  1  0  0  0  0
 21 22  1  0  0  0  0
 21 23  1  0  0  0  0
 23 24  1  0  0  0  0
 23 25  1  0  0  0  0
 23 26  1  0  0  0  0
M  END
$$$$

  -OEChem-01062216093D

 26 25  0     1  0  0  0  0  0999 V2000
   -3.0658   -2.9255    1.5342 H   0  0  0  0  0  0  0  0  0  0  0  0
   -3.0016   -1.9992    0.9565 C   0  0  0  0  0  0  0  0  0  0  0  0
   -3.5816   -1.2259    1.4665 H   0  0  0  0  0  0  0  0  0  0  0  0
   -3.4265   -2.1703   -0.0354 H   0  0  0  0  0  0  0  0  0  0  0  0
   -1.5551   -1.5605    0.8305 C   0  0  0  0  0  0  0  0  0  0  0  0
   -0.6632   -2.2693    1.2716 O   0  0  0  0  0  0  0  0  0  0  0  0
   -1.2590   -0.3696    0.2035 N   0  0  0  0  0  0  0  0  0  0  0  0
   -2.0491    0.2350   -0.0082 H   0  0  0  0  0  0  0  0  0  0  0  0
    0.0522    0.2995    0.2927 C   0  0  1  0  0  0  0  0  0  0  0  0
    0.7976   -0.3844    0.7090 H   0  0  0  0  0  0  0  0  0  0  0  0
    0.5237    0.7076   -1.1184 C   0  0  1  0  0  0  0  0  0  0  0  0
    1.5020    1.1927   -1.0370 H   0  0  0  0  0  0  0  0  0  0  0  0
    0.6702   -0.5022   -2.0426 C   0  0  0  0  0  0  0  0  0  0  0  0
   -0.3002   -0.9742   -2.2251 H   0  0  0  0  0  0  0  0  0  0  0  0
    1.0928   -0.1955   -3.0037 H   0  0  0  0  0  0  0  0  0  0  0  0
    1.3372   -1.2445   -1.5933 H   0  0  0  0  0  0  0  0  0  0  0  0
   -0.4022    1.6226   -1.7115 O   0  0  0  0  0  0  0  0  0  0  0  0
   -0.1183    1.8693   -2.6083 H   0  0  0  0  0  0  0  0  0  0  0  0
    0.0071    1.5291    1.2270 C   0  0  0  0  0  0  0  0  0  0  0  0
   -1.0279    1.8378    1.8103 O   0  0  0  0  0  0  0  0  0  0  0  0
    1.1427    2.2926    1.4433 N   0  0  0  0  0  0  0  0  0  0  0  0
    1.9959    2.0151    0.9689 H   0  0  0  0  0  0  0  0  0  0  0  0
    1.1707    3.4581    2.3188 C   0  0  0  0  0  0  0  0  0  0  0  0
    0.8889    3.1780    3.3393 H   0  0  0  0  0  0  0  0  0  0  0  0
    2.1767    3.8877    2.3442 H   0  0  0  0  0  0  0  0  0  0  0  0
    0.4763    4.2243    1.9583 H   0  0  0  0  0  0  0  0  0  0  0  0
  1  2  1  0  0  0  0
  2  3  1  0  0  0  0
  2  4  1  0  0  0  0
  2  5  1  0  0  0  0
  5  6  2  0  0  0  0
  5  7  1  0  0  0  0
  7  8  1  0  0  0  0
  7  9  1  0  0  0  0
  9 10  1  0  0  0  0
  9 11  1  0  0  0  0
  9 19  1  0  0  0  0
 11 12  1  0  0  0  0
 11 13  1  0  0  0  0
 11 17  1  0  0  0  0
 13 14  1  0  0  0  0
 13 15  1  0  0  0  0
 13 16  1  0  0  0  0
 17 18  1  0  0  0  0
 19 20  2  0  0  0  0
 19 21  1  0  0  0  0
 21 22  1  0  0  0  0
 21 23  1  0  0  0  0
 23 24  1  0  0  0  0
 23 25  1  0  0  0  0
 23 26  1  0  0  0  0
M  END
$$$$

  -OEChem-01062216093D

 26 25  0     1  0  0  0  0  0999 V2000
   -3.0599   -2.9369    1.4943 H   0  0  0  0  0  0  0  0  0  0  0  0
   -2.9995   -1.9801    0.9683 C   0  0  0  0  0  0  0  0  0  0  0  0
   -3.5458   -1.2277    1.5427 H   0  0  0  0  0  0  0  0  0  0  0  0
   -3.4635   -2.0871   -0.0150 H   0  0  0  0  0  0  0  0  0  0  0  0
   -1.5507   -1.5580    0.8146 C   0  0  0  0  0  0  0  0  0  0  0  0
   -0.6579   -2.2878    1.2179 O   0  0  0  0  0  0  0  0  0  0  0  0
   -1.2537   -0.3637    0.1941 N   0  0  0  0  0  0  0  0  0  0  0  0
   -2.0437    0.2471    0.0032 H   0  0  0  0  0  0  0  0  0  0  0  0
    0.0620    0.2978    0.2883 C   0  0  1  0  0  0  0  0  0  0  0  0
    0.8040   -0.3885    0.7074 H   0  0  0  0  0  0  0  0  0  0  0  0
    0.5375    0.6958   -1.1250 C   0  0  1  0  0  0  0  0  0  0  0  0
    1.5218    1.1693   -1.0495 H   0  0  0  0  0  0  0  0  0  0  0  0
    0.6703   -0.5206   -2.0431 C   0  0  0  0  0  0  0  0  0  0  0  0
   -0.3069   -0.9750   -2.2335 H   0  0  0  0  0  0  0  0  0  0  0  0
    1.1087   -0.2263   -3.0010 H   0  0  0  0  0  0  0  0  0  0  0  0
    1.3184   -1.2737   -1.5841 H   0  0  0  0  0  0  0  0  0  0  0  0
   -0.3832    1.6136   -1.7223 O   0  0  0  0  0  0  0  0  0  0  0  0
   -0.1216    1.8197   -2.6362 H   0  0  0  0  0  0  0  0  0  0  0  0
    0.0163    1.5214    1.2341 C   0  0  0  0  0  0  0  0  0  0  0  0
   -0.9321    1.6831    1.9960 O   0  0  0  0  0  0  0  0  0  0  0  0
    1.0315    2.4646    1.2417 N   0  0  0  0  0  0  0  0  0  0  0  0
    1.7811    2.3530    0.5669 H   0  0  0  0  0  0  0  0  0  0  0  0
    1.0087    3.6612    2.0743 C   0  0  0  0  0  0  0  0  0  0  0  0
    0.9536    3.3901    3.1338 H   0  0  0  0  0  0  0  0  0  0  0  0
    1.9176    4.2492    1.9158 H   0  0  0  0  0  0  0  0  0  0  0  0
    0.1444    4.2851    1.8241 H   0  0  0  0  0  0  0  0  0  0  0  0
  1  2  1  0  0  0  0
  2  3  1  0  0  0  0
  2  4  1  0  0  0  0
  2  5  1  0  0  0  0
  5  6  2  0  0  0  0
  5  7  1  0  0  0  0
  7  8  1  0  0  0  0
  7  9  1  0  0  0  0
  9 10  1  0  0  0  0
  9 11  1  0  0  0  0
  9 19  1  0  0  0  0
 11 12  1  0  0  0  0
 11 13  1  0  0  0  0
 11 17  1  0  0  0  0
 13 14  1  0  0  0  0
 13 15  1  0  0  0  0
 13 16  1  0  0  0  0
 17 18  1  0  0  0  0
 19 20  2  0  0  0  0
 19 21  1  0  0  0  0
 21 22  1  0  0  0  0
 21 23  1  0  0  0  0
 23 24  1  0  0  0  0
 23 25  1  0  0  0  0
 23 26  1  0  0  0  0
M  END
$$$$

  -OEChem-01062216093D

 26 25  0     1  0  0  0  0  0999 V2000
   -3.0579   -2.9053    1.5273 H   0  0  0  0  0  0  0  0  0  0  0  0
   -2.9976   -1.9606    0.9797 C   0  0  0  0  0  0  0  0  0  0  0  0
   -3.5392   -1.1947    1.5403 H   0  0  0  0  0  0  0  0  0  0  0  0
   -3.4663   -2.0881    0.0012 H   0  0  0  0  0  0  0  0  0  0  0  0
   -1.5482   -1.5464    0.8103 C   0  0  0  0  0  0  0  0  0  0  0  0
   -0.6558   -2.2898    1.1883 O   0  0  0  0  0  0  0  0  0  0  0  0
   -1.2519   -0.3498    0.1926 N   0  0  0  0  0  0  0  0  0  0  0  0
   -2.0419    0.2592   -0.0017 H   0  0  0  0  0  0  0  0  0  0  0  0
    0.0688    0.3039    0.2777 C   0  0  1  0  0  0  0  0  0  0  0  0
    0.8074   -0.3856    0.6980 H   0  0  0  0  0  0  0  0  0  0  0  0
    0.5535    0.6877   -1.1368 C   0  0  1  0  0  0  0  0  0  0  0  0
    1.5440    1.1486   -1.0621 H   0  0  0  0  0  0  0  0  0  0  0  0
    0.6754   -0.5387   -2.0430 C   0  0  0  0  0  0  0  0  0  0  0  0
   -0.3052   -0.9877   -2.2283 H   0  0  0  0  0  0  0  0  0  0  0  0
    1.1158   -0.2578   -3.0040 H   0  0  0  0  0  0  0  0  0  0  0  0
    1.3177   -1.2922   -1.5765 H   0  0  0  0  0  0  0  0  0  0  0  0
   -0.3555    1.6084   -1.7475 O   0  0  0  0  0  0  0  0  0  0  0  0
   -0.1121    1.7673   -2.6761 H   0  0  0  0  0  0  0  0  0  0  0  0
    0.0276    1.5213    1.2331 C   0  0  0  0  0  0  0  0  0  0  0  0
   -0.7610    1.5376    2.1725 O   0  0  0  0  0  0  0  0  0  0  0  0
    0.8528    2.6201    1.0544 N   0  0  0  0  0  0  0  0  0  0  0  0
    1.3739    2.6639    0.1844 H   0  0  0  0  0  0  0  0  0  0  0  0
    0.7731    3.8205    1.8781 C   0  0  0  0  0  0  0  0  0  0  0  0
    0.9398    3.5741    2.9320 H   0  0  0  0  0  0  0  0  0  0  0  0
    1.5357    4.5418    1.5693 H   0  0  0  0  0  0  0  0  0  0  0  0
   -0.2109    4.2901    1.7770 H   0  0  0  0  0  0  0  0  0  0  0  0
  1  2  1  0  0  0  0
  2  3  1  0  0  0  0
  2  4  1  0  0  0  0
  2  5  1  0  0  0  0
  5  6  2  0  0  0  0
  5  7  1  0  0  0  0
  7  8  1  0  0  0  0
  7  9  1  0  0  0  0
  9 10  1  0  0  0  0
  9 11  1  0  0  0  0
  9 19  1  0  0  0  0
 11 12  1  0  0  0  0
 11 13  1  0  0  0  0
 11 17  1  0  0  0  0
 13 14  1  0  0  0  0
 13 15  1  0  0  0  0
 13 16  1  0  0  0  0
 17 18  1  0  0  0  0
 19 20  2  0  0  0  0
 19 21  1  0  0  0  0
 21 22  1  0  0  0  0
 21 23  1  0  0  0  0
 23 24  1  0  0  0  0
 23 25  1  0  0  0  0
 23 26  1  0  0  0  0
M  END
$$$$

  -OEChem-01062216093D

 26 25  0     1  0  0  0  0  0999 V2000
   -3.0531   -2.9125    1.5036 H   0  0  0  0  0  0  0  0  0  0  0  0
   -2.9962   -1.9552    0.9777 C   0  0  0  0  0  0  0  0  0  0  0  0
   -3.5413   -1.2043    1.5552 H   0  0  0  0  0  0  0  0  0  0  0  0
   -3.4638   -2.0628   -0.0039 H   0  0  0  0  0  0  0  0  0  0  0  0
   -1.5480   -1.5328    0.8188 C   0  0  0  0  0  0  0  0  0  0  0  0
   -0.6553   -2.2769    1.1939 O   0  0  0  0  0  0  0  0  0  0  0  0
   -1.2531   -0.3357    0.2004 N   0  0  0  0  0  0  0  0  0  0  0  0
   -2.0437    0.2632   -0.0190 H   0  0  0  0  0  0  0  0  0  0  0  0
    0.0693    0.3159    0.2739 C   0  0  1  0  0  0  0  0  0  0  0  0
    0.8060   -0.3734    0.6982 H   0  0  0  0  0  0  0  0  0  0  0  0
    0.5631    0.6867   -1.1408 C   0  0  1  0  0  0  0  0  0  0  0  0
    1.5557    1.1432   -1.0612 H   0  0  0  0  0  0  0  0  0  0  0  0
    0.6830   -0.5491   -2.0342 C   0  0  0  0  0  0  0  0  0  0  0  0
   -0.2988   -0.9966   -2.2166 H   0  0  0  0  0  0  0  0  0  0  0  0
    1.1261   -0.2796   -2.9972 H   0  0  0  0  0  0  0  0  0  0  0  0
    1.3218   -1.3003   -1.5587 H   0  0  0  0  0  0  0  0  0  0  0  0
   -0.3362    1.6060   -1.7693 O   0  0  0  0  0  0  0  0  0  0  0  0
   -0.1007    1.7270   -2.7062 H   0  0  0  0  0  0  0  0  0  0  0  0
    0.0335    1.5306    1.2309 C   0  0  0  0  0  0  0  0  0  0  0  0
   -0.5428    1.4415    2.3089 O   0  0  0  0  0  0  0  0  0  0  0  0
    0.6136    2.7425    0.8943 N   0  0  0  0  0  0  0  0  0  0  0  0
    0.8575    2.8560   -0.0862 H   0  0  0  0  0  0  0  0  0  0  0  0
    0.4855    3.9393    1.7172 C   0  0  0  0  0  0  0  0  0  0  0  0
    0.8768    3.7566    2.7236 H   0  0  0  0  0  0  0  0  0  0  0  0
    1.0507    4.7646    1.2739 H   0  0  0  0  0  0  0  0  0  0  0  0
   -0.5647    4.2392    1.7963 H   0  0  0  0  0  0  0  0  0  0  0  0
  1  2  1  0  0  0  0
  2  3  1  0  0  0  0
  2  4  1  0  0  0  0
  2  5  1  0  0  0  0
  5  6  2  0  0  0  0
  5  7  1  0  0  0  0
  7  8  1  0  0  0  0
  7  9  1  0  0  0  0
  9 10  1  0  0  0  0
  9 11  1  0  0  0  0
  9 19  1  0  0  0  0
 11 12  1  0  0  0  0
 11 13  1  0  0  0  0
 11 17  1  0  0  0  0
 13 14  1  0  0  0  0
 13 15  1  0  0  0  0
 13 16  1  0  0  0  0
 17 18  1  0  0  0  0
 19 20  2  0  0  0  0
 19 21  1  0  0  0  0
 21 22  1  0  0  0  0
 21 23  1  0  0  0  0
 23 24  1  0  0  0  0
 23 25  1  0  0  0  0
 23 26  1  0  0  0  0
M  END
$$$$

  -OEChem-01062216093D

 26 25  0     1  0  0  0  0  0999 V2000
   -3.0535   -2.9109    1.5037 H   0  0  0  0  0  0  0  0  0  0  0  0
   -2.9949   -1.9597    0.9674 C   0  0  0  0  0  0  0  0  0  0  0  0
   -3.5573   -1.2075    1.5261 H   0  0  0  0  0  0  0  0  0  0  0  0
   -3.4434   -2.0834   -0.0212 H   0  0  0  0  0  0  0  0  0  0  0  0
   -1.5476   -1.5259    0.8299 C   0  0  0  0  0  0  0  0  0  0  0  0
   -0.6552   -2.2612    1.2212 O   0  0  0  0  0  0  0  0  0  0  0  0
   -1.2539   -0.3283    0.2110 N   0  0  0  0  0  0  0  0  0  0  0  0
   -2.0446    0.2538   -0.0484 H   0  0  0  0  0  0  0  0  0  0  0  0
    0.0659    0.3285    0.2752 C   0  0  1  0  0  0  0  0  0  0  0  0
    0.8051   -0.3583    0.6996 H   0  0  0  0  0  0  0  0  0  0  0  0
    0.5572    0.6911   -1.1437 C   0  0  1  0  0  0  0  0  0  0  0  0
    1.5463    1.1557   -1.0623 H   0  0  0  0  0  0  0  0  0  0  0  0
    0.6878   -0.5515   -2.0261 C   0  0  0  0  0  0  0  0  0  0  0  0
   -0.2911   -1.0050   -2.2098 H   0  0  0  0  0  0  0  0  0  0  0  0
    1.1359   -0.2889   -2.9888 H   0  0  0  0  0  0  0  0  0  0  0  0
    1.3274   -1.2953   -1.5405 H   0  0  0  0  0  0  0  0  0  0  0  0
   -0.3419    1.6030   -1.7868 O   0  0  0  0  0  0  0  0  0  0  0  0
   -0.1008    1.7111   -2.7244 H   0  0  0  0  0  0  0  0  0  0  0  0
    0.0333    1.5434    1.2297 C   0  0  0  0  0  0  0  0  0  0  0  0
   -0.3044    1.3926    2.3972 O   0  0  0  0  0  0  0  0  0  0  0  0
    0.3238    2.8219    0.7866 N   0  0  0  0  0  0  0  0  0  0  0  0
    0.3554    2.9335   -0.2256 H   0  0  0  0  0  0  0  0  0  0  0  0
    0.1581    4.0099    1.6149 C   0  0  0  0  0  0  0  0  0  0  0  0
    0.7645    3.9318    2.5235 H   0  0  0  0  0  0  0  0  0  0  0  0
    0.4764    4.9006    1.0651 H   0  0  0  0  0  0  0  0  0  0  0  0
   -0.8915    4.1337    1.9011 H   0  0  0  0  0  0  0  0  0  0  0  0
  1  2  1  0  0  0  0
  2  3  1  0  0  0  0
  2  4  1  0  0  0  0
  2  5  1  0  0  0  0
  5  6  2  0  0  0  0
  5  7  1  0  0  0  0
  7  8  1  0  0  0  0
  7  9  1  0  0  0  0
  9 10  1  0  0  0  0
  9 11  1  0  0  0  0
  9 19  1  0  0  0  0
 11 12  1  0  0  0  0
 11 13  1  0  0  0  0
 11 17  1  0  0  0  0
 13 14  1  0  0  0  0
 13 15  1  0  0  0  0
 13 16  1  0  0  0  0
 17 18  1  0  0  0  0
 19 20  2  0  0  0  0
 19 21  1  0  0  0  0
 21 22  1  0  0  0  0
 21 23  1  0  0  0  0
 23 24  1  0  0  0  0
 23 25  1  0  0  0  0
 23 26  1  0  0  0  0
M  END
$$$$

  -OEChem-01062216093D

 26 25  0     1  0  0  0  0  0999 V2000
   -3.0496   -2.9382    1.4774 H   0  0  0  0  0  0  0  0  0  0  0  0
   -2.9919   -1.9913    0.9332 C   0  0  0  0  0  0  0  0  0  0  0  0
   -3.5941   -1.2469    1.4596 H   0  0  0  0  0  0  0  0  0  0  0  0
   -3.3969   -2.1360   -0.0710 H   0  0  0  0  0  0  0  0  0  0  0  0
   -1.5510   -1.5243    0.8494 C   0  0  0  0  0  0  0  0  0  0  0  0
   -0.6584   -2.2343    1.2832 O   0  0  0  0  0  0  0  0  0  0  0  0
   -1.2621   -0.3265    0.2287 N   0  0  0  0  0  0  0  0  0  0  0  0
   -2.0513    0.2242   -0.0959 H   0  0  0  0  0  0  0  0  0  0  0  0
    0.0504    0.3446    0.2870 C   0  0  1  0  0  0  0  0  0  0  0  0
    0.7958   -0.3367    0.7104 H   0  0  0  0  0  0  0  0  0  0  0  0
    0.5316    0.6983   -1.1378 C   0  0  1  0  0  0  0  0  0  0  0  0
    1.5130    1.1791   -1.0593 H   0  0  0  0  0  0  0  0  0  0  0  0
    0.6816   -0.5510   -2.0075 C   0  0  0  0  0  0  0  0  0  0  0  0
   -0.2900   -1.0207   -2.1889 H   0  0  0  0  0  0  0  0  0  0  0  0
    1.1273   -0.2903   -2.9718 H   0  0  0  0  0  0  0  0  0  0  0  0
    1.3315   -1.2804   -1.5138 H   0  0  0  0  0  0  0  0  0  0  0  0
   -0.3764    1.5934   -1.7943 O   0  0  0  0  0  0  0  0  0  0  0  0
   -0.1160    1.7110   -2.7258 H   0  0  0  0  0  0  0  0  0  0  0  0
    0.0206    1.5646    1.2335 C   0  0  0  0  0  0  0  0  0  0  0  0
   -0.0456    1.3985    2.4442 O   0  0  0  0  0  0  0  0  0  0  0  0
   -0.0025    2.8575    0.7421 N   0  0  0  0  0  0  0  0  0  0  0  0
   -0.1205    2.9429   -0.2673 H   0  0  0  0  0  0  0  0  0  0  0  0
   -0.1679    4.0389    1.5794 C   0  0  0  0  0  0  0  0  0  0  0  0
    0.6325    4.0958    2.3246 H   0  0  0  0  0  0  0  0  0  0  0  0
   -0.1314    4.9442    0.9661 H   0  0  0  0  0  0  0  0  0  0  0  0
   -1.1316    4.0087    2.0983 H   0  0  0  0  0  0  0  0  0  0  0  0
  1  2  1  0  0  0  0
  2  3  1  0  0  0  0
  2  4  1  0  0  0  0
  2  5  1  0  0  0  0
  5  6  2  0  0  0  0
  5  7  1  0  0  0  0
  7  8  1  0  0  0  0
  7  9  1  0  0  0  0
  9 10  1  0  0  0  0
  9 11  1  0  0  0  0
  9 19  1  0  0  0  0
 11 12  1  0  0  0  0
 11 13  1  0  0  0  0
 11 17  1  0  0  0  0
 13 14  1  0  0  0  0
 13 15  1  0  0  0  0
 13 16  1  0  0  0  0
 17 18  1  0  0  0  0
 19 20  2  0  0  0  0
 19 21  1  0  0  0  0
 21 22  1  0  0  0  0
 21 23  1  0  0  0  0
 23 24  1  0  0  0  0
 23 25  1  0  0  0  0
 23 26  1  0  0  0  0
M  END
$$$$

  -OEChem-01062216093D

 26 25  0     1  0  0  0  0  0999 V2000
   -3.0435   -2.9914    1.4471 H   0  0  0  0  0  0  0  0  0  0  0  0
   -2.9918   -2.0511    0.8910 C   0  0  0  0  0  0  0  0  0  0  0  0
   -3.6416   -1.3201    1.3782 H   0  0  0  0  0  0  0  0  0  0  0  0
   -3.3456   -2.2240   -0.1280 H   0  0  0  0  0  0  0  0  0  0  0  0
   -1.5639   -1.5391    0.8644 C   0  0  0  0  0  0  0  0  0  0  0  0
   -0.6720   -2.2153    1.3492 O   0  0  0  0  0  0  0  0  0  0  0  0
   -1.2829   -0.3392    0.2434 N   0  0  0  0  0  0  0  0  0  0  0  0
   -2.0678    0.1769   -0.1429 H   0  0  0  0  0  0  0  0  0  0  0  0
    0.0185    0.3530    0.3075 C   0  0  1  0  0  0  0  0  0  0  0  0
    0.7716   -0.3185    0.7333 H   0  0  0  0  0  0  0  0  0  0  0  0
    0.4992    0.7130   -1.1156 C   0  0  1  0  0  0  0  0  0  0  0  0
    1.4703    1.2135   -1.0301 H   0  0  0  0  0  0  0  0  0  0  0  0
    0.6793   -0.5336   -1.9833 C   0  0  0  0  0  0  0  0  0  0  0  0
   -0.2802   -1.0289   -2.1600 H   0  0  0  0  0  0  0  0  0  0  0  0
    1.1145   -0.2631   -2.9497 H   0  0  0  0  0  0  0  0  0  0  0  0
    1.3504   -1.2447   -1.4910 H   0  0  0  0  0  0  0  0  0  0  0  0
   -0.4196    1.5925   -1.7801 O   0  0  0  0  0  0  0  0  0  0  0  0
   -0.1306    1.7447   -2.6982 H   0  0  0  0  0  0  0  0  0  0  0  0
   -0.0266    1.5771    1.2463 C   0  0  0  0  0  0  0  0  0  0  0  0
    0.2019    1.4468    2.4411 O   0  0  0  0  0  0  0  0  0  0  0  0
   -0.3683    2.8294    0.7700 N   0  0  0  0  0  0  0  0  0  0  0  0
   -0.5788    2.8886   -0.2265 H   0  0  0  0  0  0  0  0  0  0  0  0
   -0.4656    4.0227    1.6006 C   0  0  0  0  0  0  0  0  0  0  0  0
    0.4944    4.2318    2.0841 H   0  0  0  0  0  0  0  0  0  0  0  0
   -0.7399    4.8874    0.9889 H   0  0  0  0  0  0  0  0  0  0  0  0
   -1.2290    3.8899    2.3744 H   0  0  0  0  0  0  0  0  0  0  0  0
  1  2  1  0  0  0  0
  2  3  1  0  0  0  0
  2  4  1  0  0  0  0
  2  5  1  0  0  0  0
  5  6  2  0  0  0  0
  5  7  1  0  0  0  0
  7  8  1  0  0  0  0
  7  9  1  0  0  0  0
  9 10  1  0  0  0  0
  9 11  1  0  0  0  0
  9 19  1  0  0  0  0
 11 12  1  0  0  0  0
 11 13  1  0  0  0  0
 11 17  1  0  0  0  0
 13 14  1  0  0  0  0
 13 15  1  0  0  0  0
 13 16  1  0  0  0  0
 17 18  1  0  0  0  0
 19 20  2  0  0  0  0
 19 21  1  0  0  0  0
 21 22  1  0  0  0  0
 21 23  1  0  0  0  0
 23 24  1  0  0  0  0
 23 25  1  0  0  0  0
 23 26  1  0  0  0  0
M  END
$$$$

  -OEChem-01062216093D

 26 25  0     1  0  0  0  0  0999 V2000
   -3.0389   -3.0687    1.3801 H   0  0  0  0  0  0  0  0  0  0  0  0
   -2.9914   -2.1159    0.8449 C   0  0  0  0  0  0  0  0  0  0  0  0
   -3.6787   -1.4122    1.3206 H   0  0  0  0  0  0  0  0  0  0  0  0
   -3.3022   -2.2778   -0.1900 H   0  0  0  0  0  0  0  0  0  0  0  0
   -1.5779   -1.5655    0.8833 C   0  0  0  0  0  0  0  0  0  0  0  0
   -0.6952   -2.2076    1.4268 O   0  0  0  0  0  0  0  0  0  0  0  0
   -1.2996   -0.3632    0.2660 N   0  0  0  0  0  0  0  0  0  0  0  0
   -2.0737    0.1209   -0.1788 H   0  0  0  0  0  0  0  0  0  0  0  0
   -0.0073    0.3454    0.3419 C   0  0  1  0  0  0  0  0  0  0  0  0
    0.7530   -0.3205    0.7641 H   0  0  0  0  0  0  0  0  0  0  0  0
    0.4681    0.7300   -1.0750 C   0  0  1  0  0  0  0  0  0  0  0  0
    1.4307    1.2454   -0.9808 H   0  0  0  0  0  0  0  0  0  0  0  0
    0.6681   -0.5009   -1.9602 C   0  0  0  0  0  0  0  0  0  0  0  0
   -0.2842   -1.0050   -2.1502 H   0  0  0  0  0  0  0  0  0  0  0  0
    1.1056   -0.2104   -2.9197 H   0  0  0  0  0  0  0  0  0  0  0  0
    1.3448   -1.2107   -1.4743 H   0  0  0  0  0  0  0  0  0  0  0  0
   -0.4648    1.6055   -1.7255 O   0  0  0  0  0  0  0  0  0  0  0  0
   -0.1539    1.8130   -2.6255 H   0  0  0  0  0  0  0  0  0  0  0  0
   -0.0687    1.5702    1.2762 C   0  0  0  0  0  0  0  0  0  0  0  0
    0.4411    1.5296    2.3876 O   0  0  0  0  0  0  0  0  0  0  0  0
   -0.7048    2.7301    0.8736 N   0  0  0  0  0  0  0  0  0  0  0  0
   -0.9931    2.7585   -0.1044 H   0  0  0  0  0  0  0  0  0  0  0  0
   -0.7346    3.9541    1.6635 C   0  0  0  0  0  0  0  0  0  0  0  0
    0.2796    4.3389    1.8121 H   0  0  0  0  0  0  0  0  0  0  0  0
   -1.3257    4.7193    1.1516 H   0  0  0  0  0  0  0  0  0  0  0  0
   -1.1879    3.7669    2.6426 H   0  0  0  0  0  0  0  0  0  0  0  0
  1  2  1  0  0  0  0
  2  3  1  0  0  0  0
  2  4  1  0  0  0  0
  2  5  1  0  0  0  0
  5  6  2  0  0  0  0
  5  7  1  0  0  0  0
  7  8  1  0  0  0  0
  7  9  1  0  0  0  0
  9 10  1  0  0  0  0
  9 11  1  0  0  0  0
  9 19  1  0  0  0  0
 11 12  1  0  0  0  0
 11 13  1  0  0  0  0
 11 17  1  0  0  0  0
 13 14  1  0  0  0  0
 13 15  1  0  0  0  0
 13 16  1  0  0  0  0
 17 18  1  0  0  0  0
 19 20  2  0  0  0  0
 19 21  1  0  0  0  0
 21 22  1  0  0  0  0
 21 23  1  0  0  0  0
 23 24  1  0  0  0  0
 23 25  1  0  0  0  0
 23 26  1  0  0  0  0
M  END
$$$$

  -OEChem-01062216093D

 26 25  0     1  0  0  0  0  0999 V2000
   -3.0327   -3.1277    1.3290 H   0  0  0  0  0  0  0  0  0  0  0  0
   -2.9827   -2.1739    0.7960 C   0  0  0  0  0  0  0  0  0  0  0  0
   -3.7154   -1.4898    1.2309 H   0  0  0  0  0  0  0  0  0  0  0  0
   -3.2294   -2.3445   -0.2546 H   0  0  0  0  0  0  0  0  0  0  0  0
   -1.5901   -1.5834    0.9122 C   0  0  0  0  0  0  0  0  0  0  0  0
   -0.7264   -2.1881    1.5242 O   0  0  0  0  0  0  0  0  0  0  0  0
   -1.3080   -0.3820    0.2958 N   0  0  0  0  0  0  0  0  0  0  0  0
   -2.0572    0.0627   -0.2261 H   0  0  0  0  0  0  0  0  0  0  0  0
   -0.0176    0.3299    0.3779 C   0  0  1  0  0  0  0  0  0  0  0  0
    0.7472   -0.3380    0.7892 H   0  0  0  0  0  0  0  0  0  0  0  0
    0.4397    0.7384   -1.0355 C   0  0  1  0  0  0  0  0  0  0  0  0
    1.3990    1.2606   -0.9439 H   0  0  0  0  0  0  0  0  0  0  0  0
    0.6386   -0.4745   -1.9455 C   0  0  0  0  0  0  0  0  0  0  0  0
   -0.3114   -0.9839   -2.1327 H   0  0  0  0  0  0  0  0  0  0  0  0
    1.0611   -0.1626   -2.9051 H   0  0  0  0  0  0  0  0  0  0  0  0
    1.3283   -1.1863   -1.4809 H   0  0  0  0  0  0  0  0  0  0  0  0
   -0.5131    1.6192   -1.6487 O   0  0  0  0  0  0  0  0  0  0  0  0
   -0.1965    1.8918   -2.5289 H   0  0  0  0  0  0  0  0  0  0  0  0
   -0.0733    1.5573    1.3064 C   0  0  0  0  0  0  0  0  0  0  0  0
    0.6781    1.6413    2.2686 O   0  0  0  0  0  0  0  0  0  0  0  0
   -0.9508    2.5932    1.0404 N   0  0  0  0  0  0  0  0  0  0  0  0
   -1.3713    2.5754    0.1127 H   0  0  0  0  0  0  0  0  0  0  0  0
   -0.9641    3.8401    1.7942 C   0  0  0  0  0  0  0  0  0  0  0  0
   -0.0111    4.3671    1.6802 H   0  0  0  0  0  0  0  0  0  0  0  0
   -1.7673    4.4903    1.4346 H   0  0  0  0  0  0  0  0  0  0  0  0
   -1.1326    3.6426    2.8581 H   0  0  0  0  0  0  0  0  0  0  0  0
  1  2  1  0  0  0  0
  2  3  1  0  0  0  0
  2  4  1  0  0  0  0
  2  5  1  0  0  0  0
  5  6  2  0  0  0  0
  5  7  1  0  0  0  0
  7  8  1  0  0  0  0
  7  9  1  0  0  0  0
  9 10  1  0  0  0  0
  9 11  1  0  0  0  0
  9 19  1  0  0  0  0
 11 12  1  0  0  0  0
 11 13  1  0  0  0  0
 11 17  1  0  0  0  0
 13 14  1  0  0  0  0
 13 15  1  0  0  0  0
 13 16  1  0  0  0  0
 17 18  1  0  0  0  0
 19 20  2  0  0  0  0
 19 21  1  0  0  0  0
 21 22  1  0  0  0  0
 21 23  1  0  0  0  0
 23 24  1  0  0  0  0
 23 25  1  0  0  0  0
 23 26  1  0  0  0  0
M  END
$$$$

  -OEChem-01062216093D

 26 25  0     1  0  0  0  0  0999 V2000
   -3.0152   -3.1855    1.2732 H   0  0  0  0  0  0  0  0  0  0  0  0
   -2.9649   -2.2328    0.7383 C   0  0  0  0  0  0  0  0  0  0  0  0
   -3.7505   -1.5750    1.1177 H   0  0  0  0  0  0  0  0  0  0  0  0
   -3.1339   -2.4177   -0.3252 H   0  0  0  0  0  0  0  0  0  0  0  0
   -1.6064   -1.5889    0.9444 C   0  0  0  0  0  0  0  0  0  0  0  0
   -0.7733   -2.1434    1.6404 O   0  0  0  0  0  0  0  0  0  0  0  0
   -1.3203   -0.3902    0.3248 N   0  0  0  0  0  0  0  0  0  0  0  0
   -2.0209   -0.0105   -0.3050 H   0  0  0  0  0  0  0  0  0  0  0  0
   -0.0268    0.3170    0.4072 C   0  0  1  0  0  0  0  0  0  0  0  0
    0.7381   -0.3563    0.8091 H   0  0  0  0  0  0  0  0  0  0  0  0
    0.4148    0.7361   -1.0061 C   0  0  1  0  0  0  0  0  0  0  0  0
    1.3744    1.2591   -0.9215 H   0  0  0  0  0  0  0  0  0  0  0  0
    0.6023   -0.4635   -1.9359 C   0  0  0  0  0  0  0  0  0  0  0  0
   -0.3489   -0.9730   -2.1160 H   0  0  0  0  0  0  0  0  0  0  0  0
    1.0083   -0.1362   -2.8975 H   0  0  0  0  0  0  0  0  0  0  0  0
    1.3017   -1.1795   -1.4930 H   0  0  0  0  0  0  0  0  0  0  0  0
   -0.5514    1.6226   -1.5874 O   0  0  0  0  0  0  0  0  0  0  0  0
   -0.2278    1.9552   -2.4439 H   0  0  0  0  0  0  0  0  0  0  0  0
   -0.0588    1.5499    1.3289 C   0  0  0  0  0  0  0  0  0  0  0  0
    0.8805    1.7787    2.0801 O   0  0  0  0  0  0  0  0  0  0  0  0
   -1.1090    2.4490    1.2643 N   0  0  0  0  0  0  0  0  0  0  0  0
   -1.7314    2.3395    0.4685 H   0  0  0  0  0  0  0  0  0  0  0  0
   -1.1255    3.7069    1.9996 C   0  0  0  0  0  0  0  0  0  0  0  0
   -0.2933    4.3454    1.6858 H   0  0  0  0  0  0  0  0  0  0  0  0
   -2.0626    4.2403    1.8144 H   0  0  0  0  0  0  0  0  0  0  0  0
   -1.0421    3.5217    3.0756 H   0  0  0  0  0  0  0  0  0  0  0  0
  1  2  1  0  0  0  0
  2  3  1  0  0  0  0
  2  4  1  0  0  0  0
  2  5  1  0  0  0  0
  5  6  2  0  0  0  0
  5  7  1  0  0  0  0
  7  8  1  0  0  0  0
  7  9  1  0  0  0  0
  9 10  1  0  0  0  0
  9 11  1  0  0  0  0
  9 19  1  0  0  0  0
 11 12  1  0  0  0  0
 11 13  1  0  0  0  0
 11 17  1  0  0  0  0
 13 14  1  0  0  0  0
 13 15  1  0  0  0  0
 13 16  1  0  0  0  0
 17 18  1  0  0  0  0
 19 20  2  0  0  0  0
 19 21  1  0  0  0  0
 21 22  1  0  0  0  0
 21 23  1  0  0  0  0
 23 24  1  0  0  0  0
 23 25  1  0  0  0  0
 23 26  1  0  0  0  0
M  END
$$$$

  -OEChem-01062216093D

 26 25  0     1  0  0  0  0  0999 V2000
   -3.0010   -3.2108    1.2384 H   0  0  0  0  0  0  0  0  0  0  0  0
   -2.9448   -2.2703    0.6828 C   0  0  0  0  0  0  0  0  0  0  0  0
   -3.7727   -1.6287    0.9936 H   0  0  0  0  0  0  0  0  0  0  0  0
   -3.0394   -2.4865   -0.3840 H   0  0  0  0  0  0  0  0  0  0  0  0
   -1.6220   -1.5803    0.9584 C   0  0  0  0  0  0  0  0  0  0  0  0
   -0.8180   -2.0938    1.7172 O   0  0  0  0  0  0  0  0  0  0  0  0
   -1.3351   -0.3825    0.3373 N   0  0  0  0  0  0  0  0  0  0  0  0
   -1.9871   -0.0582   -0.3718 H   0  0  0  0  0  0  0  0  0  0  0  0
   -0.0358    0.3149    0.4170 C   0  0  1  0  0  0  0  0  0  0  0  0
    0.7246   -0.3662    0.8137 H   0  0  0  0  0  0  0  0  0  0  0  0
    0.4009    0.7295   -0.9983 C   0  0  1  0  0  0  0  0  0  0  0  0
    1.3643    1.2468   -0.9207 H   0  0  0  0  0  0  0  0  0  0  0  0
    0.5745   -0.4707   -1.9300 C   0  0  0  0  0  0  0  0  0  0  0  0
   -0.3811   -0.9733   -2.1056 H   0  0  0  0  0  0  0  0  0  0  0  0
    0.9772   -0.1450   -2.8934 H   0  0  0  0  0  0  0  0  0  0  0  0
    1.2715   -1.1916   -1.4914 H   0  0  0  0  0  0  0  0  0  0  0  0
   -0.5650    1.6210   -1.5687 O   0  0  0  0  0  0  0  0  0  0  0  0
   -0.2246    1.9975   -2.3997 H   0  0  0  0  0  0  0  0  0  0  0  0
   -0.0390    1.5489    1.3376 C   0  0  0  0  0  0  0  0  0  0  0  0
    1.0080    1.9296    1.8464 O   0  0  0  0  0  0  0  0  0  0  0  0
   -1.1884    2.2981    1.5191 N   0  0  0  0  0  0  0  0  0  0  0  0
   -1.9976    2.0276    0.9699 H   0  0  0  0  0  0  0  0  0  0  0  0
   -1.2242    3.5461    2.2703 C   0  0  0  0  0  0  0  0  0  0  0  0
   -0.5711    4.2919    1.8054 H   0  0  0  0  0  0  0  0  0  0  0  0
   -2.2432    3.9438    2.2942 H   0  0  0  0  0  0  0  0  0  0  0  0
   -0.8939    3.3816    3.3013 H   0  0  0  0  0  0  0  0  0  0  0  0
  1  2  1  0  0  0  0
  2  3  1  0  0  0  0
  2  4  1  0  0  0  0
  2  5  1  0  0  0  0
  5  6  2  0  0  0  0
  5  7  1  0  0  0  0
  7  8  1  0  0  0  0
  7  9  1  0  0  0  0
  9 10  1  0  0  0  0
  9 11  1  0  0  0  0
  9 19  1  0  0  0  0
 11 12  1  0  0  0  0
 11 13  1  0  0  0  0
 11 17  1  0  0  0  0
 13 14  1  0  0  0  0
 13 15  1  0  0  0  0
 13 16  1  0  0  0  0
 17 18  1  0  0  0  0
 19 20  2  0  0  0  0
 19 21  1  0  0  0  0
 21 22  1  0  0  0  0
 21 23  1  0  0  0  0
 23 24  1  0  0  0  0
 23 25  1  0  0  0  0
 23 26  1  0  0  0  0
M  END
$$$$

  -OEChem-01062216093D

 26 25  0     1  0  0  0  0  0999 V2000
   -2.9769   -3.2081    1.2083 H   0  0  0  0  0  0  0  0  0  0  0  0
   -2.9337   -2.2560    0.6715 C   0  0  0  0  0  0  0  0  0  0  0  0
   -3.7716   -1.6324    0.9920 H   0  0  0  0  0  0  0  0  0  0  0  0
   -3.0223   -2.4528   -0.3997 H   0  0  0  0  0  0  0  0  0  0  0  0
   -1.6225   -1.5514    0.9639 C   0  0  0  0  0  0  0  0  0  0  0  0
   -0.8357   -2.0374    1.7578 O   0  0  0  0  0  0  0  0  0  0  0  0
   -1.3313   -0.3615    0.3305 N   0  0  0  0  0  0  0  0  0  0  0  0
   -1.9692   -0.0525   -0.3991 H   0  0  0  0  0  0  0  0  0  0  0  0
   -0.0276    0.3292    0.4009 C   0  0  1  0  0  0  0  0  0  0  0  0
    0.7298   -0.3508    0.8050 H   0  0  0  0  0  0  0  0  0  0  0  0
    0.4050    0.7197   -1.0236 C   0  0  1  0  0  0  0  0  0  0  0  0
    1.3714    1.2330   -0.9605 H   0  0  0  0  0  0  0  0  0  0  0  0
    0.5671   -0.4952   -1.9390 C   0  0  0  0  0  0  0  0  0  0  0  0
   -0.3926   -0.9934   -2.1044 H   0  0  0  0  0  0  0  0  0  0  0  0
    0.9684   -0.1859   -2.9085 H   0  0  0  0  0  0  0  0  0  0  0  0
    1.2607   -1.2150   -1.4933 H   0  0  0  0  0  0  0  0  0  0  0  0
   -0.5598    1.6073   -1.6007 O   0  0  0  0  0  0  0  0  0  0  0  0
   -0.2097    1.9982   -2.4207 H   0  0  0  0  0  0  0  0  0  0  0  0
   -0.0224    1.5721    1.3103 C   0  0  0  0  0  0  0  0  0  0  0  0
    1.0404    2.0979    1.6181 O   0  0  0  0  0  0  0  0  0  0  0  0
   -1.2078    2.1467    1.7344 N   0  0  0  0  0  0  0  0  0  0  0  0
   -2.0651    1.6728    1.4699 H   0  0  0  0  0  0  0  0  0  0  0  0
   -1.2758    3.3241    2.5896 C   0  0  0  0  0  0  0  0  0  0  0  0
   -0.7612    4.1689    2.1200 H   0  0  0  0  0  0  0  0  0  0  0  0
   -2.3189    3.6074    2.7601 H   0  0  0  0  0  0  0  0  0  0  0  0
   -0.8083    3.1203    3.5586 H   0  0  0  0  0  0  0  0  0  0  0  0
  1  2  1  0  0  0  0
  2  3  1  0  0  0  0
  2  4  1  0  0  0  0
  2  5  1  0  0  0  0
  5  6  2  0  0  0  0
  5  7  1  0  0  0  0
  7  8  1  0  0  0  0
  7  9  1  0  0  0  0
  9 10  1  0  0  0  0
  9 11  1  0  0  0  0
  9 19  1  0  0  0  0
 11 12  1  0  0  0  0
 11 13  1  0  0  0  0
 11 17  1  0  0  0  0
 13 14  1  0  0  0  0
 13 15  1  0  0  0  0
 13 16  1  0  0  0  0
 17 18  1  0  0  0  0
 19 20  2  0  0  0  0
 19 21  1  0  0  0  0
 21 22  1  0  0  0  0
 21 23  1  0  0  0  0
 23 24  1  0  0  0  0
 23 25  1  0  0  0  0
 23 26  1  0  0  0  0
M  END
$$$$

  -OEChem-01062216093D

 26 25  0     1  0  0  0  0  0999 V2000
   -2.9774   -3.1975    1.2004 H   0  0  0  0  0  0  0  0  0  0  0  0
   -2.9342   -2.2461    0.6625 C   0  0  0  0  0  0  0  0  0  0  0  0
   -3.7739   -1.6235    0.9803 H   0  0  0  0  0  0  0  0  0  0  0  0
   -3.0202   -2.4445   -0.4085 H   0  0  0  0  0  0  0  0  0  0  0  0
   -1.6244   -1.5398    0.9572 C   0  0  0  0  0  0  0  0  0  0  0  0
   -0.8456   -2.0147    1.7657 O   0  0  0  0  0  0  0  0  0  0  0  0
   -1.3298   -0.3515    0.3232 N   0  0  0  0  0  0  0  0  0  0  0  0
   -1.9693   -0.0356   -0.4028 H   0  0  0  0  0  0  0  0  0  0  0  0
   -0.0254    0.3384    0.3930 C   0  0  1  0  0  0  0  0  0  0  0  0
    0.7305   -0.3404    0.8011 H   0  0  0  0  0  0  0  0  0  0  0  0
    0.4061    0.7168   -1.0366 C   0  0  1  0  0  0  0  0  0  0  0  0
    1.3729    1.2302   -0.9811 H   0  0  0  0  0  0  0  0  0  0  0  0
    0.5680   -0.5046   -1.9432 C   0  0  0  0  0  0  0  0  0  0  0  0
   -0.3908   -1.0063   -2.1027 H   0  0  0  0  0  0  0  0  0  0  0  0
    0.9660   -0.2008   -2.9157 H   0  0  0  0  0  0  0  0  0  0  0  0
    1.2645   -1.2195   -1.4942 H   0  0  0  0  0  0  0  0  0  0  0  0
   -0.5600    1.5997   -1.6181 O   0  0  0  0  0  0  0  0  0  0  0  0
   -0.2025    2.0033   -2.4284 H   0  0  0  0  0  0  0  0  0  0  0  0
   -0.0217    1.5836    1.3018 C   0  0  0  0  0  0  0  0  0  0  0  0
    1.0003    2.2469    1.4342 O   0  0  0  0  0  0  0  0  0  0  0  0
   -1.1694    1.9735    1.9696 N   0  0  0  0  0  0  0  0  0  0  0  0
   -1.9684    1.3516    1.8981 H   0  0  0  0  0  0  0  0  0  0  0  0
   -1.2235    3.1014    2.8901 C   0  0  0  0  0  0  0  0  0  0  0  0
   -0.9244    4.0244    2.3825 H   0  0  0  0  0  0  0  0  0  0  0  0
   -2.2416    3.2312    3.2693 H   0  0  0  0  0  0  0  0  0  0  0  0
   -0.5548    2.9332    3.7407 H   0  0  0  0  0  0  0  0  0  0  0  0
  1  2  1  0  0  0  0
  2  3  1  0  0  0  0
  2  4  1  0  0  0  0
  2  5  1  0  0  0  0
  5  6  2  0  0  0  0
  5  7  1  0  0  0  0
  7  8  1  0  0  0  0
  7  9  1  0  0  0  0
  9 10  1  0  0  0  0
  9 11  1  0  0  0  0
  9 19  1  0  0  0  0
 11 12  1  0  0  0  0
 11 13  1  0  0  0  0
 11 17  1  0  0  0  0
 13 14  1  0  0  0  0
 13 15  1  0  0  0  0
 13 16  1  0  0  0  0
 17 18  1  0  0  0  0
 19 20  2  0  0  0  0
 19 21  1  0  0  0  0
 21 22  1  0  0  0  0
 21 23  1  0  0  0  0
 23 24  1  0  0  0  0
 23 25  1  0  0  0  0
 23 26  1  0  0  0  0
M  END
$$$$

  -OEChem-01062216093D

 26 25  0     1  0  0  0  0  0999 V2000
   -2.9795   -3.1820    1.1956 H   0  0  0  0  0  0  0  0  0  0  0  0
   -2.9313   -2.2348    0.6508 C   0  0  0  0  0  0  0  0  0  0  0  0
   -3.7756   -1.6108    0.9532 H   0  0  0  0  0  0  0  0  0  0  0  0
   -3.0043   -2.4417   -0.4196 H   0  0  0  0  0  0  0  0  0  0  0  0
   -1.6262   -1.5239    0.9545 C   0  0  0  0  0  0  0  0  0  0  0  0
   -0.8574   -1.9851    1.7803 O   0  0  0  0  0  0  0  0  0  0  0  0
   -1.3287   -0.3366    0.3214 N   0  0  0  0  0  0  0  0  0  0  0  0
   -1.9717   -0.0135   -0.3984 H   0  0  0  0  0  0  0  0  0  0  0  0
   -0.0236    0.3517    0.3877 C   0  0  1  0  0  0  0  0  0  0  0  0
    0.7318   -0.3257    0.7983 H   0  0  0  0  0  0  0  0  0  0  0  0
    0.4040    0.7145   -1.0483 C   0  0  1  0  0  0  0  0  0  0  0  0
    1.3722    1.2262   -1.0026 H   0  0  0  0  0  0  0  0  0  0  0  0
    0.5612   -0.5162   -1.9434 C   0  0  0  0  0  0  0  0  0  0  0  0
   -0.4003   -1.0139   -2.0996 H   0  0  0  0  0  0  0  0  0  0  0  0
    0.9619   -0.2234   -2.9182 H   0  0  0  0  0  0  0  0  0  0  0  0
    1.2537   -1.2302   -1.4869 H   0  0  0  0  0  0  0  0  0  0  0  0
   -0.5635    1.5921   -1.6360 O   0  0  0  0  0  0  0  0  0  0  0  0
   -0.1968    2.0125   -2.4335 H   0  0  0  0  0  0  0  0  0  0  0  0
   -0.0232    1.5967    1.2988 C   0  0  0  0  0  0  0  0  0  0  0  0
    0.9077    2.3939    1.2727 O   0  0  0  0  0  0  0  0  0  0  0  0
   -1.0575    1.8029    2.1944 N   0  0  0  0  0  0  0  0  0  0  0  0
   -1.7367    1.0523    2.2763 H   0  0  0  0  0  0  0  0  0  0  0  0
   -1.0787    2.8891    3.1653 C   0  0  0  0  0  0  0  0  0  0  0  0
   -1.0162    3.8576    2.6580 H   0  0  0  0  0  0  0  0  0  0  0  0
   -2.0083    2.8619    3.7418 H   0  0  0  0  0  0  0  0  0  0  0  0
   -0.2363    2.7989    3.8589 H   0  0  0  0  0  0  0  0  0  0  0  0
  1  2  1  0  0  0  0
  2  3  1  0  0  0  0
  2  4  1  0  0  0  0
  2  5  1  0  0  0  0
  5  6  2  0  0  0  0
  5  7  1  0  0  0  0
  7  8  1  0  0  0  0
  7  9  1  0  0  0  0
  9 10  1  0  0  0  0
  9 11  1  0  0  0  0
  9 19  1  0  0  0  0
 11 12  1  0  0  0  0
 11 13  1  0  0  0  0
 11 17  1  0  0  0  0
 13 14  1  0  0  0  0
 13 15  1  0  0  0  0
 13 16  1  0  0  0  0
 17 18  1  0  0  0  0
 19 20  2  0  0  0  0
 19 21  1  0  0  0  0
 21 22  1  0  0  0  0
 21 23  1  0  0  0  0
 23 24  1  0  0  0  0
 23 25  1  0  0  0  0
 23 26  1  0  0  0  0
M  END
$$$$

  -OEChem-01062216093D

 26 25  0     1  0  0  0  0  0999 V2000
   -2.9843   -3.1583    1.2099 H   0  0  0  0  0  0  0  0  0  0  0  0
   -2.9293   -2.2209    0.6490 C   0  0  0  0  0  0  0  0  0  0  0  0
   -3.7786   -1.5925    0.9279 H   0  0  0  0  0  0  0  0  0  0  0  0
   -2.9865   -2.4469   -0.4186 H   0  0  0  0  0  0  0  0  0  0  0  0
   -1.6296   -1.5025    0.9581 C   0  0  0  0  0  0  0  0  0  0  0  0
   -0.8701   -1.9449    1.8032 O   0  0  0  0  0  0  0  0  0  0  0  0
   -1.3314   -0.3173    0.3232 N   0  0  0  0  0  0  0  0  0  0  0  0
   -1.9755    0.0057   -0.3959 H   0  0  0  0  0  0  0  0  0  0  0  0
   -0.0244    0.3666    0.3809 C   0  0  1  0  0  0  0  0  0  0  0  0
    0.7307   -0.3101    0.7933 H   0  0  0  0  0  0  0  0  0  0  0  0
    0.4007    0.7130   -1.0608 C   0  0  1  0  0  0  0  0  0  0  0  0
    1.3700    1.2227   -1.0212 H   0  0  0  0  0  0  0  0  0  0  0  0
    0.5551   -0.5269   -1.9435 C   0  0  0  0  0  0  0  0  0  0  0  0
   -0.4078   -1.0231   -2.0960 H   0  0  0  0  0  0  0  0  0  0  0  0
    0.9578   -0.2439   -2.9203 H   0  0  0  0  0  0  0  0  0  0  0  0
    1.2449   -1.2387   -1.4799 H   0  0  0  0  0  0  0  0  0  0  0  0
   -0.5648    1.5872   -1.6564 O   0  0  0  0  0  0  0  0  0  0  0  0
   -0.1812    2.0369   -2.4295 H   0  0  0  0  0  0  0  0  0  0  0  0
   -0.0292    1.6098    1.2956 C   0  0  0  0  0  0  0  0  0  0  0  0
    0.7617    2.5321    1.1301 O   0  0  0  0  0  0  0  0  0  0  0  0
   -0.8793    1.6448    2.3867 N   0  0  0  0  0  0  0  0  0  0  0  0
   -1.3944    0.7892    2.5784 H   0  0  0  0  0  0  0  0  0  0  0  0
   -0.8537    2.6963    3.3952 C   0  0  0  0  0  0  0  0  0  0  0  0
   -1.0273    3.6742    2.9341 H   0  0  0  0  0  0  0  0  0  0  0  0
   -1.6361    2.5234    4.1402 H   0  0  0  0  0  0  0  0  0  0  0  0
    0.1146    2.7138    3.9058 H   0  0  0  0  0  0  0  0  0  0  0  0
  1  2  1  0  0  0  0
  2  3  1  0  0  0  0
  2  4  1  0  0  0  0
  2  5  1  0  0  0  0
  5  6  2  0  0  0  0
  5  7  1  0  0  0  0
  7  8  1  0  0  0  0
  7  9  1  0  0  0  0
  9 10  1  0  0  0  0
  9 11  1  0  0  0  0
  9 19  1  0  0  0  0
 11 12  1  0  0  0  0
 11 13  1  0  0  0  0
 11 17  1  0  0  0  0
 13 14  1  0  0  0  0
 13 15  1  0  0  0  0
 13 16  1  0  0  0  0
 17 18  1  0  0  0  0
 19 20  2  0  0  0  0
 19 21  1  0  0  0  0
 21 22  1  0  0  0  0
 21 23  1  0  0  0  0
 23 24  1  0  0  0  0
 23 25  1  0  0  0  0
 23 26  1  0  0  0  0
M  END
$$$$

  -OEChem-01062216093D

 26 25  0     1  0  0  0  0  0999 V2000
   -2.9756   -3.1423    1.2177 H   0  0  0  0  0  0  0  0  0  0  0  0
   -2.9276   -2.2023    0.6608 C   0  0  0  0  0  0  0  0  0  0  0  0
   -3.7783   -1.5789    0.9469 H   0  0  0  0  0  0  0  0  0  0  0  0
   -2.9893   -2.4232   -0.4075 H   0  0  0  0  0  0  0  0  0  0  0  0
   -1.6294   -1.4803    0.9667 C   0  0  0  0  0  0  0  0  0  0  0  0
   -0.8738   -1.9089    1.8234 O   0  0  0  0  0  0  0  0  0  0  0  0
   -1.3315   -0.2971    0.3285 N   0  0  0  0  0  0  0  0  0  0  0  0
   -1.9763    0.0263   -0.3899 H   0  0  0  0  0  0  0  0  0  0  0  0
   -0.0203    0.3765    0.3770 C   0  0  1  0  0  0  0  0  0  0  0  0
    0.7334   -0.3029    0.7875 H   0  0  0  0  0  0  0  0  0  0  0  0
    0.4019    0.7097   -1.0693 C   0  0  1  0  0  0  0  0  0  0  0  0
    1.3737    1.2150   -1.0323 H   0  0  0  0  0  0  0  0  0  0  0  0
    0.5486   -0.5359   -1.9453 C   0  0  0  0  0  0  0  0  0  0  0  0
   -0.4153   -1.0343   -2.0842 H   0  0  0  0  0  0  0  0  0  0  0  0
    0.9399   -0.2595   -2.9288 H   0  0  0  0  0  0  0  0  0  0  0  0
    1.2442   -1.2437   -1.4842 H   0  0  0  0  0  0  0  0  0  0  0  0
   -0.5570    1.5864   -1.6717 O   0  0  0  0  0  0  0  0  0  0  0  0
   -0.1548    2.0674   -2.4157 H   0  0  0  0  0  0  0  0  0  0  0  0
   -0.0263    1.6151    1.2965 C   0  0  0  0  0  0  0  0  0  0  0  0
    0.5864    2.6411    1.0217 O   0  0  0  0  0  0  0  0  0  0  0  0
   -0.6307    1.5072    2.5360 N   0  0  0  0  0  0  0  0  0  0  0  0
   -0.9972    0.5887    2.7795 H   0  0  0  0  0  0  0  0  0  0  0  0
   -0.5734    2.5430    3.5588 C   0  0  0  0  0  0  0  0  0  0  0  0
   -0.9991    3.4783    3.1807 H   0  0  0  0  0  0  0  0  0  0  0  0
   -1.1456    2.2350    4.4391 H   0  0  0  0  0  0  0  0  0  0  0  0
    0.4624    2.7243    3.8640 H   0  0  0  0  0  0  0  0  0  0  0  0
  1  2  1  0  0  0  0
  2  3  1  0  0  0  0
  2  4  1  0  0  0  0
  2  5  1  0  0  0  0
  5  6  2  0  0  0  0
  5  7  1  0  0  0  0
  7  8  1  0  0  0  0
  7  9  1  0  0  0  0
  9 10  1  0  0  0  0
  9 11  1  0  0  0  0
  9 19  1  0  0  0  0
 11 12  1  0  0  0  0
 11 13  1  0  0  0  0
 11 17  1  0  0  0  0
 13 14  1  0  0  0  0
 13 15  1  0  0  0  0
 13 16  1  0  0  0  0
 17 18  1  0  0  0  0
 19 20  2  0  0  0  0
 19 21  1  0  0  0  0
 21 22  1  0  0  0  0
 21 23  1  0  0  0  0
 23 24  1  0  0  0  0
 23 25  1  0  0  0  0
 23 26  1  0  0  0  0
M  END
$$$$

  -OEChem-01062216093D

 26 25  0     1  0  0  0  0  0999 V2000
   -2.9728   -3.1265    1.2425 H   0  0  0  0  0  0  0  0  0  0  0  0
   -2.9255   -2.1912    0.6775 C   0  0  0  0  0  0  0  0  0  0  0  0
   -3.7728   -1.5626    0.9627 H   0  0  0  0  0  0  0  0  0  0  0  0
   -2.9933   -2.4208   -0.3886 H   0  0  0  0  0  0  0  0  0  0  0  0
   -1.6242   -1.4694    0.9711 C   0  0  0  0  0  0  0  0  0  0  0  0
   -0.8594   -1.8990    1.8202 O   0  0  0  0  0  0  0  0  0  0  0  0
   -1.3314   -0.2859    0.3312 N   0  0  0  0  0  0  0  0  0  0  0  0
   -1.9796    0.0385   -0.3838 H   0  0  0  0  0  0  0  0  0  0  0  0
   -0.0182    0.3807    0.3728 C   0  0  1  0  0  0  0  0  0  0  0  0
    0.7360   -0.3010    0.7779 H   0  0  0  0  0  0  0  0  0  0  0  0
    0.4000    0.7050   -1.0769 C   0  0  1  0  0  0  0  0  0  0  0  0
    1.3726    1.2091   -1.0414 H   0  0  0  0  0  0  0  0  0  0  0  0
    0.5438   -0.5453   -1.9467 C   0  0  0  0  0  0  0  0  0  0  0  0
   -0.4215   -1.0414   -2.0830 H   0  0  0  0  0  0  0  0  0  0  0  0
    0.9352   -0.2741   -2.9315 H   0  0  0  0  0  0  0  0  0  0  0  0
    1.2373   -1.2533   -1.4828 H   0  0  0  0  0  0  0  0  0  0  0  0
   -0.5546    1.5828   -1.6845 O   0  0  0  0  0  0  0  0  0  0  0  0
   -0.1253    2.1340   -2.3617 H   0  0  0  0  0  0  0  0  0  0  0  0
   -0.0209    1.6151    1.2970 C   0  0  0  0  0  0  0  0  0  0  0  0
    0.3835    2.7171    0.9427 O   0  0  0  0  0  0  0  0  0  0  0  0
   -0.3295    1.4142    2.6302 N   0  0  0  0  0  0  0  0  0  0  0  0
   -0.5778    0.4637    2.9025 H   0  0  0  0  0  0  0  0  0  0  0  0
   -0.2465    2.4512    3.6503 C   0  0  0  0  0  0  0  0  0  0  0  0
   -0.9052    3.2890    3.3987 H   0  0  0  0  0  0  0  0  0  0  0  0
   -0.5528    2.0505    4.6215 H   0  0  0  0  0  0  0  0  0  0  0  0
    0.7800    2.8225    3.7369 H   0  0  0  0  0  0  0  0  0  0  0  0
  1  2  1  0  0  0  0
  2  3  1  0  0  0  0
  2  4  1  0  0  0  0
  2  5  1  0  0  0  0
  5  6  2  0  0  0  0
  5  7  1  0  0  0  0
  7  8  1  0  0  0  0
  7  9  1  0  0  0  0
  9 10  1  0  0  0  0
  9 11  1  0  0  0  0
  9 19  1  0  0  0  0
 11 12  1  0  0  0  0
 11 13  1  0  0  0  0
 11 17  1  0  0  0  0
 13 14  1  0  0  0  0
 13 15  1  0  0  0  0
 13 16  1  0  0  0  0
 17 18  1  0  0  0  0
 19 20  2  0  0  0  0
 19 21  1  0  0  0  0
 21 22  1  0  0  0  0
 21 23  1  0  0  0  0
 23 24  1  0  0  0  0
 23 25  1  0  0  0  0
 23 26  1  0  0  0  0
M  END
$$$$

  -OEChem-01062216093D

 26 25  0     1  0  0  0  0  0999 V2000
   -3.0255   -3.0246    1.3247 H   0  0  0  0  0  0  0  0  0  0  0  0
   -2.9293   -2.1326    0.6992 C   0  0  0  0  0  0  0  0  0  0  0  0
   -3.7640   -1.4605    0.9134 H   0  0  0  0  0  0  0  0  0  0  0  0
   -2.9720   -2.4333   -0.3504 H   0  0  0  0  0  0  0  0  0  0  0  0
   -1.6137   -1.4337    0.9846 C   0  0  0  0  0  0  0  0  0  0  0  0
   -0.8635   -1.8581    1.8502 O   0  0  0  0  0  0  0  0  0  0  0  0
   -1.2818   -0.2790    0.3103 N   0  0  0  0  0  0  0  0  0  0  0  0
   -1.9037    0.0214   -0.4380 H   0  0  0  0  0  0  0  0  0  0  0  0
    0.0652    0.3152    0.3271 C   0  0  1  0  0  0  0  0  0  0  0  0
    0.7967   -0.3952    0.7254 H   0  0  0  0  0  0  0  0  0  0  0  0
    0.4872    0.6398   -1.1219 C   0  0  1  0  0  0  0  0  0  0  0  0
    1.4895    1.0821   -1.1005 H   0  0  0  0  0  0  0  0  0  0  0  0
    0.5310   -0.6030   -2.0120 C   0  0  0  0  0  0  0  0  0  0  0  0
   -0.4669   -1.0334   -2.1358 H   0  0  0  0  0  0  0  0  0  0  0  0
    0.9163   -0.3377   -3.0011 H   0  0  0  0  0  0  0  0  0  0  0  0
    1.1885   -1.3611   -1.5763 H   0  0  0  0  0  0  0  0  0  0  0  0
   -0.4241    1.5802   -1.6953 O   0  0  0  0  0  0  0  0  0  0  0  0
   -0.4151    2.3934   -1.1441 H   0  0  0  0  0  0  0  0  0  0  0  0
    0.0955    1.5601    1.2343 C   0  0  0  0  0  0  0  0  0  0  0  0
    0.1097    2.7000    0.7772 O   0  0  0  0  0  0  0  0  0  0  0  0
    0.0889    1.3711    2.6029 N   0  0  0  0  0  0  0  0  0  0  0  0
   -0.0290    0.4120    2.9298 H   0  0  0  0  0  0  0  0  0  0  0  0
    0.0366    2.4603    3.5691 C   0  0  0  0  0  0  0  0  0  0  0  0
   -0.8740    3.0525    3.4307 H   0  0  0  0  0  0  0  0  0  0  0  0
    0.0385    2.0606    4.5877 H   0  0  0  0  0  0  0  0  0  0  0  0
    0.9059    3.1161    3.4544 H   0  0  0  0  0  0  0  0  0  0  0  0
  1  2  1  0  0  0  0
  2  3  1  0  0  0  0
  2  4  1  0  0  0  0
  2  5  1  0  0  0  0
  5  6  2  0  0  0  0
  5  7  1  0  0  0  0
  7  8  1  0  0  0  0
  7  9  1  0  0  0  0
  9 10  1  0  0  0  0
  9 11  1  0  0  0  0
  9 19  1  0  0  0  0
 11 12  1  0  0  0  0
 11 13  1  0  0  0  0
 11 17  1  0  0  0  0
 13 14  1  0  0  0  0
 13 15  1  0  0  0  0
 13 16  1  0  0  0  0
 17 18  1  0  0  0  0
 19 20  2  0  0  0  0
 19 21  1  0  0  0  0
 21 22  1  0  0  0  0
 21 23  1  0  0  0  0
 23 24  1  0  0  0  0
 23 25  1  0  0  0  0
 23 26  1  0  0  0  0
M  END
$$$$

  -OEChem-01062216093D

 26 25  0     1  0  0  0  0  0999 V2000
   -2.9920   -3.0849    1.2745 H   0  0  0  0  0  0  0  0  0  0  0  0
   -2.9464   -2.1343    0.7358 C   0  0  0  0  0  0  0  0  0  0  0  0
   -3.7425   -1.4822    1.1032 H   0  0  0  0  0  0  0  0  0  0  0  0
   -3.1031   -2.3251   -0.3286 H   0  0  0  0  0  0  0  0  0  0  0  0
   -1.5972   -1.4755    0.9511 C   0  0  0  0  0  0  0  0  0  0  0  0
   -0.7758   -1.9849    1.6981 O   0  0  0  0  0  0  0  0  0  0  0  0
   -1.3099   -0.2795    0.3312 N   0  0  0  0  0  0  0  0  0  0  0  0
   -2.0074    0.1154   -0.2963 H   0  0  0  0  0  0  0  0  0  0  0  0
    0.0016    0.3855    0.3611 C   0  0  1  0  0  0  0  0  0  0  0  0
    0.7581   -0.3058    0.7447 H   0  0  0  0  0  0  0  0  0  0  0  0
    0.4178    0.7102   -1.0905 C   0  0  1  0  0  0  0  0  0  0  0  0
    1.3892    1.2152   -1.0494 H   0  0  0  0  0  0  0  0  0  0  0  0
    0.5647   -0.5438   -1.9542 C   0  0  0  0  0  0  0  0  0  0  0  0
   -0.4007   -1.0403   -2.0900 H   0  0  0  0  0  0  0  0  0  0  0  0
    0.9588   -0.2776   -2.9393 H   0  0  0  0  0  0  0  0  0  0  0  0
    1.2568   -1.2499   -1.4852 H   0  0  0  0  0  0  0  0  0  0  0  0
   -0.5239    1.5873   -1.7171 O   0  0  0  0  0  0  0  0  0  0  0  0
   -0.1127    2.0618   -2.4594 H   0  0  0  0  0  0  0  0  0  0  0  0
    0.0221    1.6039    1.3076 C   0  0  0  0  0  0  0  0  0  0  0  0
   -0.1639    2.7553    0.9328 O   0  0  0  0  0  0  0  0  0  0  0  0
    0.3747    1.3866    2.6277 N   0  0  0  0  0  0  0  0  0  0  0  0
    0.4254    0.4157    2.9313 H   0  0  0  0  0  0  0  0  0  0  0  0
    0.4134    2.4411    3.6331 C   0  0  0  0  0  0  0  0  0  0  0  0
   -0.5779    2.8897    3.7555 H   0  0  0  0  0  0  0  0  0  0  0  0
    0.7311    2.0321    4.5969 H   0  0  0  0  0  0  0  0  0  0  0  0
    1.1216    3.2236    3.3409 H   0  0  0  0  0  0  0  0  0  0  0  0
  1  2  1  0  0  0  0
  2  3  1  0  0  0  0
  2  4  1  0  0  0  0
  2  5  1  0  0  0  0
  5  6  2  0  0  0  0
  5  7  1  0  0  0  0
  7  8  1  0  0  0  0
  7  9  1  0  0  0  0
  9 10  1  0  0  0  0
  9 11  1  0  0  0  0
  9 19  1  0  0  0  0
 11 12  1  0  0  0  0
 11 13  1  0  0  0  0
 11 17  1  0  0  0  0
 13 14  1  0  0  0  0
 13 15  1  0  0  0  0
 13 16  1  0  0  0  0
 17 18  1  0  0  0  0
 19 20  2  0  0  0  0
 19 21  1  0  0  0  0
 21 22  1  0  0  0  0
 21 23  1  0  0  0  0
 23 24  1  0  0  0  0
 23 25  1  0  0  0  0
 23 26  1  0  0  0  0
M  END
$$$$

  -OEChem-01062216093D

 26 25  0     1  0  0  0  0  0999 V2000
   -3.0245   -3.0304    1.3473 H   0  0  0  0  0  0  0  0  0  0  0  0
   -2.9687   -2.0825    0.8049 C   0  0  0  0  0  0  0  0  0  0  0  0
   -3.7078   -1.3938    1.2213 H   0  0  0  0  0  0  0  0  0  0  0  0
   -3.2019   -2.2641   -0.2470 H   0  0  0  0  0  0  0  0  0  0  0  0
   -1.5790   -1.4879    0.9311 C   0  0  0  0  0  0  0  0  0  0  0  0
   -0.7238   -2.0609    1.5888 O   0  0  0  0  0  0  0  0  0  0  0  0
   -1.2881   -0.2905    0.3153 N   0  0  0  0  0  0  0  0  0  0  0  0
   -2.0285    0.1744   -0.2060 H   0  0  0  0  0  0  0  0  0  0  0  0
    0.0234    0.3750    0.3376 C   0  0  1  0  0  0  0  0  0  0  0  0
    0.7769   -0.3212    0.7174 H   0  0  0  0  0  0  0  0  0  0  0  0
    0.4538    0.7176   -1.1053 C   0  0  1  0  0  0  0  0  0  0  0  0
    1.4289    1.2144   -1.0521 H   0  0  0  0  0  0  0  0  0  0  0  0
    0.5960   -0.5300   -1.9788 C   0  0  0  0  0  0  0  0  0  0  0  0
   -0.3725   -1.0185   -2.1211 H   0  0  0  0  0  0  0  0  0  0  0  0
    0.9952   -0.2595   -2.9606 H   0  0  0  0  0  0  0  0  0  0  0  0
    1.2811   -1.2446   -1.5127 H   0  0  0  0  0  0  0  0  0  0  0  0
   -0.4748    1.6042   -1.7354 O   0  0  0  0  0  0  0  0  0  0  0  0
   -0.1016    1.9749   -2.5525 H   0  0  0  0  0  0  0  0  0  0  0  0
    0.0465    1.5907    1.2870 C   0  0  0  0  0  0  0  0  0  0  0  0
   -0.5212    2.6446    1.0279 O   0  0  0  0  0  0  0  0  0  0  0  0
    0.6956    1.4695    2.5036 N   0  0  0  0  0  0  0  0  0  0  0  0
    1.0121    0.5380    2.7624 H   0  0  0  0  0  0  0  0  0  0  0  0
    0.6788    2.5093    3.5252 C   0  0  0  0  0  0  0  0  0  0  0  0
   -0.3467    2.7046    3.8558 H   0  0  0  0  0  0  0  0  0  0  0  0
    1.2695    2.1970    4.3918 H   0  0  0  0  0  0  0  0  0  0  0  0
    1.1067    3.4382    3.1337 H   0  0  0  0  0  0  0  0  0  0  0  0
  1  2  1  0  0  0  0
  2  3  1  0  0  0  0
  2  4  1  0  0  0  0
  2  5  1  0  0  0  0
  5  6  2  0  0  0  0
  5  7  1  0  0  0  0
  7  8  1  0  0  0  0
  7  9  1  0  0  0  0
  9 10  1  0  0  0  0
  9 11  1  0  0  0  0
  9 19  1  0  0  0  0
 11 12  1  0  0  0  0
 11 13  1  0  0  0  0
 11 17  1  0  0  0  0
 13 14  1  0  0  0  0
 13 15  1  0  0  0  0
 13 16  1  0  0  0  0
 17 18  1  0  0  0  0
 19 20  2  0  0  0  0
 19 21  1  0  0  0  0
 21 22  1  0  0  0  0
 21 23  1  0  0  0  0
 23 24  1  0  0  0  0
 23 25  1  0  0  0  0
 23 26  1  0  0  0  0
M  END
$$$$

  -OEChem-01062216093D

 26 25  0     1  0  0  0  0  0999 V2000
   -3.0458   -2.9707    1.4337 H   0  0  0  0  0  0  0  0  0  0  0  0
   -2.9840   -2.0272    0.8844 C   0  0  0  0  0  0  0  0  0  0  0  0
   -3.6565   -1.3033    1.3509 H   0  0  0  0  0  0  0  0  0  0  0  0
   -3.3019   -2.1979   -0.1469 H   0  0  0  0  0  0  0  0  0  0  0  0
   -1.5616   -1.5007    0.9063 C   0  0  0  0  0  0  0  0  0  0  0  0
   -0.6853   -2.1285    1.4810 O   0  0  0  0  0  0  0  0  0  0  0  0
   -1.2651   -0.3093    0.2814 N   0  0  0  0  0  0  0  0  0  0  0  0
   -2.0353    0.2242   -0.1167 H   0  0  0  0  0  0  0  0  0  0  0  0
    0.0478    0.3545    0.3061 C   0  0  1  0  0  0  0  0  0  0  0  0
    0.7971   -0.3411    0.6950 H   0  0  0  0  0  0  0  0  0  0  0  0
    0.4939    0.7175   -1.1251 C   0  0  1  0  0  0  0  0  0  0  0  0
    1.4727    1.2053   -1.0602 H   0  0  0  0  0  0  0  0  0  0  0  0
    0.6296   -0.5212   -2.0119 C   0  0  0  0  0  0  0  0  0  0  0  0
   -0.3427   -0.9999   -2.1630 H   0  0  0  0  0  0  0  0  0  0  0  0
    1.0354   -0.2438   -2.9890 H   0  0  0  0  0  0  0  0  0  0  0  0
    1.3060   -1.2473   -1.5508 H   0  0  0  0  0  0  0  0  0  0  0  0
   -0.4268    1.6173   -1.7470 O   0  0  0  0  0  0  0  0  0  0  0  0
   -0.0845    1.9305   -2.6010 H   0  0  0  0  0  0  0  0  0  0  0  0
    0.0543    1.5763    1.2464 C   0  0  0  0  0  0  0  0  0  0  0  0
   -0.7851    2.4643    1.1516 O   0  0  0  0  0  0  0  0  0  0  0  0
    0.9319    1.6049    2.3171 N   0  0  0  0  0  0  0  0  0  0  0  0
    1.4901    0.7709    2.4780 H   0  0  0  0  0  0  0  0  0  0  0  0
    0.8846    2.6229    3.3599 C   0  0  0  0  0  0  0  0  0  0  0  0
   -0.0659    2.5726    3.9012 H   0  0  0  0  0  0  0  0  0  0  0  0
    1.6995    2.4700    4.0739 H   0  0  0  0  0  0  0  0  0  0  0  0
    0.9909    3.6226    2.9258 H   0  0  0  0  0  0  0  0  0  0  0  0
  1  2  1  0  0  0  0
  2  3  1  0  0  0  0
  2  4  1  0  0  0  0
  2  5  1  0  0  0  0
  5  6  2  0  0  0  0
  5  7  1  0  0  0  0
  7  8  1  0  0  0  0
  7  9  1  0  0  0  0
  9 10  1  0  0  0  0
  9 11  1  0  0  0  0
  9 19  1  0  0  0  0
 11 12  1  0  0  0  0
 11 13  1  0  0  0  0
 11 17  1  0  0  0  0
 13 14  1  0  0  0  0
 13 15  1  0  0  0  0
 13 16  1  0  0  0  0
 17 18  1  0  0  0  0
 19 20  2  0  0  0  0
 19 21  1  0  0  0  0
 21 22  1  0  0  0  0
 21 23  1  0  0  0  0
 23 24  1  0  0  0  0
 23 25  1  0  0  0  0
 23 26  1  0  0  0  0
M  END
$$$$

  -OEChem-01062216093D

 26 25  0     1  0  0  0  0  0999 V2000
   -3.0538   -2.9434    1.4938 H   0  0  0  0  0  0  0  0  0  0  0  0
   -2.9921   -2.0059    0.9340 C   0  0  0  0  0  0  0  0  0  0  0  0
   -3.6184   -1.2590    1.4281 H   0  0  0  0  0  0  0  0  0  0  0  0
   -3.3670   -2.1737   -0.0785 H   0  0  0  0  0  0  0  0  0  0  0  0
   -1.5557   -1.5213    0.8811 C   0  0  0  0  0  0  0  0  0  0  0  0
   -0.6697   -2.1796    1.4044 O   0  0  0  0  0  0  0  0  0  0  0  0
   -1.2595   -0.3337    0.2488 N   0  0  0  0  0  0  0  0  0  0  0  0
   -2.0419    0.2364   -0.0664 H   0  0  0  0  0  0  0  0  0  0  0  0
    0.0520    0.3342    0.2891 C   0  0  1  0  0  0  0  0  0  0  0  0
    0.7996   -0.3562    0.6907 H   0  0  0  0  0  0  0  0  0  0  0  0
    0.5132    0.7171   -1.1310 C   0  0  1  0  0  0  0  0  0  0  0  0
    1.4911    1.2050   -1.0523 H   0  0  0  0  0  0  0  0  0  0  0  0
    0.6561   -0.5089   -2.0339 C   0  0  0  0  0  0  0  0  0  0  0  0
   -0.3155   -0.9836   -2.2014 H   0  0  0  0  0  0  0  0  0  0  0  0
    1.0724   -0.2189   -3.0030 H   0  0  0  0  0  0  0  0  0  0  0  0
    1.3265   -1.2426   -1.5761 H   0  0  0  0  0  0  0  0  0  0  0  0
   -0.4066    1.6236   -1.7441 O   0  0  0  0  0  0  0  0  0  0  0  0
   -0.0819    1.9146   -2.6127 H   0  0  0  0  0  0  0  0  0  0  0  0
    0.0368    1.5628    1.2201 C   0  0  0  0  0  0  0  0  0  0  0  0
   -0.9456    2.2941    1.2887 O   0  0  0  0  0  0  0  0  0  0  0  0
    1.0802    1.7638    2.1078 N   0  0  0  0  0  0  0  0  0  0  0  0
    1.8062    1.0540    2.1412 H   0  0  0  0  0  0  0  0  0  0  0  0
    1.0640    2.7957    3.1377 C   0  0  0  0  0  0  0  0  0  0  0  0
    0.2351    2.6288    3.8335 H   0  0  0  0  0  0  0  0  0  0  0  0
    2.0005    2.7794    3.7033 H   0  0  0  0  0  0  0  0  0  0  0  0
    0.9513    3.7869    2.6858 H   0  0  0  0  0  0  0  0  0  0  0  0
  1  2  1  0  0  0  0
  2  3  1  0  0  0  0
  2  4  1  0  0  0  0
  2  5  1  0  0  0  0
  5  6  2  0  0  0  0
  5  7  1  0  0  0  0
  7  8  1  0  0  0  0
  7  9  1  0  0  0  0
  9 10  1  0  0  0  0
  9 11  1  0  0  0  0
  9 19  1  0  0  0  0
 11 12  1  0  0  0  0
 11 13  1  0  0  0  0
 11 17  1  0  0  0  0
 13 14  1  0  0  0  0
 13 15  1  0  0  0  0
 13 16  1  0  0  0  0
 17 18  1  0  0  0  0
 19 20  2  0  0  0  0
 19 21  1  0  0  0  0
 21 22  1  0  0  0  0
 21 23  1  0  0  0  0
 23 24  1  0  0  0  0
 23 25  1  0  0  0  0
 23 26  1  0  0  0  0
M  END
$$$$

  -OEChem-01062216093D

 26 25  0     1  0  0  0  0  0999 V2000
   -3.0583   -2.9445    1.5044 H   0  0  0  0  0  0  0  0  0  0  0  0
   -2.9986   -2.0040    0.9499 C   0  0  0  0  0  0  0  0  0  0  0  0
   -3.6018   -1.2527    1.4654 H   0  0  0  0  0  0  0  0  0  0  0  0
   -3.4018   -2.1593   -0.0536 H   0  0  0  0  0  0  0  0  0  0  0  0
   -1.5575   -1.5382    0.8631 C   0  0  0  0  0  0  0  0  0  0  0  0
   -0.6676   -2.2142    1.3566 O   0  0  0  0  0  0  0  0  0  0  0  0
   -1.2618   -0.3520    0.2274 N   0  0  0  0  0  0  0  0  0  0  0  0
   -2.0494    0.2366   -0.0364 H   0  0  0  0  0  0  0  0  0  0  0  0
    0.0485    0.3198    0.2861 C   0  0  1  0  0  0  0  0  0  0  0  0
    0.7945   -0.3662    0.6978 H   0  0  0  0  0  0  0  0  0  0  0  0
    0.5191    0.7161   -1.1269 C   0  0  1  0  0  0  0  0  0  0  0  0
    1.4953    1.2056   -1.0402 H   0  0  0  0  0  0  0  0  0  0  0  0
    0.6698   -0.5017   -2.0394 C   0  0  0  0  0  0  0  0  0  0  0  0
   -0.3007   -0.9728   -2.2231 H   0  0  0  0  0  0  0  0  0  0  0  0
    1.0988   -0.2037   -3.0005 H   0  0  0  0  0  0  0  0  0  0  0  0
    1.3328   -1.2413   -1.5800 H   0  0  0  0  0  0  0  0  0  0  0  0
   -0.4023    1.6255   -1.7340 O   0  0  0  0  0  0  0  0  0  0  0  0
   -0.0921    1.8986   -2.6139 H   0  0  0  0  0  0  0  0  0  0  0  0
    0.0197    1.5534    1.2105 C   0  0  0  0  0  0  0  0  0  0  0  0
   -1.0305    2.1438    1.4433 O   0  0  0  0  0  0  0  0  0  0  0  0
    1.1667    1.9389    1.8839 N   0  0  0  0  0  0  0  0  0  0  0  0
    1.9948    1.3623    1.7689 H   0  0  0  0  0  0  0  0  0  0  0  0
    1.1886    3.0075    2.8755 C   0  0  0  0  0  0  0  0  0  0  0  0
    0.5263    2.7662    3.7135 H   0  0  0  0  0  0  0  0  0  0  0  0
    2.2027    3.1427    3.2637 H   0  0  0  0  0  0  0  0  0  0  0  0
    0.8617    3.9523    2.4286 H   0  0  0  0  0  0  0  0  0  0  0  0
  1  2  1  0  0  0  0
  2  3  1  0  0  0  0
  2  4  1  0  0  0  0
  2  5  1  0  0  0  0
  5  6  2  0  0  0  0
  5  7  1  0  0  0  0
  7  8  1  0  0  0  0
  7  9  1  0  0  0  0
  9 10  1  0  0  0  0
  9 11  1  0  0  0  0
  9 19  1  0  0  0  0
 11 12  1  0  0  0  0
 11 13  1  0  0  0  0
 11 17  1  0  0  0  0
 13 14  1  0  0  0  0
 13 15  1  0  0  0  0
 13 16  1  0  0  0  0
 17 18  1  0  0  0  0
 19 20  2  0  0  0  0
 19 21  1  0  0  0  0
 21 22  1  0  0  0  0
 21 23  1  0  0  0  0
 23 24  1  0  0  0  0
 23 25  1  0  0  0  0
 23 26  1  0  0  0  0
M  END
$$$$

  -OEChem-01062216093D

 26 25  0     1  0  0  0  0  0999 V2000
   -3.0625   -2.9468    1.5037 H   0  0  0  0  0  0  0  0  0  0  0  0
   -3.0012   -2.0052    0.9510 C   0  0  0  0  0  0  0  0  0  0  0  0
   -3.5906   -1.2496    1.4765 H   0  0  0  0  0  0  0  0  0  0  0  0
   -3.4184   -2.1538   -0.0478 H   0  0  0  0  0  0  0  0  0  0  0  0
   -1.5574   -1.5523    0.8463 C   0  0  0  0  0  0  0  0  0  0  0  0
   -0.6658   -2.2444    1.3137 O   0  0  0  0  0  0  0  0  0  0  0  0
   -1.2622   -0.3643    0.2138 N   0  0  0  0  0  0  0  0  0  0  0  0
   -2.0520    0.2321   -0.0236 H   0  0  0  0  0  0  0  0  0  0  0  0
    0.0465    0.3095    0.2914 C   0  0  1  0  0  0  0  0  0  0  0  0
    0.7929   -0.3732    0.7082 H   0  0  0  0  0  0  0  0  0  0  0  0
    0.5190    0.7139   -1.1189 C   0  0  1  0  0  0  0  0  0  0  0  0
    1.4942    1.2047   -1.0318 H   0  0  0  0  0  0  0  0  0  0  0  0
    0.6730   -0.4989   -2.0377 C   0  0  0  0  0  0  0  0  0  0  0  0
   -0.2963   -0.9706   -2.2261 H   0  0  0  0  0  0  0  0  0  0  0  0
    1.1037   -0.1960   -2.9964 H   0  0  0  0  0  0  0  0  0  0  0  0
    1.3357   -1.2400   -1.5805 H   0  0  0  0  0  0  0  0  0  0  0  0
   -0.4060    1.6239   -1.7200 O   0  0  0  0  0  0  0  0  0  0  0  0
   -0.1104    1.8812   -2.6099 H   0  0  0  0  0  0  0  0  0  0  0  0
    0.0073    1.5433    1.2169 C   0  0  0  0  0  0  0  0  0  0  0  0
   -1.0595    1.9960    1.6215 O   0  0  0  0  0  0  0  0  0  0  0  0
    1.1874    2.1170    1.6601 N   0  0  0  0  0  0  0  0  0  0  0  0
    2.0597    1.6844    1.3725 H   0  0  0  0  0  0  0  0  0  0  0  0
    1.2312    3.2359    2.5934 C   0  0  0  0  0  0  0  0  0  0  0  0
    0.7554    2.9628    3.5412 H   0  0  0  0  0  0  0  0  0  0  0  0
    2.2685    3.5192    2.7960 H   0  0  0  0  0  0  0  0  0  0  0  0
    0.7116    4.1041    2.1747 H   0  0  0  0  0  0  0  0  0  0  0  0
  1  2  1  0  0  0  0
  2  3  1  0  0  0  0
  2  4  1  0  0  0  0
  2  5  1  0  0  0  0
  5  6  2  0  0  0  0
  5  7  1  0  0  0  0
  7  8  1  0  0  0  0
  7  9  1  0  0  0  0
  9 10  1  0  0  0  0
  9 11  1  0  0  0  0
  9 19  1  0  0  0  0
 11 12  1  0  0  0  0
 11 13  1  0  0  0  0
 11 17  1  0  0  0  0
 13 14  1  0  0  0  0
 13 15  1  0  0  0  0
 13 16  1  0  0  0  0
 17 18  1  0  0  0  0
 19 20  2  0  0  0  0
 19 21  1  0  0  0  0
 21 22  1  0  0  0  0
 21 23  1  0  0  0  0
 23 24  1  0  0  0  0
 23 25  1  0  0  0  0
 23 26  1  0  0  0  0
M  END
$$$$

  -OEChem-01062216093D

 26 25  0     1  0  0  0  0  0999 V2000
   -3.0208   -2.9417    1.5316 H   0  0  0  0  0  0  0  0  0  0  0  0
   -2.9806   -1.9858    1.0020 C   0  0  0  0  0  0  0  0  0  0  0  0
   -3.5157   -1.2355    1.5896 H   0  0  0  0  0  0  0  0  0  0  0  0
   -3.4706   -2.0981    0.0321 H   0  0  0  0  0  0  0  0  0  0  0  0
   -1.5391   -1.5550    0.8082 C   0  0  0  0  0  0  0  0  0  0  0  0
   -0.6300   -2.2737    1.1952 O   0  0  0  0  0  0  0  0  0  0  0  0
   -1.2647   -0.3608    0.1767 N   0  0  0  0  0  0  0  0  0  0  0  0
   -2.0609    0.2540    0.0275 H   0  0  0  0  0  0  0  0  0  0  0  0
    0.0443    0.3097    0.2764 C   0  0  1  0  0  0  0  0  0  0  0  0
    0.8320   -0.4337    0.4323 H   0  0  0  0  0  0  0  0  0  0  0  0
    0.3461    1.0404   -1.0481 C   0  0  1  0  0  0  0  0  0  0  0  0
    1.3241    1.5264   -0.9675 H   0  0  0  0  0  0  0  0  0  0  0  0
    0.3908    0.0768   -2.2352 C   0  0  0  0  0  0  0  0  0  0  0  0
   -0.5930   -0.3674   -2.4149 H   0  0  0  0  0  0  0  0  0  0  0  0
    0.7031    0.6055   -3.1405 H   0  0  0  0  0  0  0  0  0  0  0  0
    1.1052   -0.7296   -2.0431 H   0  0  0  0  0  0  0  0  0  0  0  0
   -0.6495    2.0344   -1.3078 O   0  0  0  0  0  0  0  0  0  0  0  0
   -0.4663    2.4986   -2.1427 H   0  0  0  0  0  0  0  0  0  0  0  0
    0.1098    1.2909    1.4691 C   0  0  0  0  0  0  0  0  0  0  0  0
   -0.8543    1.4468    2.2124 O   0  0  0  0  0  0  0  0  0  0  0  0
    1.2648    2.0129    1.7231 N   0  0  0  0  0  0  0  0  0  0  0  0
    2.0657    1.8486    1.1218 H   0  0  0  0  0  0  0  0  0  0  0  0
    1.4036    2.9367    2.8425 C   0  0  0  0  0  0  0  0  0  0  0  0
    1.2653    2.4111    3.7932 H   0  0  0  0  0  0  0  0  0  0  0  0
    2.4008    3.3873    2.8386 H   0  0  0  0  0  0  0  0  0  0  0  0
    0.6619    3.7393    2.7721 H   0  0  0  0  0  0  0  0  0  0  0  0
  1  2  1  0  0  0  0
  2  3  1  0  0  0  0
  2  4  1  0  0  0  0
  2  5  1  0  0  0  0
  5  6  2  0  0  0  0
  5  7  1  0  0  0  0
  7  8  1  0  0  0  0
  7  9  1  0  0  0  0
  9 10  1  0  0  0  0
  9 11  1  0  0  0  0
  9 19  1  0  0  0  0
 11 12  1  0  0  0  0
 11 13  1  0  0  0  0
 11 17  1  0  0  0  0
 13 14  1  0  0  0  0
 13 15  1  0  0  0  0
 13 16  1  0  0  0  0
 17 18  1  0  0  0  0
 19 20  2  0  0  0  0
 19 21  1  0  0  0  0
 21 22  1  0  0  0  0
 21 23  1  0  0  0  0
 23 24  1  0  0  0  0
 23 25  1  0  0  0  0
 23 26  1  0  0  0  0
M  END
$$$$

  -OEChem-01062216093D

 26 25  0     1  0  0  0  0  0999 V2000
   -3.0189   -2.9223    1.5483 H   0  0  0  0  0  0  0  0  0  0  0  0
   -2.9785   -1.9668    1.0179 C   0  0  0  0  0  0  0  0  0  0  0  0
   -3.4897   -1.2100    1.6182 H   0  0  0  0  0  0  0  0  0  0  0  0
   -3.4918   -2.0723    0.0593 H   0  0  0  0  0  0  0  0  0  0  0  0
   -1.5361   -1.5552    0.7927 C   0  0  0  0  0  0  0  0  0  0  0  0
   -0.6293   -2.2962    1.1405 O   0  0  0  0  0  0  0  0  0  0  0  0
   -1.2598   -0.3568    0.1690 N   0  0  0  0  0  0  0  0  0  0  0  0
   -2.0540    0.2631    0.0350 H   0  0  0  0  0  0  0  0  0  0  0  0
    0.0544    0.3045    0.2708 C   0  0  1  0  0  0  0  0  0  0  0  0
    0.8393   -0.4425    0.4241 H   0  0  0  0  0  0  0  0  0  0  0  0
    0.3575    1.0312   -1.0565 C   0  0  1  0  0  0  0  0  0  0  0  0
    1.3404    1.5083   -0.9849 H   0  0  0  0  0  0  0  0  0  0  0  0
    0.3903    0.0652   -2.2421 C   0  0  0  0  0  0  0  0  0  0  0  0
   -0.5977   -0.3704   -2.4199 H   0  0  0  0  0  0  0  0  0  0  0  0
    0.7065    0.5899   -3.1484 H   0  0  0  0  0  0  0  0  0  0  0  0
    1.0975   -0.7476   -2.0498 H   0  0  0  0  0  0  0  0  0  0  0  0
   -0.6340    2.0301   -1.3136 O   0  0  0  0  0  0  0  0  0  0  0  0
   -0.4705    2.4680   -2.1667 H   0  0  0  0  0  0  0  0  0  0  0  0
    0.1219    1.2749    1.4755 C   0  0  0  0  0  0  0  0  0  0  0  0
   -0.7376    1.2470    2.3510 O   0  0  0  0  0  0  0  0  0  0  0  0
    1.1332    2.2165    1.5834 N   0  0  0  0  0  0  0  0  0  0  0  0
    1.8107    2.2677    0.8300 H   0  0  0  0  0  0  0  0  0  0  0  0
    1.2153    3.1856    2.6696 C   0  0  0  0  0  0  0  0  0  0  0  0
    1.2874    2.6739    3.6351 H   0  0  0  0  0  0  0  0  0  0  0  0
    2.1005    3.8167    2.5470 H   0  0  0  0  0  0  0  0  0  0  0  0
    0.3294    3.8290    2.6766 H   0  0  0  0  0  0  0  0  0  0  0  0
  1  2  1  0  0  0  0
  2  3  1  0  0  0  0
  2  4  1  0  0  0  0
  2  5  1  0  0  0  0
  5  6  2  0  0  0  0
  5  7  1  0  0  0  0
  7  8  1  0  0  0  0
  7  9  1  0  0  0  0
  9 10  1  0  0  0  0
  9 11  1  0  0  0  0
  9 19  1  0  0  0  0
 11 12  1  0  0  0  0
 11 13  1  0  0  0  0
 11 17  1  0  0  0  0
 13 14  1  0  0  0  0
 13 15  1  0  0  0  0
 13 16  1  0  0  0  0
 17 18  1  0  0  0  0
 19 20  2  0  0  0  0
 19 21  1  0  0  0  0
 21 22  1  0  0  0  0
 21 23  1  0  0  0  0
 23 24  1  0  0  0  0
 23 25  1  0  0  0  0
 23 26  1  0  0  0  0
M  END
$$$$

  -OEChem-01062216093D

 26 25  0     1  0  0  0  0  0999 V2000
   -3.0173   -2.8990    1.5670 H   0  0  0  0  0  0  0  0  0  0  0  0
   -2.9757   -1.9493    1.0265 C   0  0  0  0  0  0  0  0  0  0  0  0
   -3.4838   -1.1854    1.6204 H   0  0  0  0  0  0  0  0  0  0  0  0
   -3.4911   -2.0630    0.0700 H   0  0  0  0  0  0  0  0  0  0  0  0
   -1.5331   -1.5441    0.7928 C   0  0  0  0  0  0  0  0  0  0  0  0
   -0.6288   -2.3007    1.1120 O   0  0  0  0  0  0  0  0  0  0  0  0
   -1.2567   -0.3424    0.1743 N   0  0  0  0  0  0  0  0  0  0  0  0
   -2.0510    0.2756    0.0349 H   0  0  0  0  0  0  0  0  0  0  0  0
    0.0619    0.3126    0.2650 C   0  0  1  0  0  0  0  0  0  0  0  0
    0.8427   -0.4391    0.4174 H   0  0  0  0  0  0  0  0  0  0  0  0
    0.3718    1.0260   -1.0684 C   0  0  1  0  0  0  0  0  0  0  0  0
    1.3611    1.4911   -1.0035 H   0  0  0  0  0  0  0  0  0  0  0  0
    0.3918    0.0465   -2.2434 C   0  0  0  0  0  0  0  0  0  0  0  0
   -0.6003   -0.3833   -2.4126 H   0  0  0  0  0  0  0  0  0  0  0  0
    0.7092    0.5570   -3.1573 H   0  0  0  0  0  0  0  0  0  0  0  0
    1.0929   -0.7699   -2.0437 H   0  0  0  0  0  0  0  0  0  0  0  0
   -0.6107    2.0312   -1.3367 O   0  0  0  0  0  0  0  0  0  0  0  0
   -0.4680    2.4272   -2.2141 H   0  0  0  0  0  0  0  0  0  0  0  0
    0.1390    1.2736    1.4780 C   0  0  0  0  0  0  0  0  0  0  0  0
   -0.5457    1.0691    2.4748 O   0  0  0  0  0  0  0  0  0  0  0  0
    0.9414    2.4036    1.4627 N   0  0  0  0  0  0  0  0  0  0  0  0
    1.3707    2.6498    0.5768 H   0  0  0  0  0  0  0  0  0  0  0  0
    0.9594    3.3847    2.5413 C   0  0  0  0  0  0  0  0  0  0  0  0
    1.2455    2.9105    3.4862 H   0  0  0  0  0  0  0  0  0  0  0  0
    1.6828    4.1756    2.3209 H   0  0  0  0  0  0  0  0  0  0  0  0
   -0.0290    3.8409    2.6605 H   0  0  0  0  0  0  0  0  0  0  0  0
  1  2  1  0  0  0  0
  2  3  1  0  0  0  0
  2  4  1  0  0  0  0
  2  5  1  0  0  0  0
  5  6  2  0  0  0  0
  5  7  1  0  0  0  0
  7  8  1  0  0  0  0
  7  9  1  0  0  0  0
  9 10  1  0  0  0  0
  9 11  1  0  0  0  0
  9 19  1  0  0  0  0
 11 12  1  0  0  0  0
 11 13  1  0  0  0  0
 11 17  1  0  0  0  0
 13 14  1  0  0  0  0
 13 15  1  0  0  0  0
 13 16  1  0  0  0  0
 17 18  1  0  0  0  0
 19 20  2  0  0  0  0
 19 21  1  0  0  0  0
 21 22  1  0  0  0  0
 21 23  1  0  0  0  0
 23 24  1  0  0  0  0
 23 25  1  0  0  0  0
 23 26  1  0  0  0  0
M  END
$$$$

  -OEChem-01062216093D

 26 25  0     1  0  0  0  0  0999 V2000
   -3.0151   -2.9263    1.5089 H   0  0  0  0  0  0  0  0  0  0  0  0
   -2.9755   -1.9414    1.0352 C   0  0  0  0  0  0  0  0  0  0  0  0
   -3.4635   -1.2162    1.6909 H   0  0  0  0  0  0  0  0  0  0  0  0
   -3.5125   -1.9849    0.0849 H   0  0  0  0  0  0  0  0  0  0  0  0
   -1.5335   -1.5332    0.8003 C   0  0  0  0  0  0  0  0  0  0  0  0
   -0.6295   -2.2938    1.1093 O   0  0  0  0  0  0  0  0  0  0  0  0
   -1.2585   -0.3306    0.1815 N   0  0  0  0  0  0  0  0  0  0  0  0
   -2.0547    0.2802    0.0241 H   0  0  0  0  0  0  0  0  0  0  0  0
    0.0603    0.3258    0.2622 C   0  0  1  0  0  0  0  0  0  0  0  0
    0.8391   -0.4268    0.4213 H   0  0  0  0  0  0  0  0  0  0  0  0
    0.3840    1.0261   -1.0751 C   0  0  1  0  0  0  0  0  0  0  0  0
    1.3759    1.4854   -1.0033 H   0  0  0  0  0  0  0  0  0  0  0  0
    0.4078    0.0343   -2.2395 C   0  0  0  0  0  0  0  0  0  0  0  0
   -0.5845   -0.3947   -2.4089 H   0  0  0  0  0  0  0  0  0  0  0  0
    0.7310    0.5343   -3.1571 H   0  0  0  0  0  0  0  0  0  0  0  0
    1.1060   -0.7816   -2.0282 H   0  0  0  0  0  0  0  0  0  0  0  0
   -0.5890    2.0346   -1.3672 O   0  0  0  0  0  0  0  0  0  0  0  0
   -0.4530    2.3919   -2.2627 H   0  0  0  0  0  0  0  0  0  0  0  0
    0.1401    1.2850    1.4755 C   0  0  0  0  0  0  0  0  0  0  0  0
   -0.3165    0.9459    2.5610 O   0  0  0  0  0  0  0  0  0  0  0  0
    0.6796    2.5560    1.3628 N   0  0  0  0  0  0  0  0  0  0  0  0
    0.8188    2.8936    0.4142 H   0  0  0  0  0  0  0  0  0  0  0  0
    0.6510    3.5315    2.4461 C   0  0  0  0  0  0  0  0  0  0  0  0
    1.1432    3.1300    3.3382 H   0  0  0  0  0  0  0  0  0  0  0  0
    1.1763    4.4432    2.1465 H   0  0  0  0  0  0  0  0  0  0  0  0
   -0.3817    3.7918    2.7002 H   0  0  0  0  0  0  0  0  0  0  0  0
  1  2  1  0  0  0  0
  2  3  1  0  0  0  0
  2  4  1  0  0  0  0
  2  5  1  0  0  0  0
  5  6  2  0  0  0  0
  5  7  1  0  0  0  0
  7  8  1  0  0  0  0
  7  9  1  0  0  0  0
  9 10  1  0  0  0  0
  9 11  1  0  0  0  0
  9 19  1  0  0  0  0
 11 12  1  0  0  0  0
 11 13  1  0  0  0  0
 11 17  1  0  0  0  0
 13 14  1  0  0  0  0
 13 15  1  0  0  0  0
 13 16  1  0  0  0  0
 17 18  1  0  0  0  0
 19 20  2  0  0  0  0
 19 21  1  0  0  0  0
 21 22  1  0  0  0  0
 21 23  1  0  0  0  0
 23 24  1  0  0  0  0
 23 25  1  0  0  0  0
 23 26  1  0  0  0  0
M  END
$$$$

  -OEChem-01062216093D

 26 25  0     1  0  0  0  0  0999 V2000
   -3.0176   -2.9246    1.5127 H   0  0  0  0  0  0  0  0  0  0  0  0
   -2.9791   -1.9505    1.0172 C   0  0  0  0  0  0  0  0  0  0  0  0
   -3.4970   -1.2188    1.6421 H   0  0  0  0  0  0  0  0  0  0  0  0
   -3.4878   -2.0244    0.0532 H   0  0  0  0  0  0  0  0  0  0  0  0
   -1.5370   -1.5261    0.8129 C   0  0  0  0  0  0  0  0  0  0  0  0
   -0.6326   -2.2787    1.1373 O   0  0  0  0  0  0  0  0  0  0  0  0
   -1.2631   -0.3229    0.1945 N   0  0  0  0  0  0  0  0  0  0  0  0
   -2.0620    0.2731   -0.0003 H   0  0  0  0  0  0  0  0  0  0  0  0
    0.0518    0.3414    0.2692 C   0  0  1  0  0  0  0  0  0  0  0  0
    0.8326   -0.4088    0.4310 H   0  0  0  0  0  0  0  0  0  0  0  0
    0.3759    1.0325   -1.0732 C   0  0  1  0  0  0  0  0  0  0  0  0
    1.3642    1.4996   -0.9952 H   0  0  0  0  0  0  0  0  0  0  0  0
    0.4155    0.0304   -2.2282 C   0  0  0  0  0  0  0  0  0  0  0  0
   -0.5711   -0.4114   -2.3981 H   0  0  0  0  0  0  0  0  0  0  0  0
    0.7380    0.5253   -3.1489 H   0  0  0  0  0  0  0  0  0  0  0  0
    1.1218   -0.7755   -2.0058 H   0  0  0  0  0  0  0  0  0  0  0  0
   -0.5977    2.0367   -1.3845 O   0  0  0  0  0  0  0  0  0  0  0  0
   -0.4573    2.3756   -2.2869 H   0  0  0  0  0  0  0  0  0  0  0  0
    0.1353    1.3030    1.4781 C   0  0  0  0  0  0  0  0  0  0  0  0
   -0.0630    0.8864    2.6121 O   0  0  0  0  0  0  0  0  0  0  0  0
    0.3750    2.6559    1.3089 N   0  0  0  0  0  0  0  0  0  0  0  0
    0.2873    2.9975    0.3535 H   0  0  0  0  0  0  0  0  0  0  0  0
    0.3262    3.6198    2.4014 C   0  0  0  0  0  0  0  0  0  0  0  0
    1.0277    3.3374    3.1936 H   0  0  0  0  0  0  0  0  0  0  0  0
    0.6009    4.6151    2.0392 H   0  0  0  0  0  0  0  0  0  0  0  0
   -0.6826    3.6689    2.8244 H   0  0  0  0  0  0  0  0  0  0  0  0
  1  2  1  0  0  0  0
  2  3  1  0  0  0  0
  2  4  1  0  0  0  0
  2  5  1  0  0  0  0
  5  6  2  0  0  0  0
  5  7  1  0  0  0  0
  7  8  1  0  0  0  0
  7  9  1  0  0  0  0
  9 10  1  0  0  0  0
  9 11  1  0  0  0  0
  9 19  1  0  0  0  0
 11 12  1  0  0  0  0
 11 13  1  0  0  0  0
 11 17  1  0  0  0  0
 13 14  1  0  0  0  0
 13 15  1  0  0  0  0
 13 16  1  0  0  0  0
 17 18  1  0  0  0  0
 19 20  2  0  0  0  0
 19 21  1  0  0  0  0
 21 22  1  0  0  0  0
 21 23  1  0  0  0  0
 23 24  1  0  0  0  0
 23 25  1  0  0  0  0
 23 26  1  0  0  0  0
M  END
$$$$

  -OEChem-01062216093D

 26 25  0     1  0  0  0  0  0999 V2000
   -3.0282   -2.9265    1.5163 H   0  0  0  0  0  0  0  0  0  0  0  0
   -2.9848   -1.9803    0.9693 C   0  0  0  0  0  0  0  0  0  0  0  0
   -3.5637   -1.2327    1.5167 H   0  0  0  0  0  0  0  0  0  0  0  0
   -3.4262   -2.1237   -0.0197 H   0  0  0  0  0  0  0  0  0  0  0  0
   -1.5448   -1.5225    0.8334 C   0  0  0  0  0  0  0  0  0  0  0  0
   -0.6415   -2.2502    1.2108 O   0  0  0  0  0  0  0  0  0  0  0  0
   -1.2693   -0.3194    0.2158 N   0  0  0  0  0  0  0  0  0  0  0  0
   -2.0674    0.2533   -0.0422 H   0  0  0  0  0  0  0  0  0  0  0  0
    0.0398    0.3557    0.2869 C   0  0  1  0  0  0  0  0  0  0  0  0
    0.8244   -0.3909    0.4492 H   0  0  0  0  0  0  0  0  0  0  0  0
    0.3544    1.0395   -1.0620 C   0  0  1  0  0  0  0  0  0  0  0  0
    1.3372    1.5181   -0.9839 H   0  0  0  0  0  0  0  0  0  0  0  0
    0.4059    0.0286   -2.2089 C   0  0  0  0  0  0  0  0  0  0  0  0
   -0.5777   -0.4193   -2.3804 H   0  0  0  0  0  0  0  0  0  0  0  0
    0.7305    0.5182   -3.1316 H   0  0  0  0  0  0  0  0  0  0  0  0
    1.1150   -0.7723   -1.9770 H   0  0  0  0  0  0  0  0  0  0  0  0
   -0.6264    2.0343   -1.3873 O   0  0  0  0  0  0  0  0  0  0  0  0
   -0.4634    2.3865   -2.2812 H   0  0  0  0  0  0  0  0  0  0  0  0
    0.1272    1.3233    1.4889 C   0  0  0  0  0  0  0  0  0  0  0  0
    0.2185    0.8875    2.6284 O   0  0  0  0  0  0  0  0  0  0  0  0
    0.0519    2.6935    1.3132 N   0  0  0  0  0  0  0  0  0  0  0  0
   -0.1901    3.0047    0.3728 H   0  0  0  0  0  0  0  0  0  0  0  0
    0.0009    3.6487    2.4128 C   0  0  0  0  0  0  0  0  0  0  0  0
    0.8923    3.5558    3.0419 H   0  0  0  0  0  0  0  0  0  0  0  0
   -0.0409    4.6705    2.0238 H   0  0  0  0  0  0  0  0  0  0  0  0
   -0.8865    3.4749    3.0303 H   0  0  0  0  0  0  0  0  0  0  0  0
  1  2  1  0  0  0  0
  2  3  1  0  0  0  0
  2  4  1  0  0  0  0
  2  5  1  0  0  0  0
  5  6  2  0  0  0  0
  5  7  1  0  0  0  0
  7  8  1  0  0  0  0
  7  9  1  0  0  0  0
  9 10  1  0  0  0  0
  9 11  1  0  0  0  0
  9 19  1  0  0  0  0
 11 12  1  0  0  0  0
 11 13  1  0  0  0  0
 11 17  1  0  0  0  0
 13 14  1  0  0  0  0
 13 15  1  0  0  0  0
 13 16  1  0  0  0  0
 17 18  1  0  0  0  0
 19 20  2  0  0  0  0
 19 21  1  0  0  0  0
 21 22  1  0  0  0  0
 21 23  1  0  0  0  0
 23 24  1  0  0  0  0
 23 25  1  0  0  0  0
 23 26  1  0  0  0  0
M  END
$$$$

  -OEChem-01062216093D

 26 25  0     1  0  0  0  0  0999 V2000
   -3.0380   -2.9821    1.4566 H   0  0  0  0  0  0  0  0  0  0  0  0
   -2.9940   -2.0328    0.9150 C   0  0  0  0  0  0  0  0  0  0  0  0
   -3.6162   -1.3023    1.4377 H   0  0  0  0  0  0  0  0  0  0  0  0
   -3.3871   -2.1838   -0.0931 H   0  0  0  0  0  0  0  0  0  0  0  0
   -1.5612   -1.5381    0.8453 C   0  0  0  0  0  0  0  0  0  0  0  0
   -0.6612   -2.2325    1.2860 O   0  0  0  0  0  0  0  0  0  0  0  0
   -1.2858   -0.3335    0.2309 N   0  0  0  0  0  0  0  0  0  0  0  0
   -2.0808    0.2110   -0.0903 H   0  0  0  0  0  0  0  0  0  0  0  0
    0.0134    0.3596    0.3121 C   0  0  1  0  0  0  0  0  0  0  0  0
    0.8055   -0.3788    0.4778 H   0  0  0  0  0  0  0  0  0  0  0  0
    0.3265    1.0487   -1.0340 C   0  0  1  0  0  0  0  0  0  0  0  0
    1.2999    1.5440   -0.9438 H   0  0  0  0  0  0  0  0  0  0  0  0
    0.4071    0.0401   -2.1812 C   0  0  0  0  0  0  0  0  0  0  0  0
   -0.5664   -0.4252   -2.3624 H   0  0  0  0  0  0  0  0  0  0  0  0
    0.7316    0.5365   -3.1004 H   0  0  0  0  0  0  0  0  0  0  0  0
    1.1286   -0.7476   -1.9432 H   0  0  0  0  0  0  0  0  0  0  0  0
   -0.6653    2.0303   -1.3687 O   0  0  0  0  0  0  0  0  0  0  0  0
   -0.4748    2.4123   -2.2449 H   0  0  0  0  0  0  0  0  0  0  0  0
    0.0858    1.3332    1.5087 C   0  0  0  0  0  0  0  0  0  0  0  0
    0.4733    0.9463    2.6024 O   0  0  0  0  0  0  0  0  0  0  0  0
   -0.3041    2.6533    1.3761 N   0  0  0  0  0  0  0  0  0  0  0  0
   -0.6431    2.9311    0.4552 H   0  0  0  0  0  0  0  0  0  0  0  0
   -0.2922    3.6232    2.4636 C   0  0  0  0  0  0  0  0  0  0  0  0
    0.7234    3.7496    2.8530 H   0  0  0  0  0  0  0  0  0  0  0  0
   -0.6493    4.5942    2.1076 H   0  0  0  0  0  0  0  0  0  0  0  0
   -0.9440    3.2920    3.2787 H   0  0  0  0  0  0  0  0  0  0  0  0
  1  2  1  0  0  0  0
  2  3  1  0  0  0  0
  2  4  1  0  0  0  0
  2  5  1  0  0  0  0
  5  6  2  0  0  0  0
  5  7  1  0  0  0  0
  7  8  1  0  0  0  0
  7  9  1  0  0  0  0
  9 10  1  0  0  0  0
  9 11  1  0  0  0  0
  9 19  1  0  0  0  0
 11 12  1  0  0  0  0
 11 13  1  0  0  0  0
 11 17  1  0  0  0  0
 13 14  1  0  0  0  0
 13 15  1  0  0  0  0
 13 16  1  0  0  0  0
 17 18  1  0  0  0  0
 19 20  2  0  0  0  0
 19 21  1  0  0  0  0
 21 22  1  0  0  0  0
 21 23  1  0  0  0  0
 23 24  1  0  0  0  0
 23 25  1  0  0  0  0
 23 26  1  0  0  0  0
M  END
$$$$

  -OEChem-01062216093D

 26 25  0     1  0  0  0  0  0999 V2000
   -3.0505   -3.0500    1.3853 H   0  0  0  0  0  0  0  0  0  0  0  0
   -3.0026   -2.0964    0.8518 C   0  0  0  0  0  0  0  0  0  0  0  0
   -3.6679   -1.3844    1.3460 H   0  0  0  0  0  0  0  0  0  0  0  0
   -3.3399   -2.2501   -0.1759 H   0  0  0  0  0  0  0  0  0  0  0  0
   -1.5809   -1.5665    0.8575 C   0  0  0  0  0  0  0  0  0  0  0  0
   -0.6925   -2.2245    1.3706 O   0  0  0  0  0  0  0  0  0  0  0  0
   -1.3025   -0.3594    0.2506 N   0  0  0  0  0  0  0  0  0  0  0  0
   -2.0869    0.1575   -0.1359 H   0  0  0  0  0  0  0  0  0  0  0  0
   -0.0110    0.3457    0.3478 C   0  0  1  0  0  0  0  0  0  0  0  0
    0.7867   -0.3875    0.5106 H   0  0  0  0  0  0  0  0  0  0  0  0
    0.2982    1.0572   -0.9856 C   0  0  1  0  0  0  0  0  0  0  0  0
    1.2637    1.5649   -0.8820 H   0  0  0  0  0  0  0  0  0  0  0  0
    0.3994    0.0692   -2.1485 C   0  0  0  0  0  0  0  0  0  0  0  0
   -0.5654   -0.4097   -2.3410 H   0  0  0  0  0  0  0  0  0  0  0  0
    0.7187    0.5864   -3.0580 H   0  0  0  0  0  0  0  0  0  0  0  0
    1.1337   -0.7096   -1.9202 H   0  0  0  0  0  0  0  0  0  0  0  0
   -0.7059    2.0316   -1.3052 O   0  0  0  0  0  0  0  0  0  0  0  0
   -0.4940    2.4634   -2.1528 H   0  0  0  0  0  0  0  0  0  0  0  0
    0.0451    1.3187    1.5430 C   0  0  0  0  0  0  0  0  0  0  0  0
    0.7119    1.0515    2.5332 O   0  0  0  0  0  0  0  0  0  0  0  0
   -0.6287    2.5254    1.4974 N   0  0  0  0  0  0  0  0  0  0  0  0
   -1.0480    2.7638    0.5990 H   0  0  0  0  0  0  0  0  0  0  0  0
   -0.5425    3.5403    2.5389 C   0  0  0  0  0  0  0  0  0  0  0  0
    0.4873    3.8982    2.6406 H   0  0  0  0  0  0  0  0  0  0  0  0
   -1.1838    4.3914    2.2908 H   0  0  0  0  0  0  0  0  0  0  0  0
   -0.8704    3.1305    3.5000 H   0  0  0  0  0  0  0  0  0  0  0  0
  1  2  1  0  0  0  0
  2  3  1  0  0  0  0
  2  4  1  0  0  0  0
  2  5  1  0  0  0  0
  5  6  2  0  0  0  0
  5  7  1  0  0  0  0
  7  8  1  0  0  0  0
  7  9  1  0  0  0  0
  9 10  1  0  0  0  0
  9 11  1  0  0  0  0
  9 19  1  0  0  0  0
 11 12  1  0  0  0  0
 11 13  1  0  0  0  0
 11 17  1  0  0  0  0
 13 14  1  0  0  0  0
 13 15  1  0  0  0  0
 13 16  1  0  0  0  0
 17 18  1  0  0  0  0
 19 20  2  0  0  0  0
 19 21  1  0  0  0  0
 21 22  1  0  0  0  0
 21 23  1  0  0  0  0
 23 24  1  0  0  0  0
 23 25  1  0  0  0  0
 23 26  1  0  0  0  0
M  END
$$$$

  -OEChem-01062216093D

 26 25  0     1  0  0  0  0  0999 V2000
   -3.0552   -3.1104    1.3172 H   0  0  0  0  0  0  0  0  0  0  0  0
   -3.0033   -2.1525    0.7919 C   0  0  0  0  0  0  0  0  0  0  0  0
   -3.7146   -1.4613    1.2505 H   0  0  0  0  0  0  0  0  0  0  0  0
   -3.2782   -2.3094   -0.2539 H   0  0  0  0  0  0  0  0  0  0  0  0
   -1.5993   -1.5845    0.8804 C   0  0  0  0  0  0  0  0  0  0  0  0
   -0.7306   -2.2067    1.4664 O   0  0  0  0  0  0  0  0  0  0  0  0
   -1.3120   -0.3786    0.2760 N   0  0  0  0  0  0  0  0  0  0  0  0
   -2.0741    0.1083   -0.1866 H   0  0  0  0  0  0  0  0  0  0  0  0
   -0.0193    0.3238    0.3798 C   0  0  1  0  0  0  0  0  0  0  0  0
    0.7783   -0.4120    0.5323 H   0  0  0  0  0  0  0  0  0  0  0  0
    0.2790    1.0561   -0.9422 C   0  0  1  0  0  0  0  0  0  0  0  0
    1.2436    1.5658   -0.8374 H   0  0  0  0  0  0  0  0  0  0  0  0
    0.3723    0.0922   -2.1260 C   0  0  0  0  0  0  0  0  0  0  0  0
   -0.5922   -0.3870   -2.3190 H   0  0  0  0  0  0  0  0  0  0  0  0
    0.6799    0.6298   -3.0275 H   0  0  0  0  0  0  0  0  0  0  0  0
    1.1126   -0.6875   -1.9214 H   0  0  0  0  0  0  0  0  0  0  0  0
   -0.7346    2.0311   -1.2260 O   0  0  0  0  0  0  0  0  0  0  0  0
   -0.5083    2.5207   -2.0375 H   0  0  0  0  0  0  0  0  0  0  0  0
    0.0449    1.2989    1.5708 C   0  0  0  0  0  0  0  0  0  0  0  0
    0.9310    1.1969    2.4087 O   0  0  0  0  0  0  0  0  0  0  0  0
   -0.8500    2.3503    1.6591 N   0  0  0  0  0  0  0  0  0  0  0  0
   -1.4018    2.5219    0.8206 H   0  0  0  0  0  0  0  0  0  0  0  0
   -0.7526    3.3998    2.6653 C   0  0  0  0  0  0  0  0  0  0  0  0
    0.1790    3.9618    2.5430 H   0  0  0  0  0  0  0  0  0  0  0  0
   -1.5933    4.0934    2.5703 H   0  0  0  0  0  0  0  0  0  0  0  0
   -0.7750    2.9687    3.6717 H   0  0  0  0  0  0  0  0  0  0  0  0
  1  2  1  0  0  0  0
  2  3  1  0  0  0  0
  2  4  1  0  0  0  0
  2  5  1  0  0  0  0
  5  6  2  0  0  0  0
  5  7  1  0  0  0  0
  7  8  1  0  0  0  0
  7  9  1  0  0  0  0
  9 10  1  0  0  0  0
  9 11  1  0  0  0  0
  9 19  1  0  0  0  0
 11 12  1  0  0  0  0
 11 13  1  0  0  0  0
 11 17  1  0  0  0  0
 13 14  1  0  0  0  0
 13 15  1  0  0  0  0
 13 16  1  0  0  0  0
 17 18  1  0  0  0  0
 19 20  2  0  0  0  0
 19 21  1  0  0  0  0
 21 22  1  0  0  0  0
 21 23  1  0  0  0  0
 23 24  1  0  0  0  0
 23 25  1  0  0  0  0
 23 26  1  0  0  0  0
M  END
$$$$

  -OEChem-01062216093D

 26 25  0     1  0  0  0  0  0999 V2000
   -3.0534   -3.1525    1.2638 H   0  0  0  0  0  0  0  0  0  0  0  0
   -2.9961   -2.1968    0.7351 C   0  0  0  0  0  0  0  0  0  0  0  0
   -3.7519   -1.5226    1.1449 H   0  0  0  0  0  0  0  0  0  0  0  0
   -3.2037   -2.3682   -0.3238 H   0  0  0  0  0  0  0  0  0  0  0  0
   -1.6159   -1.5901    0.9031 C   0  0  0  0  0  0  0  0  0  0  0  0
   -0.7730   -2.1715    1.5640 O   0  0  0  0  0  0  0  0  0  0  0  0
   -1.3209   -0.3872    0.2974 N   0  0  0  0  0  0  0  0  0  0  0  0
   -2.0472    0.0544   -0.2591 H   0  0  0  0  0  0  0  0  0  0  0  0
   -0.0236    0.3072    0.3996 C   0  0  1  0  0  0  0  0  0  0  0  0
    0.7703   -0.4342    0.5431 H   0  0  0  0  0  0  0  0  0  0  0  0
    0.2631    1.0492   -0.9171 C   0  0  1  0  0  0  0  0  0  0  0  0
    1.2286    1.5583   -0.8170 H   0  0  0  0  0  0  0  0  0  0  0  0
    0.3423    0.1004   -2.1140 C   0  0  0  0  0  0  0  0  0  0  0  0
   -0.6244   -0.3757   -2.3027 H   0  0  0  0  0  0  0  0  0  0  0  0
    0.6401    0.6499   -3.0120 H   0  0  0  0  0  0  0  0  0  0  0  0
    1.0846   -0.6820   -1.9278 H   0  0  0  0  0  0  0  0  0  0  0  0
   -0.7560    2.0258   -1.1690 O   0  0  0  0  0  0  0  0  0  0  0  0
   -0.5159    2.5692   -1.9409 H   0  0  0  0  0  0  0  0  0  0  0  0
    0.0644    1.2867    1.5844 C   0  0  0  0  0  0  0  0  0  0  0  0
    1.1000    1.3741    2.2315 O   0  0  0  0  0  0  0  0  0  0  0  0
   -0.9788    2.1545    1.8558 N   0  0  0  0  0  0  0  0  0  0  0  0
   -1.7093    2.1992    1.1510 H   0  0  0  0  0  0  0  0  0  0  0  0
   -0.8963    3.2139    2.8528 C   0  0  0  0  0  0  0  0  0  0  0  0
   -0.1108    3.9293    2.5882 H   0  0  0  0  0  0  0  0  0  0  0  0
   -1.8486    3.7490    2.9146 H   0  0  0  0  0  0  0  0  0  0  0  0
   -0.6732    2.7941    3.8393 H   0  0  0  0  0  0  0  0  0  0  0  0
  1  2  1  0  0  0  0
  2  3  1  0  0  0  0
  2  4  1  0  0  0  0
  2  5  1  0  0  0  0
  5  6  2  0  0  0  0
  5  7  1  0  0  0  0
  7  8  1  0  0  0  0
  7  9  1  0  0  0  0
  9 10  1  0  0  0  0
  9 11  1  0  0  0  0
  9 19  1  0  0  0  0
 11 12  1  0  0  0  0
 11 13  1  0  0  0  0
 11 17  1  0  0  0  0
 13 14  1  0  0  0  0
 13 15  1  0  0  0  0
 13 16  1  0  0  0  0
 17 18  1  0  0  0  0
 19 20  2  0  0  0  0
 19 21  1  0  0  0  0
 21 22  1  0  0  0  0
 21 23  1  0  0  0  0
 23 24  1  0  0  0  0
 23 25  1  0  0  0  0
 23 26  1  0  0  0  0
M  END
$$$$

  -OEChem-01062216093D

 26 25  0     1  0  0  0  0  0999 V2000
   -3.0536   -3.1634    1.2407 H   0  0  0  0  0  0  0  0  0  0  0  0
   -2.9892   -2.2176    0.6950 C   0  0  0  0  0  0  0  0  0  0  0  0
   -3.7772   -1.5509    1.0532 H   0  0  0  0  0  0  0  0  0  0  0  0
   -3.1416   -2.4145   -0.3689 H   0  0  0  0  0  0  0  0  0  0  0  0
   -1.6300   -1.5804    0.9151 C   0  0  0  0  0  0  0  0  0  0  0  0
   -0.8073   -2.1316    1.6254 O   0  0  0  0  0  0  0  0  0  0  0  0
   -1.3300   -0.3799    0.3066 N   0  0  0  0  0  0  0  0  0  0  0  0
   -2.0262    0.0280   -0.3117 H   0  0  0  0  0  0  0  0  0  0  0  0
   -0.0260    0.3043    0.4027 C   0  0  1  0  0  0  0  0  0  0  0  0
    0.7616   -0.4442    0.5424 H   0  0  0  0  0  0  0  0  0  0  0  0
    0.2588    1.0435   -0.9159 C   0  0  1  0  0  0  0  0  0  0  0  0
    1.2285    1.5462   -0.8224 H   0  0  0  0  0  0  0  0  0  0  0  0
    0.3229    0.0958   -2.1146 C   0  0  0  0  0  0  0  0  0  0  0  0
   -0.6497   -0.3694   -2.3002 H   0  0  0  0  0  0  0  0  0  0  0  0
    0.6225    0.6439   -3.0127 H   0  0  0  0  0  0  0  0  0  0  0  0
    1.0580   -0.6943   -1.9328 H   0  0  0  0  0  0  0  0  0  0  0  0
   -0.7564    2.0255   -1.1570 O   0  0  0  0  0  0  0  0  0  0  0  0
   -0.5000    2.5993   -1.9008 H   0  0  0  0  0  0  0  0  0  0  0  0
    0.0871    1.2862    1.5833 C   0  0  0  0  0  0  0  0  0  0  0  0
    1.1901    1.5691    2.0347 O   0  0  0  0  0  0  0  0  0  0  0  0
   -1.0296    1.9473    2.0635 N   0  0  0  0  0  0  0  0  0  0  0  0
   -1.9010    1.7825    1.5705 H   0  0  0  0  0  0  0  0  0  0  0  0
   -0.9750    2.9811    3.0883 C   0  0  0  0  0  0  0  0  0  0  0  0
   -0.3811    3.8329    2.7412 H   0  0  0  0  0  0  0  0  0  0  0  0
   -1.9837    3.3337    3.3232 H   0  0  0  0  0  0  0  0  0  0  0  0
   -0.5251    2.5871    4.0056 H   0  0  0  0  0  0  0  0  0  0  0  0
  1  2  1  0  0  0  0
  2  3  1  0  0  0  0
  2  4  1  0  0  0  0
  2  5  1  0  0  0  0
  5  6  2  0  0  0  0
  5  7  1  0  0  0  0
  7  8  1  0  0  0  0
  7  9  1  0  0  0  0
  9 10  1  0  0  0  0
  9 11  1  0  0  0  0
  9 19  1  0  0  0  0
 11 12  1  0  0  0  0
 11 13  1  0  0  0  0
 11 17  1  0  0  0  0
 13 14  1  0  0  0  0
 13 15  1  0  0  0  0
 13 16  1  0  0  0  0
 17 18  1  0  0  0  0
 19 20  2  0  0  0  0
 19 21  1  0  0  0  0
 21 22  1  0  0  0  0
 21 23  1  0  0  0  0
 23 24  1  0  0  0  0
 23 25  1  0  0  0  0
 23 26  1  0  0  0  0
M  END
$$$$

  -OEChem-01062216093D

 26 25  0     1  0  0  0  0  0999 V2000
   -3.0310   -3.1631    1.2108 H   0  0  0  0  0  0  0  0  0  0  0  0
   -2.9773   -2.2093    0.6783 C   0  0  0  0  0  0  0  0  0  0  0  0
   -3.7823   -1.5618    1.0337 H   0  0  0  0  0  0  0  0  0  0  0  0
   -3.1121   -2.3957   -0.3899 H   0  0  0  0  0  0  0  0  0  0  0  0
   -1.6333   -1.5501    0.9244 C   0  0  0  0  0  0  0  0  0  0  0  0
   -0.8275   -2.0696    1.6767 O   0  0  0  0  0  0  0  0  0  0  0  0
   -1.3309   -0.3571    0.3037 N   0  0  0  0  0  0  0  0  0  0  0  0
   -2.0139    0.0336   -0.3409 H   0  0  0  0  0  0  0  0  0  0  0  0
   -0.0254    0.3260    0.3915 C   0  0  1  0  0  0  0  0  0  0  0  0
    0.7602   -0.4225    0.5410 H   0  0  0  0  0  0  0  0  0  0  0  0
    0.2551    1.0406   -0.9425 C   0  0  1  0  0  0  0  0  0  0  0  0
    1.2246    1.5458   -0.8643 H   0  0  0  0  0  0  0  0  0  0  0  0
    0.3148    0.0710   -2.1241 C   0  0  0  0  0  0  0  0  0  0  0  0
   -0.6563   -0.4032   -2.2933 H   0  0  0  0  0  0  0  0  0  0  0  0
    0.6034    0.6043   -3.0345 H   0  0  0  0  0  0  0  0  0  0  0  0
    1.0559   -0.7115   -1.9343 H   0  0  0  0  0  0  0  0  0  0  0  0
   -0.7614    2.0167   -1.1971 O   0  0  0  0  0  0  0  0  0  0  0  0
   -0.4949    2.5969   -1.9319 H   0  0  0  0  0  0  0  0  0  0  0  0
    0.0962    1.3219    1.5606 C   0  0  0  0  0  0  0  0  0  0  0  0
    1.1921    1.7855    1.8533 O   0  0  0  0  0  0  0  0  0  0  0  0
   -1.0264    1.7599    2.2409 N   0  0  0  0  0  0  0  0  0  0  0  0
   -1.9113    1.3381    1.9795 H   0  0  0  0  0  0  0  0  0  0  0  0
   -0.9815    2.6944    3.3575 C   0  0  0  0  0  0  0  0  0  0  0  0
   -0.5161    3.6368    3.0502 H   0  0  0  0  0  0  0  0  0  0  0  0
   -1.9943    2.9092    3.7113 H   0  0  0  0  0  0  0  0  0  0  0  0
   -0.4064    2.2707    4.1874 H   0  0  0  0  0  0  0  0  0  0  0  0
  1  2  1  0  0  0  0
  2  3  1  0  0  0  0
  2  4  1  0  0  0  0
  2  5  1  0  0  0  0
  5  6  2  0  0  0  0
  5  7  1  0  0  0  0
  7  8  1  0  0  0  0
  7  9  1  0  0  0  0
  9 10  1  0  0  0  0
  9 11  1  0  0  0  0
  9 19  1  0  0  0  0
 11 12  1  0  0  0  0
 11 13  1  0  0  0  0
 11 17  1  0  0  0  0
 13 14  1  0  0  0  0
 13 15  1  0  0  0  0
 13 16  1  0  0  0  0
 17 18  1  0  0  0  0
 19 20  2  0  0  0  0
 19 21  1  0  0  0  0
 21 22  1  0  0  0  0
 21 23  1  0  0  0  0
 23 24  1  0  0  0  0
 23 25  1  0  0  0  0
 23 26  1  0  0  0  0
M  END
$$$$

  -OEChem-01062216093D

 26 25  0     1  0  0  0  0  0999 V2000
   -3.0336   -3.1507    1.2046 H   0  0  0  0  0  0  0  0  0  0  0  0
   -2.9775   -2.1987    0.6689 C   0  0  0  0  0  0  0  0  0  0  0  0
   -3.7850   -1.5503    1.0174 H   0  0  0  0  0  0  0  0  0  0  0  0
   -3.1066   -2.3884   -0.3993 H   0  0  0  0  0  0  0  0  0  0  0  0
   -1.6354   -1.5375    0.9192 C   0  0  0  0  0  0  0  0  0  0  0  0
   -0.8394   -2.0413    1.6923 O   0  0  0  0  0  0  0  0  0  0  0  0
   -1.3304   -0.3458    0.2982 N   0  0  0  0  0  0  0  0  0  0  0  0
   -2.0148    0.0489   -0.3430 H   0  0  0  0  0  0  0  0  0  0  0  0
   -0.0261    0.3406    0.3860 C   0  0  1  0  0  0  0  0  0  0  0  0
    0.7601   -0.4056    0.5413 H   0  0  0  0  0  0  0  0  0  0  0  0
    0.2524    1.0418   -0.9572 C   0  0  1  0  0  0  0  0  0  0  0  0
    1.2203    1.5512   -0.8874 H   0  0  0  0  0  0  0  0  0  0  0  0
    0.3154    0.0601   -2.1286 C   0  0  0  0  0  0  0  0  0  0  0  0
   -0.6542   -0.4191   -2.2934 H   0  0  0  0  0  0  0  0  0  0  0  0
    0.6020    0.5851   -3.0445 H   0  0  0  0  0  0  0  0  0  0  0  0
    1.0593   -0.7177   -1.9305 H   0  0  0  0  0  0  0  0  0  0  0  0
   -0.7683    2.0109   -1.2213 O   0  0  0  0  0  0  0  0  0  0  0  0
   -0.4918    2.6045   -1.9414 H   0  0  0  0  0  0  0  0  0  0  0  0
    0.0924    1.3406    1.5542 C   0  0  0  0  0  0  0  0  0  0  0  0
    1.1261    1.9796    1.7136 O   0  0  0  0  0  0  0  0  0  0  0  0
   -0.9655    1.5426    2.4230 N   0  0  0  0  0  0  0  0  0  0  0  0
   -1.7565    0.9151    2.3210 H   0  0  0  0  0  0  0  0  0  0  0  0
   -0.8936    2.4092    3.5918 C   0  0  0  0  0  0  0  0  0  0  0  0
   -0.6394    3.4322    3.2951 H   0  0  0  0  0  0  0  0  0  0  0  0
   -1.8592    2.4302    4.1061 H   0  0  0  0  0  0  0  0  0  0  0  0
   -0.1345    2.0451    4.2919 H   0  0  0  0  0  0  0  0  0  0  0  0
  1  2  1  0  0  0  0
  2  3  1  0  0  0  0
  2  4  1  0  0  0  0
  2  5  1  0  0  0  0
  5  6  2  0  0  0  0
  5  7  1  0  0  0  0
  7  8  1  0  0  0  0
  7  9  1  0  0  0  0
  9 10  1  0  0  0  0
  9 11  1  0  0  0  0
  9 19  1  0  0  0  0
 11 12  1  0  0  0  0
 11 13  1  0  0  0  0
 11 17  1  0  0  0  0
 13 14  1  0  0  0  0
 13 15  1  0  0  0  0
 13 16  1  0  0  0  0
 17 18  1  0  0  0  0
 19 20  2  0  0  0  0
 19 21  1  0  0  0  0
 21 22  1  0  0  0  0
 21 23  1  0  0  0  0
 23 24  1  0  0  0  0
 23 25  1  0  0  0  0
 23 26  1  0  0  0  0
M  END
$$$$

  -OEChem-01062216093D

 26 25  0     1  0  0  0  0  0999 V2000
   -3.0355   -3.1409    1.1942 H   0  0  0  0  0  0  0  0  0  0  0  0
   -2.9783   -2.1909    0.6553 C   0  0  0  0  0  0  0  0  0  0  0  0
   -3.7937   -1.5456    0.9910 H   0  0  0  0  0  0  0  0  0  0  0  0
   -3.0934   -2.3864   -0.4135 H   0  0  0  0  0  0  0  0  0  0  0  0
   -1.6432   -1.5209    0.9194 C   0  0  0  0  0  0  0  0  0  0  0  0
   -0.8633   -2.0012    1.7237 O   0  0  0  0  0  0  0  0  0  0  0  0
   -1.3344   -0.3303    0.3001 N   0  0  0  0  0  0  0  0  0  0  0  0
   -2.0183    0.0673   -0.3401 H   0  0  0  0  0  0  0  0  0  0  0  0
   -0.0295    0.3552    0.3847 C   0  0  1  0  0  0  0  0  0  0  0  0
    0.7554   -0.3912    0.5438 H   0  0  0  0  0  0  0  0  0  0  0  0
    0.2476    1.0429   -0.9673 C   0  0  1  0  0  0  0  0  0  0  0  0
    1.2156    1.5528   -0.9055 H   0  0  0  0  0  0  0  0  0  0  0  0
    0.3107    0.0503   -2.1296 C   0  0  0  0  0  0  0  0  0  0  0  0
   -0.6587   -0.4303   -2.2899 H   0  0  0  0  0  0  0  0  0  0  0  0
    0.5974    0.5672   -3.0500 H   0  0  0  0  0  0  0  0  0  0  0  0
    1.0549   -0.7254   -1.9248 H   0  0  0  0  0  0  0  0  0  0  0  0
   -0.7739    2.0086   -1.2398 O   0  0  0  0  0  0  0  0  0  0  0  0
   -0.4838    2.6183   -1.9406 H   0  0  0  0  0  0  0  0  0  0  0  0
    0.0859    1.3538    1.5565 C   0  0  0  0  0  0  0  0  0  0  0  0
    1.0046    2.1647    1.6002 O   0  0  0  0  0  0  0  0  0  0  0  0
   -0.8341    1.3262    2.5897 N   0  0  0  0  0  0  0  0  0  0  0  0
   -1.4554    0.5222    2.6052 H   0  0  0  0  0  0  0  0  0  0  0  0
   -0.7150    2.1453    3.7888 C   0  0  0  0  0  0  0  0  0  0  0  0
   -0.6905    3.2079    3.5250 H   0  0  0  0  0  0  0  0  0  0  0  0
   -1.5706    1.9740    4.4490 H   0  0  0  0  0  0  0  0  0  0  0  0
    0.2011    1.8955    4.3342 H   0  0  0  0  0  0  0  0  0  0  0  0
  1  2  1  0  0  0  0
  2  3  1  0  0  0  0
  2  4  1  0  0  0  0
  2  5  1  0  0  0  0
  5  6  2  0  0  0  0
  5  7  1  0  0  0  0
  7  8  1  0  0  0  0
  7  9  1  0  0  0  0
  9 10  1  0  0  0  0
  9 11  1  0  0  0  0
  9 19  1  0  0  0  0
 11 12  1  0  0  0  0
 11 13  1  0  0  0  0
 11 17  1  0  0  0  0
 13 14  1  0  0  0  0
 13 15  1  0  0  0  0
 13 16  1  0  0  0  0
 17 18  1  0  0  0  0
 19 20  2  0  0  0  0
 19 21  1  0  0  0  0
 21 22  1  0  0  0  0
 21 23  1  0  0  0  0
 23 24  1  0  0  0  0
 23 25  1  0  0  0  0
 23 26  1  0  0  0  0
M  END
$$$$

  -OEChem-01062216093D

 26 25  0     1  0  0  0  0  0999 V2000
   -3.0293   -3.1282    1.1961 H   0  0  0  0  0  0  0  0  0  0  0  0
   -2.9751   -2.1782    0.6572 C   0  0  0  0  0  0  0  0  0  0  0  0
   -3.7970   -1.5381    0.9869 H   0  0  0  0  0  0  0  0  0  0  0  0
   -3.0818   -2.3751   -0.4122 H   0  0  0  0  0  0  0  0  0  0  0  0
   -1.6470   -1.4984    0.9304 C   0  0  0  0  0  0  0  0  0  0  0  0
   -0.8798   -1.9552    1.7614 O   0  0  0  0  0  0  0  0  0  0  0  0
   -1.3371   -0.3099    0.3089 N   0  0  0  0  0  0  0  0  0  0  0  0
   -2.0196    0.0859   -0.3340 H   0  0  0  0  0  0  0  0  0  0  0  0
   -0.0287    0.3684    0.3836 C   0  0  1  0  0  0  0  0  0  0  0  0
    0.7537   -0.3805    0.5425 H   0  0  0  0  0  0  0  0  0  0  0  0
    0.2455    1.0430   -0.9765 C   0  0  1  0  0  0  0  0  0  0  0  0
    1.2161    1.5490   -0.9216 H   0  0  0  0  0  0  0  0  0  0  0  0
    0.3005    0.0408   -2.1312 C   0  0  0  0  0  0  0  0  0  0  0  0
   -0.6719   -0.4360   -2.2850 H   0  0  0  0  0  0  0  0  0  0  0  0
    0.5867    0.5496   -3.0565 H   0  0  0  0  0  0  0  0  0  0  0  0
    1.0415   -0.7370   -1.9226 H   0  0  0  0  0  0  0  0  0  0  0  0
   -0.7716    2.0115   -1.2548 O   0  0  0  0  0  0  0  0  0  0  0  0
   -0.4646    2.6387   -1.9325 H   0  0  0  0  0  0  0  0  0  0  0  0
    0.0857    1.3620    1.5603 C   0  0  0  0  0  0  0  0  0  0  0  0
    0.8480    2.3219    1.5178 O   0  0  0  0  0  0  0  0  0  0  0  0
   -0.6310    1.1245    2.7196 N   0  0  0  0  0  0  0  0  0  0  0  0
   -1.0652    0.2051    2.7843 H   0  0  0  0  0  0  0  0  0  0  0  0
   -0.4714    1.9110    3.9354 C   0  0  0  0  0  0  0  0  0  0  0  0
   -0.6879    2.9664    3.7397 H   0  0  0  0  0  0  0  0  0  0  0  0
   -1.1612    1.5558    4.7069 H   0  0  0  0  0  0  0  0  0  0  0  0
    0.5515    1.8249    4.3164 H   0  0  0  0  0  0  0  0  0  0  0  0
  1  2  1  0  0  0  0
  2  3  1  0  0  0  0
  2  4  1  0  0  0  0
  2  5  1  0  0  0  0
  5  6  2  0  0  0  0
  5  7  1  0  0  0  0
  7  8  1  0  0  0  0
  7  9  1  0  0  0  0
  9 10  1  0  0  0  0
  9 11  1  0  0  0  0
  9 19  1  0  0  0  0
 11 12  1  0  0  0  0
 11 13  1  0  0  0  0
 11 17  1  0  0  0  0
 13 14  1  0  0  0  0
 13 15  1  0  0  0  0
 13 16  1  0  0  0  0
 17 18  1  0  0  0  0
 19 20  2  0  0  0  0
 19 21  1  0  0  0  0
 21 22  1  0  0  0  0
 21 23  1  0  0  0  0
 23 24  1  0  0  0  0
 23 25  1  0  0  0  0
 23 26  1  0  0  0  0
M  END
$$$$

  -OEChem-01062216093D

 26 25  0     1  0  0  0  0  0999 V2000
   -3.0199   -3.1147    1.2163 H   0  0  0  0  0  0  0  0  0  0  0  0
   -2.9690   -2.1658    0.6750 C   0  0  0  0  0  0  0  0  0  0  0  0
   -3.7906   -1.5259    1.0059 H   0  0  0  0  0  0  0  0  0  0  0  0
   -3.0792   -2.3650   -0.3937 H   0  0  0  0  0  0  0  0  0  0  0  0
   -1.6410   -1.4830    0.9410 C   0  0  0  0  0  0  0  0  0  0  0  0
   -0.8644   -1.9399    1.7649 O   0  0  0  0  0  0  0  0  0  0  0  0
   -1.3359   -0.2952    0.3156 N   0  0  0  0  0  0  0  0  0  0  0  0
   -2.0237    0.1031   -0.3202 H   0  0  0  0  0  0  0  0  0  0  0  0
   -0.0261    0.3784    0.3814 C   0  0  1  0  0  0  0  0  0  0  0  0
    0.7565   -0.3706    0.5384 H   0  0  0  0  0  0  0  0  0  0  0  0
    0.2442    1.0425   -0.9849 C   0  0  1  0  0  0  0  0  0  0  0  0
    1.2161    1.5464   -0.9335 H   0  0  0  0  0  0  0  0  0  0  0  0
    0.2944    0.0314   -2.1319 C   0  0  0  0  0  0  0  0  0  0  0  0
   -0.6802   -0.4426   -2.2805 H   0  0  0  0  0  0  0  0  0  0  0  0
    0.5808    0.5320   -3.0615 H   0  0  0  0  0  0  0  0  0  0  0  0
    1.0326   -0.7476   -1.9185 H   0  0  0  0  0  0  0  0  0  0  0  0
   -0.7698    2.0127   -1.2698 O   0  0  0  0  0  0  0  0  0  0  0  0
   -0.4392    2.6715   -1.9049 H   0  0  0  0  0  0  0  0  0  0  0  0
    0.0852    1.3678    1.5614 C   0  0  0  0  0  0  0  0  0  0  0  0
    0.6640    2.4444    1.4618 O   0  0  0  0  0  0  0  0  0  0  0  0
   -0.3719    0.9646    2.8031 N   0  0  0  0  0  0  0  0  0  0  0  0
   -0.6740   -0.0083    2.8711 H   0  0  0  0  0  0  0  0  0  0  0  0
   -0.1738    1.7317    4.0255 C   0  0  0  0  0  0  0  0  0  0  0  0
   -0.6219    2.7261    3.9299 H   0  0  0  0  0  0  0  0  0  0  0  0
   -0.6448    1.2215    4.8709 H   0  0  0  0  0  0  0  0  0  0  0  0
    0.8942    1.8444    4.2386 H   0  0  0  0  0  0  0  0  0  0  0  0
  1  2  1  0  0  0  0
  2  3  1  0  0  0  0
  2  4  1  0  0  0  0
  2  5  1  0  0  0  0
  5  6  2  0  0  0  0
  5  7  1  0  0  0  0
  7  8  1  0  0  0  0
  7  9  1  0  0  0  0
  9 10  1  0  0  0  0
  9 11  1  0  0  0  0
  9 19  1  0  0  0  0
 11 12  1  0  0  0  0
 11 13  1  0  0  0  0
 11 17  1  0  0  0  0
 13 14  1  0  0  0  0
 13 15  1  0  0  0  0
 13 16  1  0  0  0  0
 17 18  1  0  0  0  0
 19 20  2  0  0  0  0
 19 21  1  0  0  0  0
 21 22  1  0  0  0  0
 21 23  1  0  0  0  0
 23 24  1  0  0  0  0
 23 25  1  0  0  0  0
 23 26  1  0  0  0  0
M  END
$$$$

  -OEChem-01062216093D

 26 25  0     1  0  0  0  0  0999 V2000
   -3.0593   -2.9990    1.3501 H   0  0  0  0  0  0  0  0  0  0  0  0
   -2.9661   -2.1011    0.7326 C   0  0  0  0  0  0  0  0  0  0  0  0
   -3.7648   -1.4049    1.0002 H   0  0  0  0  0  0  0  0  0  0  0  0
   -3.0751   -2.3836   -0.3174 H   0  0  0  0  0  0  0  0  0  0  0  0
   -1.6148   -1.4501    0.9567 C   0  0  0  0  0  0  0  0  0  0  0  0
   -0.8328   -1.9099    1.7754 O   0  0  0  0  0  0  0  0  0  0  0  0
   -1.2859   -0.2886    0.2934 N   0  0  0  0  0  0  0  0  0  0  0  0
   -1.9544    0.0830   -0.3788 H   0  0  0  0  0  0  0  0  0  0  0  0
    0.0552    0.3203    0.3107 C   0  0  1  0  0  0  0  0  0  0  0  0
    0.8143   -0.4559    0.4521 H   0  0  0  0  0  0  0  0  0  0  0  0
    0.3255    0.9876   -1.0547 C   0  0  1  0  0  0  0  0  0  0  0  0
    1.3254    1.4359   -1.0354 H   0  0  0  0  0  0  0  0  0  0  0  0
    0.2728   -0.0099   -2.2130 C   0  0  0  0  0  0  0  0  0  0  0  0
   -0.7298   -0.4325   -2.3241 H   0  0  0  0  0  0  0  0  0  0  0  0
    0.5400    0.4921   -3.1478 H   0  0  0  0  0  0  0  0  0  0  0  0
    0.9809   -0.8266   -2.0449 H   0  0  0  0  0  0  0  0  0  0  0  0
   -0.6424    2.0129   -1.2898 O   0  0  0  0  0  0  0  0  0  0  0  0
   -0.5400    2.6994   -0.5964 H   0  0  0  0  0  0  0  0  0  0  0  0
    0.1958    1.3141    1.4826 C   0  0  0  0  0  0  0  0  0  0  0  0
    0.3866    2.5129    1.2976 O   0  0  0  0  0  0  0  0  0  0  0  0
    0.0308    0.8421    2.7704 N   0  0  0  0  0  0  0  0  0  0  0  0
   -0.1832   -0.1534    2.8656 H   0  0  0  0  0  0  0  0  0  0  0  0
    0.0690    1.6820    3.9596 C   0  0  0  0  0  0  0  0  0  0  0  0
   -0.7213    2.4387    3.9198 H   0  0  0  0  0  0  0  0  0  0  0  0
   -0.0802    1.0719    4.8556 H   0  0  0  0  0  0  0  0  0  0  0  0
    1.0376    2.1859    4.0421 H   0  0  0  0  0  0  0  0  0  0  0  0
  1  2  1  0  0  0  0
  2  3  1  0  0  0  0
  2  4  1  0  0  0  0
  2  5  1  0  0  0  0
  5  6  2  0  0  0  0
  5  7  1  0  0  0  0
  7  8  1  0  0  0  0
  7  9  1  0  0  0  0
  9 10  1  0  0  0  0
  9 11  1  0  0  0  0
  9 19  1  0  0  0  0
 11 12  1  0  0  0  0
 11 13  1  0  0  0  0
 11 17  1  0  0  0  0
 13 14  1  0  0  0  0
 13 15  1  0  0  0  0
 13 16  1  0  0  0  0
 17 18  1  0  0  0  0
 19 20  2  0  0  0  0
 19 21  1  0  0  0  0
 21 22  1  0  0  0  0
 21 23  1  0  0  0  0
 23 24  1  0  0  0  0
 23 25  1  0  0  0  0
 23 26  1  0  0  0  0
M  END
$$$$

  -OEChem-01062216093D

 26 25  0     1  0  0  0  0  0999 V2000
   -3.0377   -2.9835    1.3792 H   0  0  0  0  0  0  0  0  0  0  0  0
   -2.9543   -2.0863    0.7595 C   0  0  0  0  0  0  0  0  0  0  0  0
   -3.7510   -1.3917    1.0370 H   0  0  0  0  0  0  0  0  0  0  0  0
   -3.0758   -2.3701   -0.2888 H   0  0  0  0  0  0  0  0  0  0  0  0
   -1.6014   -1.4326    0.9658 C   0  0  0  0  0  0  0  0  0  0  0  0
   -0.8029   -1.8973    1.7665 O   0  0  0  0  0  0  0  0  0  0  0  0
   -1.2799   -0.2749    0.2920 N   0  0  0  0  0  0  0  0  0  0  0  0
   -1.9553    0.0995   -0.3716 H   0  0  0  0  0  0  0  0  0  0  0  0
    0.0630    0.3264    0.3023 C   0  0  1  0  0  0  0  0  0  0  0  0
    0.8208   -0.4517    0.4405 H   0  0  0  0  0  0  0  0  0  0  0  0
    0.3300    0.9868   -1.0668 C   0  0  1  0  0  0  0  0  0  0  0  0
    1.3313    1.4318   -1.0493 H   0  0  0  0  0  0  0  0  0  0  0  0
    0.2713   -0.0161   -2.2197 C   0  0  0  0  0  0  0  0  0  0  0  0
   -0.7332   -0.4353   -2.3262 H   0  0  0  0  0  0  0  0  0  0  0  0
    0.5381    0.4802   -3.1576 H   0  0  0  0  0  0  0  0  0  0  0  0
    0.9763   -0.8349   -2.0487 H   0  0  0  0  0  0  0  0  0  0  0  0
   -0.6325    2.0163   -1.3059 O   0  0  0  0  0  0  0  0  0  0  0  0
   -0.5610    2.6789   -0.5843 H   0  0  0  0  0  0  0  0  0  0  0  0
    0.2089    1.3231    1.4691 C   0  0  0  0  0  0  0  0  0  0  0  0
    0.1932    2.5386    1.2924 O   0  0  0  0  0  0  0  0  0  0  0  0
    0.3567    0.8167    2.7455 N   0  0  0  0  0  0  0  0  0  0  0  0
    0.2126   -0.1903    2.8472 H   0  0  0  0  0  0  0  0  0  0  0  0
    0.4097    1.6469    3.9411 C   0  0  0  0  0  0  0  0  0  0  0  0
   -0.5187    2.2161    4.0539 H   0  0  0  0  0  0  0  0  0  0  0  0
    0.5435    1.0209    4.8285 H   0  0  0  0  0  0  0  0  0  0  0  0
    1.2493    2.3474    3.8842 H   0  0  0  0  0  0  0  0  0  0  0  0
  1  2  1  0  0  0  0
  2  3  1  0  0  0  0
  2  4  1  0  0  0  0
  2  5  1  0  0  0  0
  5  6  2  0  0  0  0
  5  7  1  0  0  0  0
  7  8  1  0  0  0  0
  7  9  1  0  0  0  0
  9 10  1  0  0  0  0
  9 11  1  0  0  0  0
  9 19  1  0  0  0  0
 11 12  1  0  0  0  0
 11 13  1  0  0  0  0
 11 17  1  0  0  0  0
 13 14  1  0  0  0  0
 13 15  1  0  0  0  0
 13 16  1  0  0  0  0
 17 18  1  0  0  0  0
 19 20  2  0  0  0  0
 19 21  1  0  0  0  0
 21 22  1  0  0  0  0
 21 23  1  0  0  0  0
 23 24  1  0  0  0  0
 23 25  1  0  0  0  0
 23 26  1  0  0  0  0
M  END
$$$$

  -OEChem-01062216093D

 26 25  0     1  0  0  0  0  0999 V2000
   -2.9940   -3.0488    1.3474 H   0  0  0  0  0  0  0  0  0  0  0  0
   -2.9570   -2.1016    0.8021 C   0  0  0  0  0  0  0  0  0  0  0  0
   -3.7097   -1.4265    1.2167 H   0  0  0  0  0  0  0  0  0  0  0  0
   -3.1870   -2.2913   -0.2492 H   0  0  0  0  0  0  0  0  0  0  0  0
   -1.5791   -1.4801    0.9275 C   0  0  0  0  0  0  0  0  0  0  0  0
   -0.7198   -2.0150    1.6130 O   0  0  0  0  0  0  0  0  0  0  0  0
   -1.3029   -0.2806    0.3094 N   0  0  0  0  0  0  0  0  0  0  0  0
   -2.0474    0.1891   -0.2020 H   0  0  0  0  0  0  0  0  0  0  0  0
    0.0064    0.3855    0.3525 C   0  0  1  0  0  0  0  0  0  0  0  0
    0.7918   -0.3666    0.4771 H   0  0  0  0  0  0  0  0  0  0  0  0
    0.2640    1.0476   -1.0185 C   0  0  1  0  0  0  0  0  0  0  0  0
    1.2368    1.5487   -0.9648 H   0  0  0  0  0  0  0  0  0  0  0  0
    0.3091    0.0331   -2.1625 C   0  0  0  0  0  0  0  0  0  0  0  0
   -0.6653   -0.4450   -2.2996 H   0  0  0  0  0  0  0  0  0  0  0  0
    0.5844    0.5317   -3.0965 H   0  0  0  0  0  0  0  0  0  0  0  0
    1.0520   -0.7427   -1.9536 H   0  0  0  0  0  0  0  0  0  0  0  0
   -0.7363    2.0267   -1.3165 O   0  0  0  0  0  0  0  0  0  0  0  0
   -0.3935    2.6920   -1.9370 H   0  0  0  0  0  0  0  0  0  0  0  0
    0.1368    1.3490    1.5511 C   0  0  0  0  0  0  0  0  0  0  0  0
   -0.0550    2.5566    1.4732 O   0  0  0  0  0  0  0  0  0  0  0  0
    0.6306    0.8296    2.7342 N   0  0  0  0  0  0  0  0  0  0  0  0
    0.6459   -0.1880    2.8025 H   0  0  0  0  0  0  0  0  0  0  0  0
    0.7807    1.6148    3.9528 C   0  0  0  0  0  0  0  0  0  0  0  0
   -0.1885    2.0075    4.2772 H   0  0  0  0  0  0  0  0  0  0  0  0
    1.1892    0.9923    4.7545 H   0  0  0  0  0  0  0  0  0  0  0  0
    1.4640    2.4541    3.7865 H   0  0  0  0  0  0  0  0  0  0  0  0
  1  2  1  0  0  0  0
  2  3  1  0  0  0  0
  2  4  1  0  0  0  0
  2  5  1  0  0  0  0
  5  6  2  0  0  0  0
  5  7  1  0  0  0  0
  7  8  1  0  0  0  0
  7  9  1  0  0  0  0
  9 10  1  0  0  0  0
  9 11  1  0  0  0  0
  9 19  1  0  0  0  0
 11 12  1  0  0  0  0
 11 13  1  0  0  0  0
 11 17  1  0  0  0  0
 13 14  1  0  0  0  0
 13 15  1  0  0  0  0
 13 16  1  0  0  0  0
 17 18  1  0  0  0  0
 19 20  2  0  0  0  0
 19 21  1  0  0  0  0
 21 22  1  0  0  0  0
 21 23  1  0  0  0  0
 23 24  1  0  0  0  0
 23 25  1  0  0  0  0
 23 26  1  0  0  0  0
M  END
$$$$

  -OEChem-01062216093D

 26 25  0     1  0  0  0  0  0999 V2000
   -3.0025   -3.0029    1.4189 H   0  0  0  0  0  0  0  0  0  0  0  0
   -2.9651   -2.0555    0.8741 C   0  0  0  0  0  0  0  0  0  0  0  0
   -3.6566   -1.3516    1.3437 H   0  0  0  0  0  0  0  0  0  0  0  0
   -3.2778   -2.2298   -0.1582 H   0  0  0  0  0  0  0  0  0  0  0  0
   -1.5570   -1.4927    0.9007 C   0  0  0  0  0  0  0  0  0  0  0  0
   -0.6665   -2.0892    1.4879 O   0  0  0  0  0  0  0  0  0  0  0  0
   -1.2853   -0.2897    0.2873 N   0  0  0  0  0  0  0  0  0  0  0  0
   -2.0625    0.2406   -0.1013 H   0  0  0  0  0  0  0  0  0  0  0  0
    0.0225    0.3795    0.3261 C   0  0  1  0  0  0  0  0  0  0  0  0
    0.8054   -0.3756    0.4460 H   0  0  0  0  0  0  0  0  0  0  0  0
    0.2943    1.0566   -1.0347 C   0  0  1  0  0  0  0  0  0  0  0  0
    1.2706    1.5496   -0.9717 H   0  0  0  0  0  0  0  0  0  0  0  0
    0.3365    0.0487   -2.1846 C   0  0  0  0  0  0  0  0  0  0  0  0
   -0.6418   -0.4201   -2.3278 H   0  0  0  0  0  0  0  0  0  0  0  0
    0.6203    0.5499   -3.1145 H   0  0  0  0  0  0  0  0  0  0  0  0
    1.0711   -0.7353   -1.9770 H   0  0  0  0  0  0  0  0  0  0  0  0
   -0.6953    2.0442   -1.3361 O   0  0  0  0  0  0  0  0  0  0  0  0
   -0.4043    2.6167   -2.0656 H   0  0  0  0  0  0  0  0  0  0  0  0
    0.1560    1.3383    1.5282 C   0  0  0  0  0  0  0  0  0  0  0  0
   -0.4104    2.4233    1.5777 O   0  0  0  0  0  0  0  0  0  0  0  0
    0.9340    0.9443    2.6029 N   0  0  0  0  0  0  0  0  0  0  0  0
    1.2171   -0.0333    2.6173 H   0  0  0  0  0  0  0  0  0  0  0  0
    1.0323    1.7122    3.8383 C   0  0  0  0  0  0  0  0  0  0  0  0
    0.0531    1.7853    4.3230 H   0  0  0  0  0  0  0  0  0  0  0  0
    1.7273    1.2264    4.5299 H   0  0  0  0  0  0  0  0  0  0  0  0
    1.4013    2.7229    3.6341 H   0  0  0  0  0  0  0  0  0  0  0  0
  1  2  1  0  0  0  0
  2  3  1  0  0  0  0
  2  4  1  0  0  0  0
  2  5  1  0  0  0  0
  5  6  2  0  0  0  0
  5  7  1  0  0  0  0
  7  8  1  0  0  0  0
  7  9  1  0  0  0  0
  9 10  1  0  0  0  0
  9 11  1  0  0  0  0
  9 19  1  0  0  0  0
 11 12  1  0  0  0  0
 11 13  1  0  0  0  0
 11 17  1  0  0  0  0
 13 14  1  0  0  0  0
 13 15  1  0  0  0  0
 13 16  1  0  0  0  0
 17 18  1  0  0  0  0
 19 20  2  0  0  0  0
 19 21  1  0  0  0  0
 21 22  1  0  0  0  0
 21 23  1  0  0  0  0
 23 24  1  0  0  0  0
 23 25  1  0  0  0  0
 23 26  1  0  0  0  0
M  END
$$$$

  -OEChem-01062216093D

 26 25  0     1  0  0  0  0  0999 V2000
   -3.0033   -2.9573    1.5065 H   0  0  0  0  0  0  0  0  0  0  0  0
   -2.9660   -2.0173    0.9488 C   0  0  0  0  0  0  0  0  0  0  0  0
   -3.5979   -1.2826    1.4540 H   0  0  0  0  0  0  0  0  0  0  0  0
   -3.3524   -2.1889   -0.0587 H   0  0  0  0  0  0  0  0  0  0  0  0
   -1.5390   -1.5080    0.8764 C   0  0  0  0  0  0  0  0  0  0  0  0
   -0.6319   -2.1513    1.3827 O   0  0  0  0  0  0  0  0  0  0  0  0
   -1.2698   -0.3091    0.2533 N   0  0  0  0  0  0  0  0  0  0  0  0
   -2.0629    0.2657   -0.0234 H   0  0  0  0  0  0  0  0  0  0  0  0
    0.0377    0.3623    0.2941 C   0  0  1  0  0  0  0  0  0  0  0  0
    0.8206   -0.3916    0.4196 H   0  0  0  0  0  0  0  0  0  0  0  0
    0.3225    1.0589   -1.0522 C   0  0  1  0  0  0  0  0  0  0  0  0
    1.3018    1.5447   -0.9798 H   0  0  0  0  0  0  0  0  0  0  0  0
    0.3603    0.0664   -2.2152 C   0  0  0  0  0  0  0  0  0  0  0  0
   -0.6203   -0.3956   -2.3645 H   0  0  0  0  0  0  0  0  0  0  0  0
    0.6471    0.5777   -3.1387 H   0  0  0  0  0  0  0  0  0  0  0  0
    1.0907   -0.7240   -2.0176 H   0  0  0  0  0  0  0  0  0  0  0  0
   -0.6621    2.0540   -1.3420 O   0  0  0  0  0  0  0  0  0  0  0  0
   -0.4068    2.5816   -2.1173 H   0  0  0  0  0  0  0  0  0  0  0  0
    0.1556    1.3288    1.4905 C   0  0  0  0  0  0  0  0  0  0  0  0
   -0.6714    2.2114    1.6894 O   0  0  0  0  0  0  0  0  0  0  0  0
    1.1484    1.1230    2.4333 N   0  0  0  0  0  0  0  0  0  0  0  0
    1.6830    0.2621    2.3527 H   0  0  0  0  0  0  0  0  0  0  0  0
    1.2271    1.8735    3.6808 C   0  0  0  0  0  0  0  0  0  0  0  0
    0.3295    1.7068    4.2854 H   0  0  0  0  0  0  0  0  0  0  0  0
    2.0993    1.5543    4.2592 H   0  0  0  0  0  0  0  0  0  0  0  0
    1.3223    2.9455    3.4784 H   0  0  0  0  0  0  0  0  0  0  0  0
  1  2  1  0  0  0  0
  2  3  1  0  0  0  0
  2  4  1  0  0  0  0
  2  5  1  0  0  0  0
  5  6  2  0  0  0  0
  5  7  1  0  0  0  0
  7  8  1  0  0  0  0
  7  9  1  0  0  0  0
  9 10  1  0  0  0  0
  9 11  1  0  0  0  0
  9 19  1  0  0  0  0
 11 12  1  0  0  0  0
 11 13  1  0  0  0  0
 11 17  1  0  0  0  0
 13 14  1  0  0  0  0
 13 15  1  0  0  0  0
 13 16  1  0  0  0  0
 17 18  1  0  0  0  0
 19 20  2  0  0  0  0
 19 21  1  0  0  0  0
 21 22  1  0  0  0  0
 21 23  1  0  0  0  0
 23 24  1  0  0  0  0
 23 25  1  0  0  0  0
 23 26  1  0  0  0  0
M  END
$$$$

  -OEChem-01062216093D

 26 25  0     1  0  0  0  0  0999 V2000
   -3.0025   -2.9385    1.5476 H   0  0  0  0  0  0  0  0  0  0  0  0
   -2.9671   -1.9980    0.9908 C   0  0  0  0  0  0  0  0  0  0  0  0
   -3.5591   -1.2503    1.5245 H   0  0  0  0  0  0  0  0  0  0  0  0
   -3.4003   -2.1570    0.0006 H   0  0  0  0  0  0  0  0  0  0  0  0
   -1.5329   -1.5219    0.8584 C   0  0  0  0  0  0  0  0  0  0  0  0
   -0.6214   -2.1893    1.3241 O   0  0  0  0  0  0  0  0  0  0  0  0
   -1.2648   -0.3286    0.2236 N   0  0  0  0  0  0  0  0  0  0  0  0
   -2.0619    0.2674    0.0102 H   0  0  0  0  0  0  0  0  0  0  0  0
    0.0430    0.3443    0.2751 C   0  0  1  0  0  0  0  0  0  0  0  0
    0.8268   -0.4065    0.4127 H   0  0  0  0  0  0  0  0  0  0  0  0
    0.3385    1.0573   -1.0593 C   0  0  1  0  0  0  0  0  0  0  0  0
    1.3187    1.5400   -0.9783 H   0  0  0  0  0  0  0  0  0  0  0  0
    0.3768    0.0787   -2.2337 C   0  0  0  0  0  0  0  0  0  0  0  0
   -0.6070   -0.3718   -2.3967 H   0  0  0  0  0  0  0  0  0  0  0  0
    0.6765    0.5974   -3.1488 H   0  0  0  0  0  0  0  0  0  0  0  0
    1.0973   -0.7213   -2.0392 H   0  0  0  0  0  0  0  0  0  0  0  0
   -0.6456    2.0563   -1.3375 O   0  0  0  0  0  0  0  0  0  0  0  0
   -0.4163    2.5576   -2.1381 H   0  0  0  0  0  0  0  0  0  0  0  0
    0.1400    1.3215    1.4640 C   0  0  0  0  0  0  0  0  0  0  0  0
   -0.8178    2.0105    1.7996 O   0  0  0  0  0  0  0  0  0  0  0  0
    1.2797    1.3338    2.2503 N   0  0  0  0  0  0  0  0  0  0  0  0
    1.9833    0.6270    2.0566 H   0  0  0  0  0  0  0  0  0  0  0  0
    1.3807    2.0953    3.4894 C   0  0  0  0  0  0  0  0  0  0  0  0
    0.6317    1.7532    4.2113 H   0  0  0  0  0  0  0  0  0  0  0  0
    2.3730    1.9668    3.9321 H   0  0  0  0  0  0  0  0  0  0  0  0
    1.2244    3.1621    3.2977 H   0  0  0  0  0  0  0  0  0  0  0  0
  1  2  1  0  0  0  0
  2  3  1  0  0  0  0
  2  4  1  0  0  0  0
  2  5  1  0  0  0  0
  5  6  2  0  0  0  0
  5  7  1  0  0  0  0
  7  8  1  0  0  0  0
  7  9  1  0  0  0  0
  9 10  1  0  0  0  0
  9 11  1  0  0  0  0
  9 19  1  0  0  0  0
 11 12  1  0  0  0  0
 11 13  1  0  0  0  0
 11 17  1  0  0  0  0
 13 14  1  0  0  0  0
 13 15  1  0  0  0  0
 13 16  1  0  0  0  0
 17 18  1  0  0  0  0
 19 20  2  0  0  0  0
 19 21  1  0  0  0  0
 21 22  1  0  0  0  0
 21 23  1  0  0  0  0
 23 24  1  0  0  0  0
 23 25  1  0  0  0  0
 23 26  1  0  0  0  0
M  END
$$$$

  -OEChem-01062216093D

 26 25  0     1  0  0  0  0  0999 V2000
   -3.0120   -2.9428    1.5378 H   0  0  0  0  0  0  0  0  0  0  0  0
   -2.9749   -1.9937    0.9960 C   0  0  0  0  0  0  0  0  0  0  0  0
   -3.5446   -1.2466    1.5546 H   0  0  0  0  0  0  0  0  0  0  0  0
   -3.4307   -2.1304    0.0124 H   0  0  0  0  0  0  0  0  0  0  0  0
   -1.5372   -1.5356    0.8417 C   0  0  0  0  0  0  0  0  0  0  0  0
   -0.6265   -2.2194    1.2844 O   0  0  0  0  0  0  0  0  0  0  0  0
   -1.2666   -0.3447    0.2036 N   0  0  0  0  0  0  0  0  0  0  0  0
   -2.0641    0.2589    0.0159 H   0  0  0  0  0  0  0  0  0  0  0  0
    0.0395    0.3311    0.2739 C   0  0  1  0  0  0  0  0  0  0  0  0
    0.8253   -0.4157    0.4227 H   0  0  0  0  0  0  0  0  0  0  0  0
    0.3402    1.0522   -1.0541 C   0  0  1  0  0  0  0  0  0  0  0  0
    1.3176    1.5395   -0.9674 H   0  0  0  0  0  0  0  0  0  0  0  0
    0.3889    0.0808   -2.2343 C   0  0  0  0  0  0  0  0  0  0  0  0
   -0.5925   -0.3720   -2.4064 H   0  0  0  0  0  0  0  0  0  0  0  0
    0.6935    0.6062   -3.1441 H   0  0  0  0  0  0  0  0  0  0  0  0
    1.1104   -0.7185   -2.0392 H   0  0  0  0  0  0  0  0  0  0  0  0
   -0.6502    2.0472   -1.3258 O   0  0  0  0  0  0  0  0  0  0  0  0
   -0.4369    2.5374   -2.1379 H   0  0  0  0  0  0  0  0  0  0  0  0
    0.1221    1.3164    1.4576 C   0  0  0  0  0  0  0  0  0  0  0  0
   -0.8894    1.8253    1.9308 O   0  0  0  0  0  0  0  0  0  0  0  0
    1.3420    1.5618    2.0653 N   0  0  0  0  0  0  0  0  0  0  0  0
    2.1408    1.0238    1.7431 H   0  0  0  0  0  0  0  0  0  0  0  0
    1.4822    2.3669    3.2726 C   0  0  0  0  0  0  0  0  0  0  0  0
    0.9270    1.9141    4.1009 H   0  0  0  0  0  0  0  0  0  0  0  0
    2.5358    2.4381    3.5591 H   0  0  0  0  0  0  0  0  0  0  0  0
    1.1019    3.3800    3.1044 H   0  0  0  0  0  0  0  0  0  0  0  0
  1  2  1  0  0  0  0
  2  3  1  0  0  0  0
  2  4  1  0  0  0  0
  2  5  1  0  0  0  0
  5  6  2  0  0  0  0
  5  7  1  0  0  0  0
  7  8  1  0  0  0  0
  7  9  1  0  0  0  0
  9 10  1  0  0  0  0
  9 11  1  0  0  0  0
  9 19  1  0  0  0  0
 11 12  1  0  0  0  0
 11 13  1  0  0  0  0
 11 17  1  0  0  0  0
 13 14  1  0  0  0  0
 13 15  1  0  0  0  0
 13 16  1  0  0  0  0
 17 18  1  0  0  0  0
 19 20  2  0  0  0  0
 19 21  1  0  0  0  0
 21 22  1  0  0  0  0
 21 23  1  0  0  0  0
 23 24  1  0  0  0  0
 23 25  1  0  0  0  0
 23 26  1  0  0  0  0
M  END
$$$$

  -OEChem-01062216093D

 26 25  0     1  0  0  0  0  0999 V2000
   -3.0159   -2.9414    1.5427 H   0  0  0  0  0  0  0  0  0  0  0  0
   -2.9783   -1.9928    1.0001 C   0  0  0  0  0  0  0  0  0  0  0  0
   -3.5325   -1.2410    1.5675 H   0  0  0  0  0  0  0  0  0  0  0  0
   -3.4506   -2.1251    0.0239 H   0  0  0  0  0  0  0  0  0  0  0  0
   -1.5391   -1.5475    0.8239 C   0  0  0  0  0  0  0  0  0  0  0  0
   -0.6281   -2.2477    1.2393 O   0  0  0  0  0  0  0  0  0  0  0  0
   -1.2673   -0.3559    0.1868 N   0  0  0  0  0  0  0  0  0  0  0  0
   -2.0644    0.2556    0.0264 H   0  0  0  0  0  0  0  0  0  0  0  0
    0.0395    0.3185    0.2743 C   0  0  1  0  0  0  0  0  0  0  0  0
    0.8268   -0.4255    0.4286 H   0  0  0  0  0  0  0  0  0  0  0  0
    0.3425    1.0478   -1.0491 C   0  0  1  0  0  0  0  0  0  0  0  0
    1.3194    1.5357   -0.9618 H   0  0  0  0  0  0  0  0  0  0  0  0
    0.3924    0.0832   -2.2347 C   0  0  0  0  0  0  0  0  0  0  0  0
   -0.5898   -0.3643   -2.4150 H   0  0  0  0  0  0  0  0  0  0  0  0
    0.7042    0.6128   -3.1395 H   0  0  0  0  0  0  0  0  0  0  0  0
    1.1092   -0.7206   -2.0410 H   0  0  0  0  0  0  0  0  0  0  0  0
   -0.6510    2.0421   -1.3133 O   0  0  0  0  0  0  0  0  0  0  0  0
   -0.4538    2.5197   -2.1370 H   0  0  0  0  0  0  0  0  0  0  0  0
    0.1106    1.3044    1.4599 C   0  0  0  0  0  0  0  0  0  0  0  0
   -0.9024    1.6404    2.0661 O   0  0  0  0  0  0  0  0  0  0  0  0
    1.3359    1.7898    1.8859 N   0  0  0  0  0  0  0  0  0  0  0  0
    2.1685    1.4309    1.4290 H   0  0  0  0  0  0  0  0  0  0  0  0
    1.4908    2.6538    3.0499 C   0  0  0  0  0  0  0  0  0  0  0  0
    1.1336    2.1473    3.9527 H   0  0  0  0  0  0  0  0  0  0  0  0
    2.5447    2.9119    3.1917 H   0  0  0  0  0  0  0  0  0  0  0  0
    0.9231    3.5809    2.9172 H   0  0  0  0  0  0  0  0  0  0  0  0
  1  2  1  0  0  0  0
  2  3  1  0  0  0  0
  2  4  1  0  0  0  0
  2  5  1  0  0  0  0
  5  6  2  0  0  0  0
  5  7  1  0  0  0  0
  7  8  1  0  0  0  0
  7  9  1  0  0  0  0
  9 10  1  0  0  0  0
  9 11  1  0  0  0  0
  9 19  1  0  0  0  0
 11 12  1  0  0  0  0
 11 13  1  0  0  0  0
 11 17  1  0  0  0  0
 13 14  1  0  0  0  0
 13 15  1  0  0  0  0
 13 16  1  0  0  0  0
 17 18  1  0  0  0  0
 19 20  2  0  0  0  0
 19 21  1  0  0  0  0
 21 22  1  0  0  0  0
 21 23  1  0  0  0  0
 23 24  1  0  0  0  0
 23 25  1  0  0  0  0
 23 26  1  0  0  0  0
M  END
$$$$

  -OEChem-01062216093D

 26 25  0     1  0  0  0  0  0999 V2000
   -2.9657   -2.9640    1.5326 H   0  0  0  0  0  0  0  0  0  0  0  0
   -2.9511   -1.9820    1.0519 C   0  0  0  0  0  0  0  0  0  0  0  0
   -3.4321   -1.2584    1.7147 H   0  0  0  0  0  0  0  0  0  0  0  0
   -3.5107   -2.0384    0.1153 H   0  0  0  0  0  0  0  0  0  0  0  0
   -1.5216   -1.5552    0.7786 C   0  0  0  0  0  0  0  0  0  0  0  0
   -0.5939   -2.2885    1.0872 O   0  0  0  0  0  0  0  0  0  0  0  0
   -1.2744   -0.3527    0.1498 N   0  0  0  0  0  0  0  0  0  0  0  0
   -2.0749    0.2700    0.0754 H   0  0  0  0  0  0  0  0  0  0  0  0
    0.0319    0.3193    0.2648 C   0  0  1  0  0  0  0  0  0  0  0  0
    0.8285   -0.4225    0.1507 H   0  0  0  0  0  0  0  0  0  0  0  0
    0.1767    1.3443   -0.8791 C   0  0  1  0  0  0  0  0  0  0  0  0
    1.1523    1.8342   -0.7914 H   0  0  0  0  0  0  0  0  0  0  0  0
    0.1005    0.6840   -2.2570 C   0  0  0  0  0  0  0  0  0  0  0  0
   -0.8898    0.2518   -2.4298 H   0  0  0  0  0  0  0  0  0  0  0  0
    0.2985    1.4211   -3.0406 H   0  0  0  0  0  0  0  0  0  0  0  0
    0.8457   -0.1132   -2.3378 H   0  0  0  0  0  0  0  0  0  0  0  0
   -0.8519    2.3346   -0.7914 O   0  0  0  0  0  0  0  0  0  0  0  0
   -0.7547    2.9986   -1.4955 H   0  0  0  0  0  0  0  0  0  0  0  0
    0.2417    0.9969    1.6403 C   0  0  0  0  0  0  0  0  0  0  0  0
   -0.6373    0.9807    2.4968 O   0  0  0  0  0  0  0  0  0  0  0  0
    1.4194    1.6730    1.9173 N   0  0  0  0  0  0  0  0  0  0  0  0
    2.1536    1.6480    1.2173 H   0  0  0  0  0  0  0  0  0  0  0  0
    1.6889    2.3191    3.1963 C   0  0  0  0  0  0  0  0  0  0  0  0
    1.6686    1.5846    4.0082 H   0  0  0  0  0  0  0  0  0  0  0  0
    2.6759    2.7910    3.1813 H   0  0  0  0  0  0  0  0  0  0  0  0
    0.9403    3.0917    3.4009 H   0  0  0  0  0  0  0  0  0  0  0  0
  1  2  1  0  0  0  0
  2  3  1  0  0  0  0
  2  4  1  0  0  0  0
  2  5  1  0  0  0  0
  5  6  2  0  0  0  0
  5  7  1  0  0  0  0
  7  8  1  0  0  0  0
  7  9  1  0  0  0  0
  9 10  1  0  0  0  0
  9 11  1  0  0  0  0
  9 19  1  0  0  0  0
 11 12  1  0  0  0  0
 11 13  1  0  0  0  0
 11 17  1  0  0  0  0
 13 14  1  0  0  0  0
 13 15  1  0  0  0  0
 13 16  1  0  0  0  0
 17 18  1  0  0  0  0
 19 20  2  0  0  0  0
 19 21  1  0  0  0  0
 21 22  1  0  0  0  0
 21 23  1  0  0  0  0
 23 24  1  0  0  0  0
 23 25  1  0  0  0  0
 23 26  1  0  0  0  0
M  END
$$$$

  -OEChem-01062216093D

 26 25  0     1  0  0  0  0  0999 V2000
   -2.9640   -2.9533    1.5366 H   0  0  0  0  0  0  0  0  0  0  0  0
   -2.9481   -1.9652    1.0687 C   0  0  0  0  0  0  0  0  0  0  0  0
   -3.3990   -1.2445    1.7555 H   0  0  0  0  0  0  0  0  0  0  0  0
   -3.5344   -2.0002    0.1477 H   0  0  0  0  0  0  0  0  0  0  0  0
   -1.5200   -1.5569    0.7609 C   0  0  0  0  0  0  0  0  0  0  0  0
   -0.5977   -2.3158    1.0190 O   0  0  0  0  0  0  0  0  0  0  0  0
   -1.2696   -0.3486    0.1429 N   0  0  0  0  0  0  0  0  0  0  0  0
   -2.0669    0.2793    0.0845 H   0  0  0  0  0  0  0  0  0  0  0  0
    0.0420    0.3149    0.2603 C   0  0  1  0  0  0  0  0  0  0  0  0
    0.8355   -0.4297    0.1422 H   0  0  0  0  0  0  0  0  0  0  0  0
    0.1876    1.3372   -0.8874 C   0  0  1  0  0  0  0  0  0  0  0  0
    1.1667    1.8213   -0.8117 H   0  0  0  0  0  0  0  0  0  0  0  0
    0.0983    0.6730   -2.2629 C   0  0  0  0  0  0  0  0  0  0  0  0
   -0.8939    0.2412   -2.4263 H   0  0  0  0  0  0  0  0  0  0  0  0
    0.2903    1.4068   -3.0510 H   0  0  0  0  0  0  0  0  0  0  0  0
    0.8417   -0.1256   -2.3471 H   0  0  0  0  0  0  0  0  0  0  0  0
   -0.8377    2.3309   -0.7979 O   0  0  0  0  0  0  0  0  0  0  0  0
   -0.7607    2.9742   -1.5238 H   0  0  0  0  0  0  0  0  0  0  0  0
    0.2579    0.9781    1.6455 C   0  0  0  0  0  0  0  0  0  0  0  0
   -0.5102    0.7604    2.5774 O   0  0  0  0  0  0  0  0  0  0  0  0
    1.2760    1.8968    1.8472 N   0  0  0  0  0  0  0  0  0  0  0  0
    1.8786    2.1129    1.0604 H   0  0  0  0  0  0  0  0  0  0  0  0
    1.4830    2.6029    3.1059 C   0  0  0  0  0  0  0  0  0  0  0  0
    1.6609    1.8919    3.9197 H   0  0  0  0  0  0  0  0  0  0  0  0
    2.3510    3.2645    3.0299 H   0  0  0  0  0  0  0  0  0  0  0  0
    0.6054    3.2095    3.3529 H   0  0  0  0  0  0  0  0  0  0  0  0
  1  2  1  0  0  0  0
  2  3  1  0  0  0  0
  2  4  1  0  0  0  0
  2  5  1  0  0  0  0
  5  6  2  0  0  0  0
  5  7  1  0  0  0  0
  7  8  1  0  0  0  0
  7  9  1  0  0  0  0
  9 10  1  0  0  0  0
  9 11  1  0  0  0  0
  9 19  1  0  0  0  0
 11 12  1  0  0  0  0
 11 13  1  0  0  0  0
 11 17  1  0  0  0  0
 13 14  1  0  0  0  0
 13 15  1  0  0  0  0
 13 16  1  0  0  0  0
 17 18  1  0  0  0  0
 19 20  2  0  0  0  0
 19 21  1  0  0  0  0
 21 22  1  0  0  0  0
 21 23  1  0  0  0  0
 23 24  1  0  0  0  0
 23 25  1  0  0  0  0
 23 26  1  0  0  0  0
M  END
$$$$

  -OEChem-01062216093D

 26 25  0     1  0  0  0  0  0999 V2000
   -2.9616   -2.9348    1.5585 H   0  0  0  0  0  0  0  0  0  0  0  0
   -2.9460   -1.9511    1.0814 C   0  0  0  0  0  0  0  0  0  0  0  0
   -3.3899   -1.2231    1.7648 H   0  0  0  0  0  0  0  0  0  0  0  0
   -3.5393   -1.9931    0.1651 H   0  0  0  0  0  0  0  0  0  0  0  0
   -1.5188   -1.5505    0.7595 C   0  0  0  0  0  0  0  0  0  0  0  0
   -0.6029   -2.3293    0.9761 O   0  0  0  0  0  0  0  0  0  0  0  0
   -1.2675   -0.3373    0.1506 N   0  0  0  0  0  0  0  0  0  0  0  0
   -2.0654    0.2890    0.0901 H   0  0  0  0  0  0  0  0  0  0  0  0
    0.0463    0.3249    0.2583 C   0  0  1  0  0  0  0  0  0  0  0  0
    0.8354   -0.4243    0.1390 H   0  0  0  0  0  0  0  0  0  0  0  0
    0.1994    1.3359   -0.8986 C   0  0  1  0  0  0  0  0  0  0  0  0
    1.1835    1.8111   -0.8310 H   0  0  0  0  0  0  0  0  0  0  0  0
    0.1026    0.6569   -2.2663 C   0  0  0  0  0  0  0  0  0  0  0  0
   -0.8944    0.2345   -2.4248 H   0  0  0  0  0  0  0  0  0  0  0  0
    0.3035    1.3794   -3.0627 H   0  0  0  0  0  0  0  0  0  0  0  0
    0.8371   -0.1509   -2.3416 H   0  0  0  0  0  0  0  0  0  0  0  0
   -0.8199    2.3368   -0.8209 O   0  0  0  0  0  0  0  0  0  0  0  0
   -0.7661    2.9437   -1.5799 H   0  0  0  0  0  0  0  0  0  0  0  0
    0.2769    0.9783    1.6477 C   0  0  0  0  0  0  0  0  0  0  0  0
   -0.3008    0.5589    2.6447 O   0  0  0  0  0  0  0  0  0  0  0  0
    1.0734    2.1036    1.7948 N   0  0  0  0  0  0  0  0  0  0  0  0
    1.4095    2.5435    0.9447 H   0  0  0  0  0  0  0  0  0  0  0  0
    1.2175    2.8238    3.0547 C   0  0  0  0  0  0  0  0  0  0  0  0
    1.5974    2.1570    3.8360 H   0  0  0  0  0  0  0  0  0  0  0  0
    1.9224    3.6525    2.9381 H   0  0  0  0  0  0  0  0  0  0  0  0
    0.2529    3.2307    3.3757 H   0  0  0  0  0  0  0  0  0  0  0  0
  1  2  1  0  0  0  0
  2  3  1  0  0  0  0
  2  4  1  0  0  0  0
  2  5  1  0  0  0  0
  5  6  2  0  0  0  0
  5  7  1  0  0  0  0
  7  8  1  0  0  0  0
  7  9  1  0  0  0  0
  9 10  1  0  0  0  0
  9 11  1  0  0  0  0
  9 19  1  0  0  0  0
 11 12  1  0  0  0  0
 11 13  1  0  0  0  0
 11 17  1  0  0  0  0
 13 14  1  0  0  0  0
 13 15  1  0  0  0  0
 13 16  1  0  0  0  0
 17 18  1  0  0  0  0
 19 20  2  0  0  0  0
 19 21  1  0  0  0  0
 21 22  1  0  0  0  0
 21 23  1  0  0  0  0
 23 24  1  0  0  0  0
 23 25  1  0  0  0  0
 23 26  1  0  0  0  0
M  END
$$$$

  -OEChem-01062216093D

 26 25  0     1  0  0  0  0  0999 V2000
   -2.9616   -2.9309    1.5530 H   0  0  0  0  0  0  0  0  0  0  0  0
   -2.9440   -1.9366    1.0982 C   0  0  0  0  0  0  0  0  0  0  0  0
   -3.3700   -1.2204    1.8050 H   0  0  0  0  0  0  0  0  0  0  0  0
   -3.5514   -1.9521    0.1905 H   0  0  0  0  0  0  0  0  0  0  0  0
   -1.5183   -1.5415    0.7637 C   0  0  0  0  0  0  0  0  0  0  0  0
   -0.6064   -2.3305    0.9562 O   0  0  0  0  0  0  0  0  0  0  0  0
   -1.2689   -0.3269    0.1563 N   0  0  0  0  0  0  0  0  0  0  0  0
   -2.0700    0.2939    0.0858 H   0  0  0  0  0  0  0  0  0  0  0  0
    0.0433    0.3401    0.2568 C   0  0  1  0  0  0  0  0  0  0  0  0
    0.8316   -0.4116    0.1456 H   0  0  0  0  0  0  0  0  0  0  0  0
    0.2123    1.3393   -0.9083 C   0  0  1  0  0  0  0  0  0  0  0  0
    1.2000    1.8074   -0.8343 H   0  0  0  0  0  0  0  0  0  0  0  0
    0.1238    0.6450   -2.2684 C   0  0  0  0  0  0  0  0  0  0  0  0
   -0.8738    0.2250   -2.4297 H   0  0  0  0  0  0  0  0  0  0  0  0
    0.3347    1.3570   -3.0717 H   0  0  0  0  0  0  0  0  0  0  0  0
    0.8552   -0.1670   -2.3280 H   0  0  0  0  0  0  0  0  0  0  0  0
   -0.8010    2.3488   -0.8561 O   0  0  0  0  0  0  0  0  0  0  0  0
   -0.7588    2.9173   -1.6457 H   0  0  0  0  0  0  0  0  0  0  0  0
    0.2746    0.9920    1.6458 C   0  0  0  0  0  0  0  0  0  0  0  0
   -0.0568    0.4155    2.6746 O   0  0  0  0  0  0  0  0  0  0  0  0
    0.7959    2.2705    1.7631 N   0  0  0  0  0  0  0  0  0  0  0  0
    0.8220    2.8176    0.9070 H   0  0  0  0  0  0  0  0  0  0  0  0
    0.9008    2.9748    3.0357 C   0  0  0  0  0  0  0  0  0  0  0  0
    1.4962    2.3939    3.7481 H   0  0  0  0  0  0  0  0  0  0  0  0
    1.3882    3.9438    2.8917 H   0  0  0  0  0  0  0  0  0  0  0  0
   -0.0930    3.1446    3.4629 H   0  0  0  0  0  0  0  0  0  0  0  0
  1  2  1  0  0  0  0
  2  3  1  0  0  0  0
  2  4  1  0  0  0  0
  2  5  1  0  0  0  0
  5  6  2  0  0  0  0
  5  7  1  0  0  0  0
  7  8  1  0  0  0  0
  7  9  1  0  0  0  0
  9 10  1  0  0  0  0
  9 11  1  0  0  0  0
  9 19  1  0  0  0  0
 11 12  1  0  0  0  0
 11 13  1  0  0  0  0
 11 17  1  0  0  0  0
 13 14  1  0  0  0  0
 13 15  1  0  0  0  0
 13 16  1  0  0  0  0
 17 18  1  0  0  0  0
 19 20  2  0  0  0  0
 19 21  1  0  0  0  0
 21 22  1  0  0  0  0
 21 23  1  0  0  0  0
 23 24  1  0  0  0  0
 23 25  1  0  0  0  0
 23 26  1  0  0  0  0
M  END
$$$$

  -OEChem-01062216093D

 26 25  0     1  0  0  0  0  0999 V2000
   -2.9704   -2.9262    1.5530 H   0  0  0  0  0  0  0  0  0  0  0  0
   -2.9529   -1.9421    1.0762 C   0  0  0  0  0  0  0  0  0  0  0  0
   -3.4144   -1.2174    1.7512 H   0  0  0  0  0  0  0  0  0  0  0  0
   -3.5291   -1.9886    0.1492 H   0  0  0  0  0  0  0  0  0  0  0  0
   -1.5226   -1.5330    0.7799 C   0  0  0  0  0  0  0  0  0  0  0  0
   -0.6109   -2.3148    0.9954 O   0  0  0  0  0  0  0  0  0  0  0  0
   -1.2708   -0.3193    0.1719 N   0  0  0  0  0  0  0  0  0  0  0  0
   -2.0755    0.2908    0.0625 H   0  0  0  0  0  0  0  0  0  0  0  0
    0.0371    0.3555    0.2678 C   0  0  1  0  0  0  0  0  0  0  0  0
    0.8279   -0.3946    0.1621 H   0  0  0  0  0  0  0  0  0  0  0  0
    0.2066    1.3458   -0.9050 C   0  0  1  0  0  0  0  0  0  0  0  0
    1.1914    1.8190   -0.8232 H   0  0  0  0  0  0  0  0  0  0  0  0
    0.1334    0.6380   -2.2595 C   0  0  0  0  0  0  0  0  0  0  0  0
   -0.8596    0.2092   -2.4250 H   0  0  0  0  0  0  0  0  0  0  0  0
    0.3463    1.3437   -3.0678 H   0  0  0  0  0  0  0  0  0  0  0  0
    0.8709   -0.1694   -2.3056 H   0  0  0  0  0  0  0  0  0  0  0  0
   -0.8088    2.3558   -0.8721 O   0  0  0  0  0  0  0  0  0  0  0  0
   -0.7647    2.9068   -1.6744 H   0  0  0  0  0  0  0  0  0  0  0  0
    0.2673    1.0130    1.6523 C   0  0  0  0  0  0  0  0  0  0  0  0
    0.2185    0.3489    2.6790 O   0  0  0  0  0  0  0  0  0  0  0  0
    0.4821    2.3759    1.7706 N   0  0  0  0  0  0  0  0  0  0  0  0
    0.2746    2.9237    0.9377 H   0  0  0  0  0  0  0  0  0  0  0  0
    0.5744    3.0634    3.0531 C   0  0  0  0  0  0  0  0  0  0  0  0
    1.3714    2.6283    3.6652 H   0  0  0  0  0  0  0  0  0  0  0  0
    0.8008    4.1225    2.8981 H   0  0  0  0  0  0  0  0  0  0  0  0
   -0.3714    2.9849    3.5991 H   0  0  0  0  0  0  0  0  0  0  0  0
  1  2  1  0  0  0  0
  2  3  1  0  0  0  0
  2  4  1  0  0  0  0
  2  5  1  0  0  0  0
  5  6  2  0  0  0  0
  5  7  1  0  0  0  0
  7  8  1  0  0  0  0
  7  9  1  0  0  0  0
  9 10  1  0  0  0  0
  9 11  1  0  0  0  0
  9 19  1  0  0  0  0
 11 12  1  0  0  0  0
 11 13  1  0  0  0  0
 11 17  1  0  0  0  0
 13 14  1  0  0  0  0
 13 15  1  0  0  0  0
 13 16  1  0  0  0  0
 17 18  1  0  0  0  0
 19 20  2  0  0  0  0
 19 21  1  0  0  0  0
 21 22  1  0  0  0  0
 21 23  1  0  0  0  0
 23 24  1  0  0  0  0
 23 25  1  0  0  0  0
 23 26  1  0  0  0  0
M  END
$$$$

  -OEChem-01062216093D

 26 25  0     1  0  0  0  0  0999 V2000
   -2.9937   -2.9385    1.5272 H   0  0  0  0  0  0  0  0  0  0  0  0
   -2.9701   -1.9635    1.0321 C   0  0  0  0  0  0  0  0  0  0  0  0
   -3.4776   -1.2349    1.6689 H   0  0  0  0  0  0  0  0  0  0  0  0
   -3.4990   -2.0384    0.0791 H   0  0  0  0  0  0  0  0  0  0  0  0
   -1.5343   -1.5332    0.7976 C   0  0  0  0  0  0  0  0  0  0  0  0
   -0.6219   -2.2938    1.0730 O   0  0  0  0  0  0  0  0  0  0  0  0
   -1.2756   -0.3204    0.1912 N   0  0  0  0  0  0  0  0  0  0  0  0
   -2.0822    0.2745    0.0254 H   0  0  0  0  0  0  0  0  0  0  0  0
    0.0272    0.3640    0.2874 C   0  0  1  0  0  0  0  0  0  0  0  0
    0.8216   -0.3830    0.1837 H   0  0  0  0  0  0  0  0  0  0  0  0
    0.1901    1.3503   -0.8901 C   0  0  1  0  0  0  0  0  0  0  0  0
    1.1696    1.8334   -0.8006 H   0  0  0  0  0  0  0  0  0  0  0  0
    0.1340    0.6358   -2.2412 C   0  0  0  0  0  0  0  0  0  0  0  0
   -0.8525    0.1937   -2.4107 H   0  0  0  0  0  0  0  0  0  0  0  0
    0.3429    1.3408   -3.0511 H   0  0  0  0  0  0  0  0  0  0  0  0
    0.8823   -0.1619   -2.2787 H   0  0  0  0  0  0  0  0  0  0  0  0
   -0.8315    2.3566   -0.8720 O   0  0  0  0  0  0  0  0  0  0  0  0
   -0.7620    2.9204   -1.6638 H   0  0  0  0  0  0  0  0  0  0  0  0
    0.2563    1.0292    1.6660 C   0  0  0  0  0  0  0  0  0  0  0  0
    0.5061    0.3552    2.6554 O   0  0  0  0  0  0  0  0  0  0  0  0
    0.1565    2.4009    1.8185 N   0  0  0  0  0  0  0  0  0  0  0  0
   -0.2050    2.9090    1.0119 H   0  0  0  0  0  0  0  0  0  0  0  0
    0.2506    3.0818    3.1037 C   0  0  0  0  0  0  0  0  0  0  0  0
    1.2135    2.8692    3.5801 H   0  0  0  0  0  0  0  0  0  0  0  0
    0.1673    4.1640    2.9646 H   0  0  0  0  0  0  0  0  0  0  0  0
   -0.5532    2.7534    3.7708 H   0  0  0  0  0  0  0  0  0  0  0  0
  1  2  1  0  0  0  0
  2  3  1  0  0  0  0
  2  4  1  0  0  0  0
  2  5  1  0  0  0  0
  5  6  2  0  0  0  0
  5  7  1  0  0  0  0
  7  8  1  0  0  0  0
  7  9  1  0  0  0  0
  9 10  1  0  0  0  0
  9 11  1  0  0  0  0
  9 19  1  0  0  0  0
 11 12  1  0  0  0  0
 11 13  1  0  0  0  0
 11 17  1  0  0  0  0
 13 14  1  0  0  0  0
 13 15  1  0  0  0  0
 13 16  1  0  0  0  0
 17 18  1  0  0  0  0
 19 20  2  0  0  0  0
 19 21  1  0  0  0  0
 21 22  1  0  0  0  0
 21 23  1  0  0  0  0
 23 24  1  0  0  0  0
 23 25  1  0  0  0  0
 23 26  1  0  0  0  0
M  END
$$$$

  -OEChem-01062216093D

 26 25  0     1  0  0  0  0  0999 V2000
   -3.0304   -2.9792    1.4662 H   0  0  0  0  0  0  0  0  0  0  0  0
   -2.9958   -2.0213    0.9394 C   0  0  0  0  0  0  0  0  0  0  0  0
   -3.5876   -1.2926    1.4984 H   0  0  0  0  0  0  0  0  0  0  0  0
   -3.4296   -2.1499   -0.0549 H   0  0  0  0  0  0  0  0  0  0  0  0
   -1.5606   -1.5439    0.8210 C   0  0  0  0  0  0  0  0  0  0  0  0
   -0.6523   -2.2607    1.2027 O   0  0  0  0  0  0  0  0  0  0  0  0
   -1.2924   -0.3317    0.2188 N   0  0  0  0  0  0  0  0  0  0  0  0
   -2.0960    0.2384   -0.0287 H   0  0  0  0  0  0  0  0  0  0  0  0
    0.0031    0.3644    0.3234 C   0  0  1  0  0  0  0  0  0  0  0  0
    0.8028   -0.3778    0.2234 H   0  0  0  0  0  0  0  0  0  0  0  0
    0.1629    1.3531   -0.8520 C   0  0  1  0  0  0  0  0  0  0  0  0
    1.1363    1.8466   -0.7516 H   0  0  0  0  0  0  0  0  0  0  0  0
    0.1262    0.6395   -2.2046 C   0  0  0  0  0  0  0  0  0  0  0  0
   -0.8574    0.1963   -2.3878 H   0  0  0  0  0  0  0  0  0  0  0  0
    0.3449    1.3458   -3.0109 H   0  0  0  0  0  0  0  0  0  0  0  0
    0.8761   -0.1573   -2.2332 H   0  0  0  0  0  0  0  0  0  0  0  0
   -0.8677    2.3515   -0.8427 O   0  0  0  0  0  0  0  0  0  0  0  0
   -0.7664    2.9443   -1.6098 H   0  0  0  0  0  0  0  0  0  0  0  0
    0.2205    1.0368    1.6980 C   0  0  0  0  0  0  0  0  0  0  0  0
    0.7858    0.4430    2.6053 O   0  0  0  0  0  0  0  0  0  0  0  0
   -0.1846    2.3406    1.9180 N   0  0  0  0  0  0  0  0  0  0  0  0
   -0.6487    2.8047    1.1375 H   0  0  0  0  0  0  0  0  0  0  0  0
   -0.0139    3.0474    3.1805 C   0  0  0  0  0  0  0  0  0  0  0  0
    1.0488    3.1364    3.4288 H   0  0  0  0  0  0  0  0  0  0  0  0
   -0.4387    4.0533    3.1109 H   0  0  0  0  0  0  0  0  0  0  0  0
   -0.5218    2.5124    3.9899 H   0  0  0  0  0  0  0  0  0  0  0  0
  1  2  1  0  0  0  0
  2  3  1  0  0  0  0
  2  4  1  0  0  0  0
  2  5  1  0  0  0  0
  5  6  2  0  0  0  0
  5  7  1  0  0  0  0
  7  8  1  0  0  0  0
  7  9  1  0  0  0  0
  9 10  1  0  0  0  0
  9 11  1  0  0  0  0
  9 19  1  0  0  0  0
 11 12  1  0  0  0  0
 11 13  1  0  0  0  0
 11 17  1  0  0  0  0
 13 14  1  0  0  0  0
 13 15  1  0  0  0  0
 13 16  1  0  0  0  0
 17 18  1  0  0  0  0
 19 20  2  0  0  0  0
 19 21  1  0  0  0  0
 21 22  1  0  0  0  0
 21 23  1  0  0  0  0
 23 24  1  0  0  0  0
 23 25  1  0  0  0  0
 23 26  1  0  0  0  0
M  END
$$$$

  -OEChem-01062216093D

 26 25  0     1  0  0  0  0  0999 V2000
   -3.0588   -3.0393    1.3853 H   0  0  0  0  0  0  0  0  0  0  0  0
   -3.0140   -2.0815    0.8590 C   0  0  0  0  0  0  0  0  0  0  0  0
   -3.6567   -1.3660    1.3774 H   0  0  0  0  0  0  0  0  0  0  0  0
   -3.3814   -2.2221   -0.1602 H   0  0  0  0  0  0  0  0  0  0  0  0
   -1.5862   -1.5693    0.8301 C   0  0  0  0  0  0  0  0  0  0  0  0
   -0.6905   -2.2470    1.3018 O   0  0  0  0  0  0  0  0  0  0  0  0
   -1.3083   -0.3554    0.2371 N   0  0  0  0  0  0  0  0  0  0  0  0
   -2.1019    0.1951   -0.0779 H   0  0  0  0  0  0  0  0  0  0  0  0
   -0.0165    0.3442    0.3580 C   0  0  1  0  0  0  0  0  0  0  0  0
    0.7861   -0.3944    0.2544 H   0  0  0  0  0  0  0  0  0  0  0  0
    0.1425    1.3513   -0.7997 C   0  0  1  0  0  0  0  0  0  0  0  0
    1.1119    1.8493   -0.6846 H   0  0  0  0  0  0  0  0  0  0  0  0
    0.1171    0.6621   -2.1647 C   0  0  0  0  0  0  0  0  0  0  0  0
   -0.8604    0.2098   -2.3570 H   0  0  0  0  0  0  0  0  0  0  0  0
    0.3277    1.3855   -2.9576 H   0  0  0  0  0  0  0  0  0  0  0  0
    0.8776   -0.1239   -2.2063 H   0  0  0  0  0  0  0  0  0  0  0  0
   -0.8952    2.3421   -0.7740 O   0  0  0  0  0  0  0  0  0  0  0  0
   -0.7725    2.9730   -1.5066 H   0  0  0  0  0  0  0  0  0  0  0  0
    0.1891    1.0137    1.7334 C   0  0  0  0  0  0  0  0  0  0  0  0
    1.0152    0.5778    2.5236 O   0  0  0  0  0  0  0  0  0  0  0  0
   -0.4834    2.1803    2.0487 N   0  0  0  0  0  0  0  0  0  0  0  0
   -1.0329    2.5916    1.2950 H   0  0  0  0  0  0  0  0  0  0  0  0
   -0.2479    2.9481    3.2644 C   0  0  0  0  0  0  0  0  0  0  0  0
    0.7853    3.3089    3.2954 H   0  0  0  0  0  0  0  0  0  0  0  0
   -0.9192    3.8112    3.3016 H   0  0  0  0  0  0  0  0  0  0  0  0
   -0.4324    2.3298    4.1493 H   0  0  0  0  0  0  0  0  0  0  0  0
  1  2  1  0  0  0  0
  2  3  1  0  0  0  0
  2  4  1  0  0  0  0
  2  5  1  0  0  0  0
  5  6  2  0  0  0  0
  5  7  1  0  0  0  0
  7  8  1  0  0  0  0
  7  9  1  0  0  0  0
  9 10  1  0  0  0  0
  9 11  1  0  0  0  0
  9 19  1  0  0  0  0
 11 12  1  0  0  0  0
 11 13  1  0  0  0  0
 11 17  1  0  0  0  0
 13 14  1  0  0  0  0
 13 15  1  0  0  0  0
 13 16  1  0  0  0  0
 17 18  1  0  0  0  0
 19 20  2  0  0  0  0
 19 21  1  0  0  0  0
 21 22  1  0  0  0  0
 21 23  1  0  0  0  0
 23 24  1  0  0  0  0
 23 25  1  0  0  0  0
 23 26  1  0  0  0  0
M  END
$$$$

  -OEChem-01062216093D

 26 25  0     1  0  0  0  0  0999 V2000
   -3.0762   -3.0848    1.3245 H   0  0  0  0  0  0  0  0  0  0  0  0
   -3.0225   -2.1234    0.8057 C   0  0  0  0  0  0  0  0  0  0  0  0
   -3.7011   -1.4215    1.2961 H   0  0  0  0  0  0  0  0  0  0  0  0
   -3.3389   -2.2645   -0.2305 H   0  0  0  0  0  0  0  0  0  0  0  0
   -1.6038   -1.5873    0.8466 C   0  0  0  0  0  0  0  0  0  0  0  0
   -0.7255   -2.2341    1.3892 O   0  0  0  0  0  0  0  0  0  0  0  0
   -1.3136   -0.3764    0.2540 N   0  0  0  0  0  0  0  0  0  0  0  0
   -2.0904    0.1547   -0.1288 H   0  0  0  0  0  0  0  0  0  0  0  0
   -0.0178    0.3156    0.3783 C   0  0  1  0  0  0  0  0  0  0  0  0
    0.7824   -0.4244    0.2641 H   0  0  0  0  0  0  0  0  0  0  0  0
    0.1337    1.3418   -0.7604 C   0  0  1  0  0  0  0  0  0  0  0  0
    1.1043    1.8373   -0.6432 H   0  0  0  0  0  0  0  0  0  0  0  0
    0.0952    0.6832   -2.1399 C   0  0  0  0  0  0  0  0  0  0  0  0
   -0.8844    0.2367   -2.3343 H   0  0  0  0  0  0  0  0  0  0  0  0
    0.2997    1.4243   -2.9180 H   0  0  0  0  0  0  0  0  0  0  0  0
    0.8543   -0.1022   -2.2057 H   0  0  0  0  0  0  0  0  0  0  0  0
   -0.9050    2.3294   -0.6976 O   0  0  0  0  0  0  0  0  0  0  0  0
   -0.7609    3.0101   -1.3799 H   0  0  0  0  0  0  0  0  0  0  0  0
    0.1944    0.9867    1.7495 C   0  0  0  0  0  0  0  0  0  0  0  0
    1.1996    0.7495    2.4062 O   0  0  0  0  0  0  0  0  0  0  0  0
   -0.6800    1.9662    2.1851 N   0  0  0  0  0  0  0  0  0  0  0  0
   -1.3479    2.2936    1.4901 H   0  0  0  0  0  0  0  0  0  0  0  0
   -0.4507    2.7712    3.3776 C   0  0  0  0  0  0  0  0  0  0  0  0
    0.4543    3.3765    3.2631 H   0  0  0  0  0  0  0  0  0  0  0  0
   -1.2985    3.4410    3.5496 H   0  0  0  0  0  0  0  0  0  0  0  0
   -0.3364    2.1288    4.2570 H   0  0  0  0  0  0  0  0  0  0  0  0
  1  2  1  0  0  0  0
  2  3  1  0  0  0  0
  2  4  1  0  0  0  0
  2  5  1  0  0  0  0
  5  6  2  0  0  0  0
  5  7  1  0  0  0  0
  7  8  1  0  0  0  0
  7  9  1  0  0  0  0
  9 10  1  0  0  0  0
  9 11  1  0  0  0  0
  9 19  1  0  0  0  0
 11 12  1  0  0  0  0
 11 13  1  0  0  0  0
 11 17  1  0  0  0  0
 13 14  1  0  0  0  0
 13 15  1  0  0  0  0
 13 16  1  0  0  0  0
 17 18  1  0  0  0  0
 19 20  2  0  0  0  0
 19 21  1  0  0  0  0
 21 22  1  0  0  0  0
 21 23  1  0  0  0  0
 23 24  1  0  0  0  0
 23 25  1  0  0  0  0
 23 26  1  0  0  0  0
M  END
$$$$

  -OEChem-01062216093D

 26 25  0     1  0  0  0  0  0999 V2000
   -3.0848   -3.1221    1.2656 H   0  0  0  0  0  0  0  0  0  0  0  0
   -3.0261   -2.1586    0.7513 C   0  0  0  0  0  0  0  0  0  0  0  0
   -3.7432   -1.4722    1.2077 H   0  0  0  0  0  0  0  0  0  0  0  0
   -3.2874   -2.3042   -0.2995 H   0  0  0  0  0  0  0  0  0  0  0  0
   -1.6228   -1.5931    0.8628 C   0  0  0  0  0  0  0  0  0  0  0  0
   -0.7640   -2.2099    1.4685 O   0  0  0  0  0  0  0  0  0  0  0  0
   -1.3217   -0.3857    0.2695 N   0  0  0  0  0  0  0  0  0  0  0  0
   -2.0751    0.1186   -0.1892 H   0  0  0  0  0  0  0  0  0  0  0  0
   -0.0197    0.2961    0.3910 C   0  0  1  0  0  0  0  0  0  0  0  0
    0.7745   -0.4487    0.2689 H   0  0  0  0  0  0  0  0  0  0  0  0
    0.1270    1.3310   -0.7378 C   0  0  1  0  0  0  0  0  0  0  0  0
    1.0999    1.8227   -0.6237 H   0  0  0  0  0  0  0  0  0  0  0  0
    0.0714    0.6906   -2.1254 C   0  0  0  0  0  0  0  0  0  0  0  0
   -0.9125    0.2523   -2.3167 H   0  0  0  0  0  0  0  0  0  0  0  0
    0.2724    1.4410   -2.8955 H   0  0  0  0  0  0  0  0  0  0  0  0
    0.8259   -0.0978   -2.2084 H   0  0  0  0  0  0  0  0  0  0  0  0
   -0.9094    2.3171   -0.6454 O   0  0  0  0  0  0  0  0  0  0  0  0
   -0.7440    3.0379   -1.2793 H   0  0  0  0  0  0  0  0  0  0  0  0
    0.2144    0.9713    1.7556 C   0  0  0  0  0  0  0  0  0  0  0  0
    1.3294    0.9568    2.2619 O   0  0  0  0  0  0  0  0  0  0  0  0
   -0.7856    1.7272    2.3417 N   0  0  0  0  0  0  0  0  0  0  0  0
   -1.6041    1.8989    1.7649 H   0  0  0  0  0  0  0  0  0  0  0  0
   -0.5766    2.5439    3.5300 C   0  0  0  0  0  0  0  0  0  0  0  0
    0.1477    3.3391    3.3254 H   0  0  0  0  0  0  0  0  0  0  0  0
   -1.5191    3.0029    3.8432 H   0  0  0  0  0  0  0  0  0  0  0  0
   -0.2024    1.9296    4.3559 H   0  0  0  0  0  0  0  0  0  0  0  0
  1  2  1  0  0  0  0
  2  3  1  0  0  0  0
  2  4  1  0  0  0  0
  2  5  1  0  0  0  0
  5  6  2  0  0  0  0
  5  7  1  0  0  0  0
  7  8  1  0  0  0  0
  7  9  1  0  0  0  0
  9 10  1  0  0  0  0
  9 11  1  0  0  0  0
  9 19  1  0  0  0  0
 11 12  1  0  0  0  0
 11 13  1  0  0  0  0
 11 17  1  0  0  0  0
 13 14  1  0  0  0  0
 13 15  1  0  0  0  0
 13 16  1  0  0  0  0
 17 18  1  0  0  0  0
 19 20  2  0  0  0  0
 19 21  1  0  0  0  0
 21 22  1  0  0  0  0
 21 23  1  0  0  0  0
 23 24  1  0  0  0  0
 23 25  1  0  0  0  0
 23 26  1  0  0  0  0
M  END
$$$$

  -OEChem-01062216093D

 26 25  0     1  0  0  0  0  0999 V2000
   -3.0787   -3.1184    1.2598 H   0  0  0  0  0  0  0  0  0  0  0  0
   -3.0177   -2.1642    0.7286 C   0  0  0  0  0  0  0  0  0  0  0  0
   -3.7613   -1.4812    1.1458 H   0  0  0  0  0  0  0  0  0  0  0  0
   -3.2397   -2.3352   -0.3276 H   0  0  0  0  0  0  0  0  0  0  0  0
   -1.6284   -1.5733    0.8774 C   0  0  0  0  0  0  0  0  0  0  0  0
   -0.7829   -2.1596    1.5303 O   0  0  0  0  0  0  0  0  0  0  0  0
   -1.3245   -0.3711    0.2751 N   0  0  0  0  0  0  0  0  0  0  0  0
   -2.0597    0.1071   -0.2387 H   0  0  0  0  0  0  0  0  0  0  0  0
   -0.0192    0.3073    0.3848 C   0  0  1  0  0  0  0  0  0  0  0  0
    0.7710   -0.4416    0.2641 H   0  0  0  0  0  0  0  0  0  0  0  0
    0.1222    1.3309   -0.7548 C   0  0  1  0  0  0  0  0  0  0  0  0
    1.0959    1.8238   -0.6527 H   0  0  0  0  0  0  0  0  0  0  0  0
    0.0556    0.6788   -2.1369 C   0  0  0  0  0  0  0  0  0  0  0  0
   -0.9279    0.2339   -2.3146 H   0  0  0  0  0  0  0  0  0  0  0  0
    0.2448    1.4242   -2.9150 H   0  0  0  0  0  0  0  0  0  0  0  0
    0.8134   -0.1062   -2.2212 H   0  0  0  0  0  0  0  0  0  0  0  0
   -0.9131    2.3164   -0.6607 O   0  0  0  0  0  0  0  0  0  0  0  0
   -0.7347    3.0524   -1.2727 H   0  0  0  0  0  0  0  0  0  0  0  0
    0.2355    0.9945    1.7399 C   0  0  0  0  0  0  0  0  0  0  0  0
    1.3856    1.1966    2.1105 O   0  0  0  0  0  0  0  0  0  0  0  0
   -0.8140    1.5002    2.4866 N   0  0  0  0  0  0  0  0  0  0  0  0
   -1.7429    1.4051    2.0899 H   0  0  0  0  0  0  0  0  0  0  0  0
   -0.6384    2.2379    3.7302 C   0  0  0  0  0  0  0  0  0  0  0  0
   -0.0348    3.1359    3.5619 H   0  0  0  0  0  0  0  0  0  0  0  0
   -1.6104    2.5437    4.1283 H   0  0  0  0  0  0  0  0  0  0  0  0
   -0.1397    1.6119    4.4775 H   0  0  0  0  0  0  0  0  0  0  0  0
  1  2  1  0  0  0  0
  2  3  1  0  0  0  0
  2  4  1  0  0  0  0
  2  5  1  0  0  0  0
  5  6  2  0  0  0  0
  5  7  1  0  0  0  0
  7  8  1  0  0  0  0
  7  9  1  0  0  0  0
  9 10  1  0  0  0  0
  9 11  1  0  0  0  0
  9 19  1  0  0  0  0
 11 12  1  0  0  0  0
 11 13  1  0  0  0  0
 11 17  1  0  0  0  0
 13 14  1  0  0  0  0
 13 15  1  0  0  0  0
 13 16  1  0  0  0  0
 17 18  1  0  0  0  0
 19 20  2  0  0  0  0
 19 21  1  0  0  0  0
 21 22  1  0  0  0  0
 21 23  1  0  0  0  0
 23 24  1  0  0  0  0
 23 25  1  0  0  0  0
 23 26  1  0  0  0  0
M  END
$$$$

  -OEChem-01062216093D

 26 25  0     1  0  0  0  0  0999 V2000
   -3.0798   -3.1054    1.2526 H   0  0  0  0  0  0  0  0  0  0  0  0
   -3.0149   -2.1550    0.7148 C   0  0  0  0  0  0  0  0  0  0  0  0
   -3.7705   -1.4731    1.1121 H   0  0  0  0  0  0  0  0  0  0  0  0
   -3.2167   -2.3358   -0.3437 H   0  0  0  0  0  0  0  0  0  0  0  0
   -1.6324   -1.5535    0.8829 C   0  0  0  0  0  0  0  0  0  0  0  0
   -0.8003   -2.1150    1.5736 O   0  0  0  0  0  0  0  0  0  0  0  0
   -1.3256   -0.3564    0.2727 N   0  0  0  0  0  0  0  0  0  0  0  0
   -2.0572    0.1160   -0.2526 H   0  0  0  0  0  0  0  0  0  0  0  0
   -0.0228    0.3284    0.3802 C   0  0  1  0  0  0  0  0  0  0  0  0
    0.7699   -0.4193    0.2707 H   0  0  0  0  0  0  0  0  0  0  0  0
    0.1144    1.3350   -0.7764 C   0  0  1  0  0  0  0  0  0  0  0  0
    1.0844    1.8368   -0.6824 H   0  0  0  0  0  0  0  0  0  0  0  0
    0.0568    0.6614   -2.1484 C   0  0  0  0  0  0  0  0  0  0  0  0
   -0.9225    0.2060   -2.3225 H   0  0  0  0  0  0  0  0  0  0  0  0
    0.2419    1.3968   -2.9368 H   0  0  0  0  0  0  0  0  0  0  0  0
    0.8216   -0.1183   -2.2190 H   0  0  0  0  0  0  0  0  0  0  0  0
   -0.9281    2.3135   -0.6980 O   0  0  0  0  0  0  0  0  0  0  0  0
   -0.7378    3.0585   -1.2949 H   0  0  0  0  0  0  0  0  0  0  0  0
    0.2343    1.0334    1.7271 C   0  0  0  0  0  0  0  0  0  0  0  0
    1.3562    1.4528    1.9870 O   0  0  0  0  0  0  0  0  0  0  0  0
   -0.7987    1.2742    2.6157 N   0  0  0  0  0  0  0  0  0  0  0  0
   -1.6997    0.8699    2.3847 H   0  0  0  0  0  0  0  0  0  0  0  0
   -0.6113    1.8999    3.9176 C   0  0  0  0  0  0  0  0  0  0  0  0
   -0.1654    2.8935    3.8045 H   0  0  0  0  0  0  0  0  0  0  0  0
   -1.5737    2.0101    4.4261 H   0  0  0  0  0  0  0  0  0  0  0  0
    0.0450    1.2873    4.5445 H   0  0  0  0  0  0  0  0  0  0  0  0
  1  2  1  0  0  0  0
  2  3  1  0  0  0  0
  2  4  1  0  0  0  0
  2  5  1  0  0  0  0
  5  6  2  0  0  0  0
  5  7  1  0  0  0  0
  7  8  1  0  0  0  0
  7  9  1  0  0  0  0
  9 10  1  0  0  0  0
  9 11  1  0  0  0  0
  9 19  1  0  0  0  0
 11 12  1  0  0  0  0
 11 13  1  0  0  0  0
 11 17  1  0  0  0  0
 13 14  1  0  0  0  0
 13 15  1  0  0  0  0
 13 16  1  0  0  0  0
 17 18  1  0  0  0  0
 19 20  2  0  0  0  0
 19 21  1  0  0  0  0
 21 22  1  0  0  0  0
 21 23  1  0  0  0  0
 23 24  1  0  0  0  0
 23 25  1  0  0  0  0
 23 26  1  0  0  0  0
M  END
$$$$

  -OEChem-01062216093D

 26 25  0     1  0  0  0  0  0999 V2000
   -3.0896   -3.1054    1.2165 H   0  0  0  0  0  0  0  0  0  0  0  0
   -3.0208   -2.1542    0.6811 C   0  0  0  0  0  0  0  0  0  0  0  0
   -3.7899   -1.4785    1.0629 H   0  0  0  0  0  0  0  0  0  0  0  0
   -3.1993   -2.3355   -0.3816 H   0  0  0  0  0  0  0  0  0  0  0  0
   -1.6469   -1.5424    0.8785 C   0  0  0  0  0  0  0  0  0  0  0  0
   -0.8356   -2.0797    1.6119 O   0  0  0  0  0  0  0  0  0  0  0  0
   -1.3319   -0.3459    0.2733 N   0  0  0  0  0  0  0  0  0  0  0  0
   -2.0585    0.1267   -0.2594 H   0  0  0  0  0  0  0  0  0  0  0  0
   -0.0314    0.3440    0.3868 C   0  0  1  0  0  0  0  0  0  0  0  0
    0.7630   -0.4024    0.2851 H   0  0  0  0  0  0  0  0  0  0  0  0
    0.1030    1.3382   -0.7833 C   0  0  1  0  0  0  0  0  0  0  0  0
    1.0687    1.8491   -0.6954 H   0  0  0  0  0  0  0  0  0  0  0  0
    0.0549    0.6490   -2.1481 C   0  0  0  0  0  0  0  0  0  0  0  0
   -0.9204    0.1849   -2.3210 H   0  0  0  0  0  0  0  0  0  0  0  0
    0.2377    1.3773   -2.9435 H   0  0  0  0  0  0  0  0  0  0  0  0
    0.8253   -0.1259   -2.2077 H   0  0  0  0  0  0  0  0  0  0  0  0
   -0.9475    2.3090   -0.7200 O   0  0  0  0  0  0  0  0  0  0  0  0
   -0.7463    3.0626   -1.3022 H   0  0  0  0  0  0  0  0  0  0  0  0
    0.2248    1.0548    1.7337 C   0  0  0  0  0  0  0  0  0  0  0  0
    1.2655    1.6799    1.9058 O   0  0  0  0  0  0  0  0  0  0  0  0
   -0.7181    1.0286    2.7463 N   0  0  0  0  0  0  0  0  0  0  0  0
   -1.4696    0.3563    2.6296 H   0  0  0  0  0  0  0  0  0  0  0  0
   -0.4812    1.5886    4.0702 C   0  0  0  0  0  0  0  0  0  0  0  0
   -0.2430    2.6551    3.9986 H   0  0  0  0  0  0  0  0  0  0  0  0
   -1.3744    1.4770    4.6923 H   0  0  0  0  0  0  0  0  0  0  0  0
    0.3512    1.0726    4.5602 H   0  0  0  0  0  0  0  0  0  0  0  0
  1  2  1  0  0  0  0
  2  3  1  0  0  0  0
  2  4  1  0  0  0  0
  2  5  1  0  0  0  0
  5  6  2  0  0  0  0
  5  7  1  0  0  0  0
  7  8  1  0  0  0  0
  7  9  1  0  0  0  0
  9 10  1  0  0  0  0
  9 11  1  0  0  0  0
  9 19  1  0  0  0  0
 11 12  1  0  0  0  0
 11 13  1  0  0  0  0
 11 17  1  0  0  0  0
 13 14  1  0  0  0  0
 13 15  1  0  0  0  0
 13 16  1  0  0  0  0
 17 18  1  0  0  0  0
 19 20  2  0  0  0  0
 19 21  1  0  0  0  0
 21 22  1  0  0  0  0
 21 23  1  0  0  0  0
 23 24  1  0  0  0  0
 23 25  1  0  0  0  0
 23 26  1  0  0  0  0
M  END
$$$$

  -OEChem-01062216093D

 26 25  0     1  0  0  0  0  0999 V2000
   -3.1008   -3.1031    1.1835 H   0  0  0  0  0  0  0  0  0  0  0  0
   -3.0275   -2.1472    0.6570 C   0  0  0  0  0  0  0  0  0  0  0  0
   -3.8037   -1.4764    1.0334 H   0  0  0  0  0  0  0  0  0  0  0  0
   -3.1911   -2.3205   -0.4095 H   0  0  0  0  0  0  0  0  0  0  0  0
   -1.6586   -1.5326    0.8782 C   0  0  0  0  0  0  0  0  0  0  0  0
   -0.8652   -2.0555    1.6423 O   0  0  0  0  0  0  0  0  0  0  0  0
   -1.3356   -0.3345    0.2818 N   0  0  0  0  0  0  0  0  0  0  0  0
   -2.0606    0.1431   -0.2492 H   0  0  0  0  0  0  0  0  0  0  0  0
   -0.0342    0.3546    0.3938 C   0  0  1  0  0  0  0  0  0  0  0  0
    0.7587   -0.3932    0.2911 H   0  0  0  0  0  0  0  0  0  0  0  0
    0.0952    1.3394   -0.7866 C   0  0  1  0  0  0  0  0  0  0  0  0
    1.0602    1.8528   -0.7081 H   0  0  0  0  0  0  0  0  0  0  0  0
    0.0451    0.6384   -2.1454 C   0  0  0  0  0  0  0  0  0  0  0  0
   -0.9304    0.1728   -2.3132 H   0  0  0  0  0  0  0  0  0  0  0  0
    0.2262    1.3605   -2.9470 H   0  0  0  0  0  0  0  0  0  0  0  0
    0.8158   -0.1366   -2.1998 H   0  0  0  0  0  0  0  0  0  0  0  0
   -0.9574    2.3081   -0.7292 O   0  0  0  0  0  0  0  0  0  0  0  0
   -0.7419    3.0749   -1.2882 H   0  0  0  0  0  0  0  0  0  0  0  0
    0.2246    1.0585    1.7463 C   0  0  0  0  0  0  0  0  0  0  0  0
    1.1307    1.8776    1.8579 O   0  0  0  0  0  0  0  0  0  0  0  0
   -0.5586    0.7731    2.8506 N   0  0  0  0  0  0  0  0  0  0  0  0
   -1.0974   -0.0878    2.7797 H   0  0  0  0  0  0  0  0  0  0  0  0
   -0.2801    1.3037    4.1785 C   0  0  0  0  0  0  0  0  0  0  0  0
   -0.2832    2.3986    4.1624 H   0  0  0  0  0  0  0  0  0  0  0  0
   -1.0447    0.9689    4.8858 H   0  0  0  0  0  0  0  0  0  0  0  0
    0.6968    0.9581    4.5320 H   0  0  0  0  0  0  0  0  0  0  0  0
  1  2  1  0  0  0  0
  2  3  1  0  0  0  0
  2  4  1  0  0  0  0
  2  5  1  0  0  0  0
  5  6  2  0  0  0  0
  5  7  1  0  0  0  0
  7  8  1  0  0  0  0
  7  9  1  0  0  0  0
  9 10  1  0  0  0  0
  9 11  1  0  0  0  0
  9 19  1  0  0  0  0
 11 12  1  0  0  0  0
 11 13  1  0  0  0  0
 11 17  1  0  0  0  0
 13 14  1  0  0  0  0
 13 15  1  0  0  0  0
 13 16  1  0  0  0  0
 17 18  1  0  0  0  0
 19 20  2  0  0  0  0
 19 21  1  0  0  0  0
 21 22  1  0  0  0  0
 21 23  1  0  0  0  0
 23 24  1  0  0  0  0
 23 25  1  0  0  0  0
 23 26  1  0  0  0  0
M  END
$$$$

  -OEChem-01062216093D

 26 25  0     1  0  0  0  0  0999 V2000
   -3.1043   -3.0876    1.2000 H   0  0  0  0  0  0  0  0  0  0  0  0
   -3.0303   -2.1297    0.6774 C   0  0  0  0  0  0  0  0  0  0  0  0
   -3.7900   -1.4514    1.0739 H   0  0  0  0  0  0  0  0  0  0  0  0
   -3.2178   -2.2945   -0.3865 H   0  0  0  0  0  0  0  0  0  0  0  0
   -1.6501   -1.5323    0.8737 C   0  0  0  0  0  0  0  0  0  0  0  0
   -0.8426   -2.0755    1.6102 O   0  0  0  0  0  0  0  0  0  0  0  0
   -1.3286   -0.3316    0.2814 N   0  0  0  0  0  0  0  0  0  0  0  0
   -2.0649    0.1625   -0.2183 H   0  0  0  0  0  0  0  0  0  0  0  0
   -0.0296    0.3610    0.3935 C   0  0  1  0  0  0  0  0  0  0  0  0
    0.7661   -0.3835    0.2913 H   0  0  0  0  0  0  0  0  0  0  0  0
    0.0939    1.3399   -0.7937 C   0  0  1  0  0  0  0  0  0  0  0  0
    1.0561    1.8588   -0.7174 H   0  0  0  0  0  0  0  0  0  0  0  0
    0.0480    0.6329   -2.1500 C   0  0  0  0  0  0  0  0  0  0  0  0
   -0.9228    0.1559   -2.3127 H   0  0  0  0  0  0  0  0  0  0  0  0
    0.2184    1.3534   -2.9554 H   0  0  0  0  0  0  0  0  0  0  0  0
    0.8270   -0.1337   -2.2040 H   0  0  0  0  0  0  0  0  0  0  0  0
   -0.9640    2.3035   -0.7411 O   0  0  0  0  0  0  0  0  0  0  0  0
   -0.7343    3.0867   -1.2709 H   0  0  0  0  0  0  0  0  0  0  0  0
    0.2210    1.0600    1.7519 C   0  0  0  0  0  0  0  0  0  0  0  0
    0.9623    2.0333    1.8385 O   0  0  0  0  0  0  0  0  0  0  0  0
   -0.3446    0.5517    2.9075 N   0  0  0  0  0  0  0  0  0  0  0  0
   -0.7258   -0.3914    2.8210 H   0  0  0  0  0  0  0  0  0  0  0  0
   -0.0284    1.0523    4.2387 C   0  0  0  0  0  0  0  0  0  0  0  0
   -0.2683    2.1179    4.3149 H   0  0  0  0  0  0  0  0  0  0  0  0
   -0.6124    0.5139    4.9912 H   0  0  0  0  0  0  0  0  0  0  0  0
    1.0351    0.9132    4.4583 H   0  0  0  0  0  0  0  0  0  0  0  0
  1  2  1  0  0  0  0
  2  3  1  0  0  0  0
  2  4  1  0  0  0  0
  2  5  1  0  0  0  0
  5  6  2  0  0  0  0
  5  7  1  0  0  0  0
  7  8  1  0  0  0  0
  7  9  1  0  0  0  0
  9 10  1  0  0  0  0
  9 11  1  0  0  0  0
  9 19  1  0  0  0  0
 11 12  1  0  0  0  0
 11 13  1  0  0  0  0
 11 17  1  0  0  0  0
 13 14  1  0  0  0  0
 13 15  1  0  0  0  0
 13 16  1  0  0  0  0
 17 18  1  0  0  0  0
 19 20  2  0  0  0  0
 19 21  1  0  0  0  0
 21 22  1  0  0  0  0
 21 23  1  0  0  0  0
 23 24  1  0  0  0  0
 23 25  1  0  0  0  0
 23 26  1  0  0  0  0
M  END
$$$$

  -OEChem-01062216093D

 26 25  0     1  0  0  0  0  0999 V2000
   -3.0927   -3.0695    1.2495 H   0  0  0  0  0  0  0  0  0  0  0  0
   -3.0235   -2.1143    0.7213 C   0  0  0  0  0  0  0  0  0  0  0  0
   -3.7598   -1.4252    1.1422 H   0  0  0  0  0  0  0  0  0  0  0  0
   -3.2506   -2.2790   -0.3348 H   0  0  0  0  0  0  0  0  0  0  0  0
   -1.6291   -1.5357    0.8675 C   0  0  0  0  0  0  0  0  0  0  0  0
   -0.7940   -2.1089    1.5498 O   0  0  0  0  0  0  0  0  0  0  0  0
   -1.3174   -0.3308    0.2770 N   0  0  0  0  0  0  0  0  0  0  0  0
   -2.0686    0.1802   -0.1820 H   0  0  0  0  0  0  0  0  0  0  0  0
   -0.0208    0.3644    0.3865 C   0  0  1  0  0  0  0  0  0  0  0  0
    0.7782   -0.3758    0.2805 H   0  0  0  0  0  0  0  0  0  0  0  0
    0.0964    1.3413   -0.8028 C   0  0  1  0  0  0  0  0  0  0  0  0
    1.0572    1.8626   -0.7255 H   0  0  0  0  0  0  0  0  0  0  0  0
    0.0516    0.6334   -2.1583 C   0  0  0  0  0  0  0  0  0  0  0  0
   -0.9203    0.1589   -2.3223 H   0  0  0  0  0  0  0  0  0  0  0  0
    0.2250    1.3533   -2.9635 H   0  0  0  0  0  0  0  0  0  0  0  0
    0.8286   -0.1353   -2.2102 H   0  0  0  0  0  0  0  0  0  0  0  0
   -0.9637    2.3026   -0.7523 O   0  0  0  0  0  0  0  0  0  0  0  0
   -0.7157    3.1052   -1.2432 H   0  0  0  0  0  0  0  0  0  0  0  0
    0.2235    1.0551    1.7504 C   0  0  0  0  0  0  0  0  0  0  0  0
    0.7715    2.1493    1.8341 O   0  0  0  0  0  0  0  0  0  0  0  0
   -0.0735    0.3759    2.9180 N   0  0  0  0  0  0  0  0  0  0  0  0
   -0.3520   -0.6014    2.8052 H   0  0  0  0  0  0  0  0  0  0  0  0
    0.2610    0.8649    4.2487 C   0  0  0  0  0  0  0  0  0  0  0  0
   -0.2056    1.8394    4.4266 H   0  0  0  0  0  0  0  0  0  0  0  0
   -0.1012    0.1659    5.0086 H   0  0  0  0  0  0  0  0  0  0  0  0
    1.3456    0.9668    4.3585 H   0  0  0  0  0  0  0  0  0  0  0  0
  1  2  1  0  0  0  0
  2  3  1  0  0  0  0
  2  4  1  0  0  0  0
  2  5  1  0  0  0  0
  5  6  2  0  0  0  0
  5  7  1  0  0  0  0
  7  8  1  0  0  0  0
  7  9  1  0  0  0  0
  9 10  1  0  0  0  0
  9 11  1  0  0  0  0
  9 19  1  0  0  0  0
 11 12  1  0  0  0  0
 11 13  1  0  0  0  0
 11 17  1  0  0  0  0
 13 14  1  0  0  0  0
 13 15  1  0  0  0  0
 13 16  1  0  0  0  0
 17 18  1  0  0  0  0
 19 20  2  0  0  0  0
 19 21  1  0  0  0  0
 21 22  1  0  0  0  0
 21 23  1  0  0  0  0
 23 24  1  0  0  0  0
 23 25  1  0  0  0  0
 23 26  1  0  0  0  0
M  END
$$$$

  -OEChem-01062216093D

 26 25  0     1  0  0  0  0  0999 V2000
   -3.0674   -3.0568    1.3022 H   0  0  0  0  0  0  0  0  0  0  0  0
   -3.0083   -2.1036    0.7693 C   0  0  0  0  0  0  0  0  0  0  0  0
   -3.7268   -1.4084    1.2104 H   0  0  0  0  0  0  0  0  0  0  0  0
   -3.2686   -2.2696   -0.2789 H   0  0  0  0  0  0  0  0  0  0  0  0
   -1.6066   -1.5331    0.8716 C   0  0  0  0  0  0  0  0  0  0  0  0
   -0.7489   -2.1197    1.5148 O   0  0  0  0  0  0  0  0  0  0  0  0
   -1.3083   -0.3272    0.2756 N   0  0  0  0  0  0  0  0  0  0  0  0
   -2.0705    0.1929   -0.1547 H   0  0  0  0  0  0  0  0  0  0  0  0
   -0.0107    0.3646    0.3728 C   0  0  1  0  0  0  0  0  0  0  0  0
    0.7878   -0.3753    0.2582 H   0  0  0  0  0  0  0  0  0  0  0  0
    0.0992    1.3390   -0.8191 C   0  0  1  0  0  0  0  0  0  0  0  0
    1.0608    1.8593   -0.7425 H   0  0  0  0  0  0  0  0  0  0  0  0
    0.0507    0.6302   -2.1739 C   0  0  0  0  0  0  0  0  0  0  0  0
   -0.9189    0.1485   -2.3304 H   0  0  0  0  0  0  0  0  0  0  0  0
    0.2128    1.3513   -2.9805 H   0  0  0  0  0  0  0  0  0  0  0  0
    0.8330   -0.1326   -2.2311 H   0  0  0  0  0  0  0  0  0  0  0  0
   -0.9572    2.3044   -0.7664 O   0  0  0  0  0  0  0  0  0  0  0  0
   -0.6632    3.1490   -1.1498 H   0  0  0  0  0  0  0  0  0  0  0  0
    0.2369    1.0479    1.7387 C   0  0  0  0  0  0  0  0  0  0  0  0
    0.5698    2.2242    1.8367 O   0  0  0  0  0  0  0  0  0  0  0  0
    0.2429    0.2655    2.8784 N   0  0  0  0  0  0  0  0  0  0  0  0
    0.0208   -0.7249    2.7501 H   0  0  0  0  0  0  0  0  0  0  0  0
    0.5718    0.7574    4.2093 C   0  0  0  0  0  0  0  0  0  0  0  0
   -0.1159    1.5571    4.5029 H   0  0  0  0  0  0  0  0  0  0  0  0
    0.4921   -0.0530    4.9401 H   0  0  0  0  0  0  0  0  0  0  0  0
    1.5956    1.1449    4.2322 H   0  0  0  0  0  0  0  0  0  0  0  0
  1  2  1  0  0  0  0
  2  3  1  0  0  0  0
  2  4  1  0  0  0  0
  2  5  1  0  0  0  0
  5  6  2  0  0  0  0
  5  7  1  0  0  0  0
  7  8  1  0  0  0  0
  7  9  1  0  0  0  0
  9 10  1  0  0  0  0
  9 11  1  0  0  0  0
  9 19  1  0  0  0  0
 11 12  1  0  0  0  0
 11 13  1  0  0  0  0
 11 17  1  0  0  0  0
 13 14  1  0  0  0  0
 13 15  1  0  0  0  0
 13 16  1  0  0  0  0
 17 18  1  0  0  0  0
 19 20  2  0  0  0  0
 19 21  1  0  0  0  0
 21 22  1  0  0  0  0
 21 23  1  0  0  0  0
 23 24  1  0  0  0  0
 23 25  1  0  0  0  0
 23 26  1  0  0  0  0
M  END
$$$$

  -OEChem-01062216093D

 26 25  0     1  0  0  0  0  0999 V2000
   -3.0313   -3.0041    1.3507 H   0  0  0  0  0  0  0  0  0  0  0  0
   -2.9834   -2.0389    0.8390 C   0  0  0  0  0  0  0  0  0  0  0  0
   -3.6784   -1.3482    1.3228 H   0  0  0  0  0  0  0  0  0  0  0  0
   -3.2840   -2.1782   -0.2022 H   0  0  0  0  0  0  0  0  0  0  0  0
   -1.5734   -1.4836    0.9012 C   0  0  0  0  0  0  0  0  0  0  0  0
   -0.7097   -2.0605    1.5462 O   0  0  0  0  0  0  0  0  0  0  0  0
   -1.2628   -0.3092    0.2498 N   0  0  0  0  0  0  0  0  0  0  0  0
   -2.0124    0.1914   -0.2238 H   0  0  0  0  0  0  0  0  0  0  0  0
    0.0631    0.3305    0.2804 C   0  0  1  0  0  0  0  0  0  0  0  0
    0.8350   -0.4355    0.1529 H   0  0  0  0  0  0  0  0  0  0  0  0
    0.1796    1.3053   -0.9110 C   0  0  1  0  0  0  0  0  0  0  0  0
    1.1684    1.7768   -0.8816 H   0  0  0  0  0  0  0  0  0  0  0  0
    0.0256    0.6013   -2.2600 C   0  0  0  0  0  0  0  0  0  0  0  0
   -0.9762    0.1763   -2.3700 H   0  0  0  0  0  0  0  0  0  0  0  0
    0.1877    1.3156   -3.0729 H   0  0  0  0  0  0  0  0  0  0  0  0
    0.7605   -0.2035   -2.3556 H   0  0  0  0  0  0  0  0  0  0  0  0
   -0.8233    2.3186   -0.8066 O   0  0  0  0  0  0  0  0  0  0  0  0
   -0.6856    2.8020    0.0372 H   0  0  0  0  0  0  0  0  0  0  0  0
    0.3374    1.0307    1.6304 C   0  0  0  0  0  0  0  0  0  0  0  0
    0.2826    2.2527    1.7431 O   0  0  0  0  0  0  0  0  0  0  0  0
    0.6401    0.2598    2.7358 N   0  0  0  0  0  0  0  0  0  0  0  0
    0.4841   -0.7461    2.6289 H   0  0  0  0  0  0  0  0  0  0  0  0
    0.8042    0.8040    4.0771 C   0  0  0  0  0  0  0  0  0  0  0  0
   -0.1348    1.2421    4.4306 H   0  0  0  0  0  0  0  0  0  0  0  0
    1.1016    0.0114    4.7706 H   0  0  0  0  0  0  0  0  0  0  0  0
    1.5803    1.5764    4.0859 H   0  0  0  0  0  0  0  0  0  0  0  0
  1  2  1  0  0  0  0
  2  3  1  0  0  0  0
  2  4  1  0  0  0  0
  2  5  1  0  0  0  0
  5  6  2  0  0  0  0
  5  7  1  0  0  0  0
  7  8  1  0  0  0  0
  7  9  1  0  0  0  0
  9 10  1  0  0  0  0
  9 11  1  0  0  0  0
  9 19  1  0  0  0  0
 11 12  1  0  0  0  0
 11 13  1  0  0  0  0
 11 17  1  0  0  0  0
 13 14  1  0  0  0  0
 13 15  1  0  0  0  0
 13 16  1  0  0  0  0
 17 18  1  0  0  0  0
 19 20  2  0  0  0  0
 19 21  1  0  0  0  0
 21 22  1  0  0  0  0
 21 23  1  0  0  0  0
 23 24  1  0  0  0  0
 23 25  1  0  0  0  0
 23 26  1  0  0  0  0
M  END
$$$$

  -OEChem-01062216093D

 26 25  0     1  0  0  0  0  0999 V2000
   -2.9817   -3.0251    1.4256 H   0  0  0  0  0  0  0  0  0  0  0  0
   -2.9571   -2.0802    0.8758 C   0  0  0  0  0  0  0  0  0  0  0  0
   -3.6450   -1.3775    1.3523 H   0  0  0  0  0  0  0  0  0  0  0  0
   -3.2847   -2.2608   -0.1508 H   0  0  0  0  0  0  0  0  0  0  0  0
   -1.5515   -1.5104    0.8783 C   0  0  0  0  0  0  0  0  0  0  0  0
   -0.6447   -2.1037    1.4457 O   0  0  0  0  0  0  0  0  0  0  0  0
   -1.2952   -0.2997    0.2723 N   0  0  0  0  0  0  0  0  0  0  0  0
   -2.0841    0.2469   -0.0674 H   0  0  0  0  0  0  0  0  0  0  0  0
    0.0055    0.3804    0.3441 C   0  0  1  0  0  0  0  0  0  0  0  0
    0.7978   -0.3622    0.2056 H   0  0  0  0  0  0  0  0  0  0  0  0
    0.1150    1.3554   -0.8480 C   0  0  1  0  0  0  0  0  0  0  0  0
    1.0837    1.8619   -0.7715 H   0  0  0  0  0  0  0  0  0  0  0  0
    0.0513    0.6439   -2.2003 C   0  0  0  0  0  0  0  0  0  0  0  0
   -0.9251    0.1733   -2.3488 H   0  0  0  0  0  0  0  0  0  0  0  0
    0.2167    1.3605   -3.0099 H   0  0  0  0  0  0  0  0  0  0  0  0
    0.8236   -0.1288   -2.2603 H   0  0  0  0  0  0  0  0  0  0  0  0
   -0.9207    2.3423   -0.8018 O   0  0  0  0  0  0  0  0  0  0  0  0
   -0.6344    3.1622   -1.2391 H   0  0  0  0  0  0  0  0  0  0  0  0
    0.2659    1.0392    1.7173 C   0  0  0  0  0  0  0  0  0  0  0  0
    0.0823    2.2305    1.9380 O   0  0  0  0  0  0  0  0  0  0  0  0
    0.8900    0.2736    2.6850 N   0  0  0  0  0  0  0  0  0  0  0  0
    0.8531   -0.7357    2.5328 H   0  0  0  0  0  0  0  0  0  0  0  0
    1.1751    0.7624    4.0278 C   0  0  0  0  0  0  0  0  0  0  0  0
    0.2487    1.0481    4.5366 H   0  0  0  0  0  0  0  0  0  0  0  0
    1.6683   -0.0175    4.6157 H   0  0  0  0  0  0  0  0  0  0  0  0
    1.8380    1.6329    3.9861 H   0  0  0  0  0  0  0  0  0  0  0  0
  1  2  1  0  0  0  0
  2  3  1  0  0  0  0
  2  4  1  0  0  0  0
  2  5  1  0  0  0  0
  5  6  2  0  0  0  0
  5  7  1  0  0  0  0
  7  8  1  0  0  0  0
  7  9  1  0  0  0  0
  9 10  1  0  0  0  0
  9 11  1  0  0  0  0
  9 19  1  0  0  0  0
 11 12  1  0  0  0  0
 11 13  1  0  0  0  0
 11 17  1  0  0  0  0
 13 14  1  0  0  0  0
 13 15  1  0  0  0  0
 13 16  1  0  0  0  0
 17 18  1  0  0  0  0
 19 20  2  0  0  0  0
 19 21  1  0  0  0  0
 21 22  1  0  0  0  0
 21 23  1  0  0  0  0
 23 24  1  0  0  0  0
 23 25  1  0  0  0  0
 23 26  1  0  0  0  0
M  END
$$$$

  -OEChem-01062216093D

 26 25  0     1  0  0  0  0  0999 V2000
   -2.9435   -2.9944    1.4991 H   0  0  0  0  0  0  0  0  0  0  0  0
   -2.9378   -2.0425    0.9610 C   0  0  0  0  0  0  0  0  0  0  0  0
   -3.5693   -1.3306    1.4984 H   0  0  0  0  0  0  0  0  0  0  0  0
   -3.3475   -2.2005   -0.0394 H   0  0  0  0  0  0  0  0  0  0  0  0
   -1.5223   -1.5067    0.8624 C   0  0  0  0  0  0  0  0  0  0  0  0
   -0.5903   -2.1350    1.3441 O   0  0  0  0  0  0  0  0  0  0  0  0
   -1.2838   -0.2941    0.2525 N   0  0  0  0  0  0  0  0  0  0  0  0
   -2.0880    0.2863    0.0233 H   0  0  0  0  0  0  0  0  0  0  0  0
    0.0181    0.3836    0.3131 C   0  0  1  0  0  0  0  0  0  0  0  0
    0.8053   -0.3626    0.1669 H   0  0  0  0  0  0  0  0  0  0  0  0
    0.1421    1.3692   -0.8686 C   0  0  1  0  0  0  0  0  0  0  0  0
    1.1176    1.8613   -0.7893 H   0  0  0  0  0  0  0  0  0  0  0  0
    0.0674    0.6648   -2.2244 C   0  0  0  0  0  0  0  0  0  0  0  0
   -0.9177    0.2131   -2.3751 H   0  0  0  0  0  0  0  0  0  0  0  0
    0.2477    1.3806   -3.0318 H   0  0  0  0  0  0  0  0  0  0  0  0
    0.8250   -0.1222   -2.2865 H   0  0  0  0  0  0  0  0  0  0  0  0
   -0.8776    2.3710   -0.8224 O   0  0  0  0  0  0  0  0  0  0  0  0
   -0.6637    3.1127   -1.4129 H   0  0  0  0  0  0  0  0  0  0  0  0
    0.2821    1.0338    1.6887 C   0  0  0  0  0  0  0  0  0  0  0  0
   -0.2603    2.0725    2.0459 O   0  0  0  0  0  0  0  0  0  0  0  0
    1.1741    0.4168    2.5479 N   0  0  0  0  0  0  0  0  0  0  0  0
    1.4008   -0.5507    2.3237 H   0  0  0  0  0  0  0  0  0  0  0  0
    1.3993    0.8742    3.9133 C   0  0  0  0  0  0  0  0  0  0  0  0
    0.4759    0.8047    4.4977 H   0  0  0  0  0  0  0  0  0  0  0  0
    2.1639    0.2579    4.3958 H   0  0  0  0  0  0  0  0  0  0  0  0
    1.7430    1.9140    3.9179 H   0  0  0  0  0  0  0  0  0  0  0  0
  1  2  1  0  0  0  0
  2  3  1  0  0  0  0
  2  4  1  0  0  0  0
  2  5  1  0  0  0  0
  5  6  2  0  0  0  0
  5  7  1  0  0  0  0
  7  8  1  0  0  0  0
  7  9  1  0  0  0  0
  9 10  1  0  0  0  0
  9 11  1  0  0  0  0
  9 19  1  0  0  0  0
 11 12  1  0  0  0  0
 11 13  1  0  0  0  0
 11 17  1  0  0  0  0
 13 14  1  0  0  0  0
 13 15  1  0  0  0  0
 13 16  1  0  0  0  0
 17 18  1  0  0  0  0
 19 20  2  0  0  0  0
 19 21  1  0  0  0  0
 21 22  1  0  0  0  0
 21 23  1  0  0  0  0
 23 24  1  0  0  0  0
 23 25  1  0  0  0  0
 23 26  1  0  0  0  0
M  END
$$$$

  -OEChem-01062216093D

 26 25  0     1  0  0  0  0  0999 V2000
   -2.9242   -2.9607    1.5699 H   0  0  0  0  0  0  0  0  0  0  0  0
   -2.9250   -2.0109    1.0279 C   0  0  0  0  0  0  0  0  0  0  0  0
   -3.5066   -1.2814    1.5970 H   0  0  0  0  0  0  0  0  0  0  0  0
   -3.3943   -2.1610    0.0528 H   0  0  0  0  0  0  0  0  0  0  0  0
   -1.5044   -1.5115    0.8469 C   0  0  0  0  0  0  0  0  0  0  0  0
   -0.5631   -2.1705    1.2641 O   0  0  0  0  0  0  0  0  0  0  0  0
   -1.2736   -0.3048    0.2225 N   0  0  0  0  0  0  0  0  0  0  0  0
   -2.0815    0.2966    0.0747 H   0  0  0  0  0  0  0  0  0  0  0  0
    0.0286    0.3743    0.2795 C   0  0  1  0  0  0  0  0  0  0  0  0
    0.8152   -0.3734    0.1386 H   0  0  0  0  0  0  0  0  0  0  0  0
    0.1633    1.3723   -0.8889 C   0  0  1  0  0  0  0  0  0  0  0  0
    1.1431    1.8553   -0.8074 H   0  0  0  0  0  0  0  0  0  0  0  0
    0.0781    0.6809   -2.2506 C   0  0  0  0  0  0  0  0  0  0  0  0
   -0.9120    0.2402   -2.4025 H   0  0  0  0  0  0  0  0  0  0  0  0
    0.2639    1.4019   -3.0520 H   0  0  0  0  0  0  0  0  0  0  0  0
    0.8271   -0.1135   -2.3220 H   0  0  0  0  0  0  0  0  0  0  0  0
   -0.8501    2.3789   -0.8294 O   0  0  0  0  0  0  0  0  0  0  0  0
   -0.6769    3.0870   -1.4723 H   0  0  0  0  0  0  0  0  0  0  0  0
    0.2806    1.0354    1.6513 C   0  0  0  0  0  0  0  0  0  0  0  0
   -0.5111    1.8369    2.1345 O   0  0  0  0  0  0  0  0  0  0  0  0
    1.3735    0.6400    2.4032 N   0  0  0  0  0  0  0  0  0  0  0  0
    1.8604   -0.1932    2.0831 H   0  0  0  0  0  0  0  0  0  0  0  0
    1.5777    1.0680    3.7817 C   0  0  0  0  0  0  0  0  0  0  0  0
    0.7566    0.7187    4.4165 H   0  0  0  0  0  0  0  0  0  0  0  0
    2.5152    0.6580    4.1691 H   0  0  0  0  0  0  0  0  0  0  0  0
    1.6298    2.1602    3.8407 H   0  0  0  0  0  0  0  0  0  0  0  0
  1  2  1  0  0  0  0
  2  3  1  0  0  0  0
  2  4  1  0  0  0  0
  2  5  1  0  0  0  0
  5  6  2  0  0  0  0
  5  7  1  0  0  0  0
  7  8  1  0  0  0  0
  7  9  1  0  0  0  0
  9 10  1  0  0  0  0
  9 11  1  0  0  0  0
  9 19  1  0  0  0  0
 11 12  1  0  0  0  0
 11 13  1  0  0  0  0
 11 17  1  0  0  0  0
 13 14  1  0  0  0  0
 13 15  1  0  0  0  0
 13 16  1  0  0  0  0
 17 18  1  0  0  0  0
 19 20  2  0  0  0  0
 19 21  1  0  0  0  0
 21 22  1  0  0  0  0
 21 23  1  0  0  0  0
 23 24  1  0  0  0  0
 23 25  1  0  0  0  0
 23 26  1  0  0  0  0
M  END
$$$$

  -OEChem-01062216093D

 26 25  0     1  0  0  0  0  0999 V2000
   -2.9327   -2.9569    1.5778 H   0  0  0  0  0  0  0  0  0  0  0  0
   -2.9318   -2.0006    1.0473 C   0  0  0  0  0  0  0  0  0  0  0  0
   -3.4822   -1.2678    1.6425 H   0  0  0  0  0  0  0  0  0  0  0  0
   -3.4329   -2.1301    0.0852 H   0  0  0  0  0  0  0  0  0  0  0  0
   -1.5083   -1.5235    0.8307 C   0  0  0  0  0  0  0  0  0  0  0  0
   -0.5681   -2.1997    1.2217 O   0  0  0  0  0  0  0  0  0  0  0  0
   -1.2762   -0.3214    0.1972 N   0  0  0  0  0  0  0  0  0  0  0  0
   -2.0835    0.2870    0.0794 H   0  0  0  0  0  0  0  0  0  0  0  0
    0.0252    0.3603    0.2671 C   0  0  1  0  0  0  0  0  0  0  0  0
    0.8144   -0.3863    0.1371 H   0  0  0  0  0  0  0  0  0  0  0  0
    0.1694    1.3682   -0.8895 C   0  0  1  0  0  0  0  0  0  0  0  0
    1.1486    1.8509   -0.7987 H   0  0  0  0  0  0  0  0  0  0  0  0
    0.0917    0.6886   -2.2572 C   0  0  0  0  0  0  0  0  0  0  0  0
   -0.8968    0.2474   -2.4175 H   0  0  0  0  0  0  0  0  0  0  0  0
    0.2803    1.4159   -3.0524 H   0  0  0  0  0  0  0  0  0  0  0  0
    0.8423   -0.1042   -2.3304 H   0  0  0  0  0  0  0  0  0  0  0  0
   -0.8459    2.3723   -0.8235 O   0  0  0  0  0  0  0  0  0  0  0  0
   -0.6958    3.0641   -1.4898 H   0  0  0  0  0  0  0  0  0  0  0  0
    0.2624    1.0353    1.6343 C   0  0  0  0  0  0  0  0  0  0  0  0
   -0.6429    1.6197    2.2203 O   0  0  0  0  0  0  0  0  0  0  0  0
    1.4873    0.8942    2.2641 N   0  0  0  0  0  0  0  0  0  0  0  0
    2.1443    0.2415    1.8466 H   0  0  0  0  0  0  0  0  0  0  0  0
    1.7305    1.3409    3.6302 C   0  0  0  0  0  0  0  0  0  0  0  0
    1.0828    0.8021    4.3298 H   0  0  0  0  0  0  0  0  0  0  0  0
    2.7724    1.1551    3.9079 H   0  0  0  0  0  0  0  0  0  0  0  0
    1.5356    2.4145    3.7239 H   0  0  0  0  0  0  0  0  0  0  0  0
  1  2  1  0  0  0  0
  2  3  1  0  0  0  0
  2  4  1  0  0  0  0
  2  5  1  0  0  0  0
  5  6  2  0  0  0  0
  5  7  1  0  0  0  0
  7  8  1  0  0  0  0
  7  9  1  0  0  0  0
  9 10  1  0  0  0  0
  9 11  1  0  0  0  0
  9 19  1  0  0  0  0
 11 12  1  0  0  0  0
 11 13  1  0  0  0  0
 11 17  1  0  0  0  0
 13 14  1  0  0  0  0
 13 15  1  0  0  0  0
 13 16  1  0  0  0  0
 17 18  1  0  0  0  0
 19 20  2  0  0  0  0
 19 21  1  0  0  0  0
 21 22  1  0  0  0  0
 21 23  1  0  0  0  0
 23 24  1  0  0  0  0
 23 25  1  0  0  0  0
 23 26  1  0  0  0  0
M  END
$$$$

  -OEChem-01062216093D

 26 25  0     1  0  0  0  0  0999 V2000
   -2.9444   -2.9570    1.5723 H   0  0  0  0  0  0  0  0  0  0  0  0
   -2.9410   -1.9951    1.0522 C   0  0  0  0  0  0  0  0  0  0  0  0
   -3.4674   -1.2607    1.6669 H   0  0  0  0  0  0  0  0  0  0  0  0
   -3.4645   -2.1062    0.0998 H   0  0  0  0  0  0  0  0  0  0  0  0
   -1.5153   -1.5374    0.8105 C   0  0  0  0  0  0  0  0  0  0  0  0
   -0.5785   -2.2330    1.1745 O   0  0  0  0  0  0  0  0  0  0  0  0
   -1.2783   -0.3374    0.1744 N   0  0  0  0  0  0  0  0  0  0  0  0
   -2.0831    0.2779    0.0792 H   0  0  0  0  0  0  0  0  0  0  0  0
    0.0238    0.3431    0.2625 C   0  0  1  0  0  0  0  0  0  0  0  0
    0.8161   -0.4022    0.1424 H   0  0  0  0  0  0  0  0  0  0  0  0
    0.1737    1.3604   -0.8848 C   0  0  1  0  0  0  0  0  0  0  0  0
    1.1515    1.8449   -0.7888 H   0  0  0  0  0  0  0  0  0  0  0  0
    0.1005    0.6925   -2.2583 C   0  0  0  0  0  0  0  0  0  0  0  0
   -0.8870    0.2517   -2.4248 H   0  0  0  0  0  0  0  0  0  0  0  0
    0.2899    1.4273   -3.0461 H   0  0  0  0  0  0  0  0  0  0  0  0
    0.8523   -0.0988   -2.3367 H   0  0  0  0  0  0  0  0  0  0  0  0
   -0.8465    2.3591   -0.8096 O   0  0  0  0  0  0  0  0  0  0  0  0
   -0.7157    3.0420   -1.4892 H   0  0  0  0  0  0  0  0  0  0  0  0
    0.2458    1.0246    1.6298 C   0  0  0  0  0  0  0  0  0  0  0  0
   -0.7022    1.4036    2.3109 O   0  0  0  0  0  0  0  0  0  0  0  0
    1.5288    1.1552    2.1346 N   0  0  0  0  0  0  0  0  0  0  0  0
    2.2792    0.7060    1.6186 H   0  0  0  0  0  0  0  0  0  0  0  0
    1.8083    1.6609    3.4731 C   0  0  0  0  0  0  0  0  0  0  0  0
    1.3617    1.0079    4.2302 H   0  0  0  0  0  0  0  0  0  0  0  0
    2.8883    1.7015    3.6436 H   0  0  0  0  0  0  0  0  0  0  0  0
    1.4026    2.6708    3.5944 H   0  0  0  0  0  0  0  0  0  0  0  0
  1  2  1  0  0  0  0
  2  3  1  0  0  0  0
  2  4  1  0  0  0  0
  2  5  1  0  0  0  0
  5  6  2  0  0  0  0
  5  7  1  0  0  0  0
  7  8  1  0  0  0  0
  7  9  1  0  0  0  0
  9 10  1  0  0  0  0
  9 11  1  0  0  0  0
  9 19  1  0  0  0  0
 11 12  1  0  0  0  0
 11 13  1  0  0  0  0
 11 17  1  0  0  0  0
 13 14  1  0  0  0  0
 13 15  1  0  0  0  0
 13 16  1  0  0  0  0
 17 18  1  0  0  0  0
 19 20  2  0  0  0  0
 19 21  1  0  0  0  0
 21 22  1  0  0  0  0
 21 23  1  0  0  0  0
 23 24  1  0  0  0  0
 23 25  1  0  0  0  0
 23 26  1  0  0  0  0
M  END
$$$$

  -OEChem-01062216093D

 26 25  0     1  0  0  0  0  0999 V2000
   -2.9551   -2.9548    1.5672 H   0  0  0  0  0  0  0  0  0  0  0  0
   -2.9471   -1.9889    1.0545 C   0  0  0  0  0  0  0  0  0  0  0  0
   -3.4505   -1.2521    1.6855 H   0  0  0  0  0  0  0  0  0  0  0  0
   -3.4898   -2.0846    0.1112 H   0  0  0  0  0  0  0  0  0  0  0  0
   -1.5194   -1.5498    0.7903 C   0  0  0  0  0  0  0  0  0  0  0  0
   -0.5866   -2.2643    1.1268 O   0  0  0  0  0  0  0  0  0  0  0  0
   -1.2778   -0.3492    0.1565 N   0  0  0  0  0  0  0  0  0  0  0  0
   -2.0806    0.2704    0.0762 H   0  0  0  0  0  0  0  0  0  0  0  0
    0.0256    0.3281    0.2620 C   0  0  1  0  0  0  0  0  0  0  0  0
    0.8214   -0.4145    0.1462 H   0  0  0  0  0  0  0  0  0  0  0  0
    0.1755    1.3532   -0.8792 C   0  0  1  0  0  0  0  0  0  0  0  0
    1.1518    1.8404   -0.7822 H   0  0  0  0  0  0  0  0  0  0  0  0
    0.1043    0.6936   -2.2571 C   0  0  0  0  0  0  0  0  0  0  0  0
   -0.8827    0.2532   -2.4286 H   0  0  0  0  0  0  0  0  0  0  0  0
    0.2952    1.4330   -3.0403 H   0  0  0  0  0  0  0  0  0  0  0  0
    0.8561   -0.0972   -2.3389 H   0  0  0  0  0  0  0  0  0  0  0  0
   -0.8490    2.3477   -0.7972 O   0  0  0  0  0  0  0  0  0  0  0  0
   -0.7346    3.0222   -1.4885 H   0  0  0  0  0  0  0  0  0  0  0  0
    0.2365    1.0093    1.6327 C   0  0  0  0  0  0  0  0  0  0  0  0
   -0.7012    1.1898    2.4039 O   0  0  0  0  0  0  0  0  0  0  0  0
    1.5039    1.4164    2.0159 N   0  0  0  0  0  0  0  0  0  0  0  0
    2.2788    1.1736    1.4067 H   0  0  0  0  0  0  0  0  0  0  0  0
    1.7943    1.9948    3.3222 C   0  0  0  0  0  0  0  0  0  0  0  0
    1.5568    1.2809    4.1180 H   0  0  0  0  0  0  0  0  0  0  0  0
    2.8552    2.2531    3.3934 H   0  0  0  0  0  0  0  0  0  0  0  0
    1.2067    2.9058    3.4779 H   0  0  0  0  0  0  0  0  0  0  0  0
  1  2  1  0  0  0  0
  2  3  1  0  0  0  0
  2  4  1  0  0  0  0
  2  5  1  0  0  0  0
  5  6  2  0  0  0  0
  5  7  1  0  0  0  0
  7  8  1  0  0  0  0
  7  9  1  0  0  0  0
  9 10  1  0  0  0  0
  9 11  1  0  0  0  0
  9 19  1  0  0  0  0
 11 12  1  0  0  0  0
 11 13  1  0  0  0  0
 11 17  1  0  0  0  0
 13 14  1  0  0  0  0
 13 15  1  0  0  0  0
 13 16  1  0  0  0  0
 17 18  1  0  0  0  0
 19 20  2  0  0  0  0
 19 21  1  0  0  0  0
 21 22  1  0  0  0  0
 21 23  1  0  0  0  0
 23 24  1  0  0  0  0
 23 25  1  0  0  0  0
 23 26  1  0  0  0  0
M  END
$$$$

  -OEChem-01062216093D

 26 25  0     1  0  0  0  0  0999 V2000
   -2.9212   -2.9856    1.5288 H   0  0  0  0  0  0  0  0  0  0  0  0
   -2.9223   -1.9831    1.0918 C   0  0  0  0  0  0  0  0  0  0  0  0
   -3.3321   -1.2815    1.8229 H   0  0  0  0  0  0  0  0  0  0  0  0
   -3.5553   -1.9860    0.2015 H   0  0  0  0  0  0  0  0  0  0  0  0
   -1.5092   -1.5728    0.7248 C   0  0  0  0  0  0  0  0  0  0  0  0
   -0.5768   -2.3404    0.9134 O   0  0  0  0  0  0  0  0  0  0  0  0
   -1.2790   -0.3551    0.1175 N   0  0  0  0  0  0  0  0  0  0  0  0
   -2.0791    0.2726    0.1203 H   0  0  0  0  0  0  0  0  0  0  0  0
    0.0229    0.3206    0.2631 C   0  0  1  0  0  0  0  0  0  0  0  0
    0.8013   -0.3508   -0.1127 H   0  0  0  0  0  0  0  0  0  0  0  0
    0.0269    1.5910   -0.6122 C   0  0  1  0  0  0  0  0  0  0  0  0
    0.9968    2.0883   -0.5067 H   0  0  0  0  0  0  0  0  0  0  0  0
   -0.1824    1.2743   -2.0942 C   0  0  0  0  0  0  0  0  0  0  0  0
   -1.1730    0.8428   -2.2673 H   0  0  0  0  0  0  0  0  0  0  0  0
   -0.0927    2.1862   -2.6919 H   0  0  0  0  0  0  0  0  0  0  0  0
    0.5721    0.5610   -2.4399 H   0  0  0  0  0  0  0  0  0  0  0  0
   -1.0041    2.4866   -0.1875 O   0  0  0  0  0  0  0  0  0  0  0  0
   -0.9748    3.3157   -0.6955 H   0  0  0  0  0  0  0  0  0  0  0  0
    0.4021    0.6607    1.7276 C   0  0  0  0  0  0  0  0  0  0  0  0
   -0.3845    0.4781    2.6519 O   0  0  0  0  0  0  0  0  0  0  0  0
    1.6022    1.2949    2.0087 N   0  0  0  0  0  0  0  0  0  0  0  0
    2.2605    1.4176    1.2463 H   0  0  0  0  0  0  0  0  0  0  0  0
    2.0111    1.6695    3.3572 C   0  0  0  0  0  0  0  0  0  0  0  0
    2.0810    0.7829    3.9962 H   0  0  0  0  0  0  0  0  0  0  0  0
    2.9898    2.1576    3.3339 H   0  0  0  0  0  0  0  0  0  0  0  0
    1.2890    2.3654    3.7972 H   0  0  0  0  0  0  0  0  0  0  0  0
  1  2  1  0  0  0  0
  2  3  1  0  0  0  0
  2  4  1  0  0  0  0
  2  5  1  0  0  0  0
  5  6  2  0  0  0  0
  5  7  1  0  0  0  0
  7  8  1  0  0  0  0
  7  9  1  0  0  0  0
  9 10  1  0  0  0  0
  9 11  1  0  0  0  0
  9 19  1  0  0  0  0
 11 12  1  0  0  0  0
 11 13  1  0  0  0  0
 11 17  1  0  0  0  0
 13 14  1  0  0  0  0
 13 15  1  0  0  0  0
 13 16  1  0  0  0  0
 17 18  1  0  0  0  0
 19 20  2  0  0  0  0
 19 21  1  0  0  0  0
 21 22  1  0  0  0  0
 21 23  1  0  0  0  0
 23 24  1  0  0  0  0
 23 25  1  0  0  0  0
 23 26  1  0  0  0  0
M  END
$$$$

  -OEChem-01062216093D

 26 25  0     1  0  0  0  0  0999 V2000
   -2.9360   -2.9842    1.4984 H   0  0  0  0  0  0  0  0  0  0  0  0
   -2.9245   -1.9694    1.0913 C   0  0  0  0  0  0  0  0  0  0  0  0
   -3.3059   -1.2820    1.8504 H   0  0  0  0  0  0  0  0  0  0  0  0
   -3.5736   -1.9324    0.2134 H   0  0  0  0  0  0  0  0  0  0  0  0
   -1.5101   -1.5765    0.7110 C   0  0  0  0  0  0  0  0  0  0  0  0
   -0.5913   -2.3700    0.8512 O   0  0  0  0  0  0  0  0  0  0  0  0
   -1.2699   -0.3527    0.1197 N   0  0  0  0  0  0  0  0  0  0  0  0
   -2.0666    0.2786    0.1287 H   0  0  0  0  0  0  0  0  0  0  0  0
    0.0351    0.3183    0.2686 C   0  0  1  0  0  0  0  0  0  0  0  0
    0.8113   -0.3531   -0.1115 H   0  0  0  0  0  0  0  0  0  0  0  0
    0.0311    1.5851   -0.6151 C   0  0  1  0  0  0  0  0  0  0  0  0
    1.0000    2.0869   -0.5262 H   0  0  0  0  0  0  0  0  0  0  0  0
   -0.1905    1.2572   -2.0934 C   0  0  0  0  0  0  0  0  0  0  0  0
   -1.1876    0.8369   -2.2572 H   0  0  0  0  0  0  0  0  0  0  0  0
   -0.0927    2.1622   -2.7003 H   0  0  0  0  0  0  0  0  0  0  0  0
    0.5527    0.5308   -2.4363 H   0  0  0  0  0  0  0  0  0  0  0  0
   -1.0038    2.4764   -0.1893 O   0  0  0  0  0  0  0  0  0  0  0  0
   -1.0048    3.2887   -0.7248 H   0  0  0  0  0  0  0  0  0  0  0  0
    0.4289    0.6480    1.7358 C   0  0  0  0  0  0  0  0  0  0  0  0
   -0.2408    0.2547    2.6855 O   0  0  0  0  0  0  0  0  0  0  0  0
    1.4597    1.5347    2.0087 N   0  0  0  0  0  0  0  0  0  0  0  0
    1.9833    1.9052    1.2230 H   0  0  0  0  0  0  0  0  0  0  0  0
    1.8111    1.9717    3.3548 C   0  0  0  0  0  0  0  0  0  0  0  0
    2.0821    1.1129    3.9780 H   0  0  0  0  0  0  0  0  0  0  0  0
    2.6645    2.6555    3.3192 H   0  0  0  0  0  0  0  0  0  0  0  0
    0.9683    2.4938    3.8199 H   0  0  0  0  0  0  0  0  0  0  0  0
  1  2  1  0  0  0  0
  2  3  1  0  0  0  0
  2  4  1  0  0  0  0
  2  5  1  0  0  0  0
  5  6  2  0  0  0  0
  5  7  1  0  0  0  0
  7  8  1  0  0  0  0
  7  9  1  0  0  0  0
  9 10  1  0  0  0  0
  9 11  1  0  0  0  0
  9 19  1  0  0  0  0
 11 12  1  0  0  0  0
 11 13  1  0  0  0  0
 11 17  1  0  0  0  0
 13 14  1  0  0  0  0
 13 15  1  0  0  0  0
 13 16  1  0  0  0  0
 17 18  1  0  0  0  0
 19 20  2  0  0  0  0
 19 21  1  0  0  0  0
 21 22  1  0  0  0  0
 21 23  1  0  0  0  0
 23 24  1  0  0  0  0
 23 25  1  0  0  0  0
 23 26  1  0  0  0  0
M  END
$$$$

  -OEChem-01062216093D

 26 25  0     1  0  0  0  0  0999 V2000
   -2.9260   -2.9666    1.5289 H   0  0  0  0  0  0  0  0  0  0  0  0
   -2.9162   -1.9507    1.1243 C   0  0  0  0  0  0  0  0  0  0  0  0
   -3.2679   -1.2624    1.8967 H   0  0  0  0  0  0  0  0  0  0  0  0
   -3.5905   -1.9050    0.2662 H   0  0  0  0  0  0  0  0  0  0  0  0
   -1.5092   -1.5720    0.7035 C   0  0  0  0  0  0  0  0  0  0  0  0
   -0.6048   -2.3897    0.7786 O   0  0  0  0  0  0  0  0  0  0  0  0
   -1.2677   -0.3427    0.1235 N   0  0  0  0  0  0  0  0  0  0  0  0
   -2.0646    0.2878    0.1393 H   0  0  0  0  0  0  0  0  0  0  0  0
    0.0386    0.3304    0.2657 C   0  0  1  0  0  0  0  0  0  0  0  0
    0.8111   -0.3460   -0.1143 H   0  0  0  0  0  0  0  0  0  0  0  0
    0.0442    1.5875   -0.6324 C   0  0  1  0  0  0  0  0  0  0  0  0
    1.0175    2.0827   -0.5531 H   0  0  0  0  0  0  0  0  0  0  0  0
   -0.1797    1.2426   -2.1065 C   0  0  0  0  0  0  0  0  0  0  0  0
   -1.1767    0.8203   -2.2646 H   0  0  0  0  0  0  0  0  0  0  0  0
   -0.0824    2.1406   -2.7237 H   0  0  0  0  0  0  0  0  0  0  0  0
    0.5631    0.5125   -2.4426 H   0  0  0  0  0  0  0  0  0  0  0  0
   -0.9875    2.4896   -0.2218 O   0  0  0  0  0  0  0  0  0  0  0  0
   -1.0158    3.2706   -0.8020 H   0  0  0  0  0  0  0  0  0  0  0  0
    0.4476    0.6514    1.7336 C   0  0  0  0  0  0  0  0  0  0  0  0
   -0.0161    0.0311    2.6836 O   0  0  0  0  0  0  0  0  0  0  0  0
    1.2476    1.7451    2.0300 N   0  0  0  0  0  0  0  0  0  0  0  0
    1.4928    2.3597    1.2613 H   0  0  0  0  0  0  0  0  0  0  0  0
    1.5333    2.1873    3.3903 C   0  0  0  0  0  0  0  0  0  0  0  0
    2.0027    1.3821    3.9652 H   0  0  0  0  0  0  0  0  0  0  0  0
    2.2171    3.0413    3.3740 H   0  0  0  0  0  0  0  0  0  0  0  0
    0.6106    2.4906    3.8961 H   0  0  0  0  0  0  0  0  0  0  0  0
  1  2  1  0  0  0  0
  2  3  1  0  0  0  0
  2  4  1  0  0  0  0
  2  5  1  0  0  0  0
  5  6  2  0  0  0  0
  5  7  1  0  0  0  0
  7  8  1  0  0  0  0
  7  9  1  0  0  0  0
  9 10  1  0  0  0  0
  9 11  1  0  0  0  0
  9 19  1  0  0  0  0
 11 12  1  0  0  0  0
 11 13  1  0  0  0  0
 11 17  1  0  0  0  0
 13 14  1  0  0  0  0
 13 15  1  0  0  0  0
 13 16  1  0  0  0  0
 17 18  1  0  0  0  0
 19 20  2  0  0  0  0
 19 21  1  0  0  0  0
 21 22  1  0  0  0  0
 21 23  1  0  0  0  0
 23 24  1  0  0  0  0
 23 25  1  0  0  0  0
 23 26  1  0  0  0  0
M  END
$$$$

  -OEChem-01062216093D

 26 25  0     1  0  0  0  0  0999 V2000
   -2.9224   -2.9412    1.5688 H   0  0  0  0  0  0  0  0  0  0  0  0
   -2.9153   -1.9354    1.1396 C   0  0  0  0  0  0  0  0  0  0  0  0
   -3.2741   -1.2307    1.8936 H   0  0  0  0  0  0  0  0  0  0  0  0
   -3.5858   -1.9136    0.2776 H   0  0  0  0  0  0  0  0  0  0  0  0
   -1.5083   -1.5615    0.7143 C   0  0  0  0  0  0  0  0  0  0  0  0
   -0.6142   -2.3913    0.7618 O   0  0  0  0  0  0  0  0  0  0  0  0
   -1.2674   -0.3316    0.1354 N   0  0  0  0  0  0  0  0  0  0  0  0
   -2.0690    0.2928    0.1359 H   0  0  0  0  0  0  0  0  0  0  0  0
    0.0344    0.3517    0.2700 C   0  0  1  0  0  0  0  0  0  0  0  0
    0.8085   -0.3284   -0.1002 H   0  0  0  0  0  0  0  0  0  0  0  0
    0.0541    1.5965   -0.6443 C   0  0  1  0  0  0  0  0  0  0  0  0
    1.0309    2.0855   -0.5613 H   0  0  0  0  0  0  0  0  0  0  0  0
   -0.1587    1.2273   -2.1138 C   0  0  0  0  0  0  0  0  0  0  0  0
   -1.1563    0.8070   -2.2736 H   0  0  0  0  0  0  0  0  0  0  0  0
   -0.0510    2.1133   -2.7462 H   0  0  0  0  0  0  0  0  0  0  0  0
    0.5833    0.4874   -2.4298 H   0  0  0  0  0  0  0  0  0  0  0  0
   -0.9765    2.5120   -0.2602 O   0  0  0  0  0  0  0  0  0  0  0  0
   -1.0220    3.2590   -0.8835 H   0  0  0  0  0  0  0  0  0  0  0  0
    0.4429    0.6764    1.7360 C   0  0  0  0  0  0  0  0  0  0  0  0
    0.2613   -0.1189    2.6488 O   0  0  0  0  0  0  0  0  0  0  0  0
    0.9594    1.9178    2.0736 N   0  0  0  0  0  0  0  0  0  0  0  0
    0.8710    2.6420    1.3668 H   0  0  0  0  0  0  0  0  0  0  0  0
    1.2263    2.3251    3.4484 C   0  0  0  0  0  0  0  0  0  0  0  0
    1.9247    1.6296    3.9258 H   0  0  0  0  0  0  0  0  0  0  0  0
    1.6714    3.3243    3.4660 H   0  0  0  0  0  0  0  0  0  0  0  0
    0.2980    2.3468    4.0287 H   0  0  0  0  0  0  0  0  0  0  0  0
  1  2  1  0  0  0  0
  2  3  1  0  0  0  0
  2  4  1  0  0  0  0
  2  5  1  0  0  0  0
  5  6  2  0  0  0  0
  5  7  1  0  0  0  0
  7  8  1  0  0  0  0
  7  9  1  0  0  0  0
  9 10  1  0  0  0  0
  9 11  1  0  0  0  0
  9 19  1  0  0  0  0
 11 12  1  0  0  0  0
 11 13  1  0  0  0  0
 11 17  1  0  0  0  0
 13 14  1  0  0  0  0
 13 15  1  0  0  0  0
 13 16  1  0  0  0  0
 17 18  1  0  0  0  0
 19 20  2  0  0  0  0
 19 21  1  0  0  0  0
 21 22  1  0  0  0  0
 21 23  1  0  0  0  0
 23 24  1  0  0  0  0
 23 25  1  0  0  0  0
 23 26  1  0  0  0  0
M  END
$$$$

  -OEChem-01062216093D

 26 25  0     1  0  0  0  0  0999 V2000
   -2.9433   -2.9370    1.5616 H   0  0  0  0  0  0  0  0  0  0  0  0
   -2.9316   -1.9381    1.1162 C   0  0  0  0  0  0  0  0  0  0  0  0
   -3.3261   -1.2255    1.8443 H   0  0  0  0  0  0  0  0  0  0  0  0
   -3.5700   -1.9385    0.2298 H   0  0  0  0  0  0  0  0  0  0  0  0
   -1.5139   -1.5556    0.7356 C   0  0  0  0  0  0  0  0  0  0  0  0
   -0.6186   -2.3793    0.8204 O   0  0  0  0  0  0  0  0  0  0  0  0
   -1.2678   -0.3283    0.1536 N   0  0  0  0  0  0  0  0  0  0  0  0
   -2.0745    0.2882    0.1157 H   0  0  0  0  0  0  0  0  0  0  0  0
    0.0288    0.3644    0.2850 C   0  0  1  0  0  0  0  0  0  0  0  0
    0.8069   -0.3159   -0.0770 H   0  0  0  0  0  0  0  0  0  0  0  0
    0.0521    1.6029   -0.6376 C   0  0  1  0  0  0  0  0  0  0  0  0
    1.0279    2.0925   -0.5435 H   0  0  0  0  0  0  0  0  0  0  0  0
   -0.1435    1.2216   -2.1062 C   0  0  0  0  0  0  0  0  0  0  0  0
   -1.1378    0.7958   -2.2722 H   0  0  0  0  0  0  0  0  0  0  0  0
   -0.0321    2.1030   -2.7445 H   0  0  0  0  0  0  0  0  0  0  0  0
    0.6047    0.4823   -2.4086 H   0  0  0  0  0  0  0  0  0  0  0  0
   -0.9812    2.5258   -0.2733 O   0  0  0  0  0  0  0  0  0  0  0  0
   -1.0246    3.2575   -0.9153 H   0  0  0  0  0  0  0  0  0  0  0  0
    0.4283    0.6984    1.7480 C   0  0  0  0  0  0  0  0  0  0  0  0
    0.5647   -0.1744    2.5935 O   0  0  0  0  0  0  0  0  0  0  0  0
    0.6350    2.0102    2.1417 N   0  0  0  0  0  0  0  0  0  0  0  0
    0.2983    2.7184    1.4923 H   0  0  0  0  0  0  0  0  0  0  0  0
    0.9062    2.4009    3.5202 C   0  0  0  0  0  0  0  0  0  0  0  0
    1.7972    1.8870    3.8963 H   0  0  0  0  0  0  0  0  0  0  0  0
    1.0819    3.4792    3.5790 H   0  0  0  0  0  0  0  0  0  0  0  0
    0.0567    2.1502    4.1641 H   0  0  0  0  0  0  0  0  0  0  0  0
  1  2  1  0  0  0  0
  2  3  1  0  0  0  0
  2  4  1  0  0  0  0
  2  5  1  0  0  0  0
  5  6  2  0  0  0  0
  5  7  1  0  0  0  0
  7  8  1  0  0  0  0
  7  9  1  0  0  0  0
  9 10  1  0  0  0  0
  9 11  1  0  0  0  0
  9 19  1  0  0  0  0
 11 12  1  0  0  0  0
 11 13  1  0  0  0  0
 11 17  1  0  0  0  0
 13 14  1  0  0  0  0
 13 15  1  0  0  0  0
 13 16  1  0  0  0  0
 17 18  1  0  0  0  0
 19 20  2  0  0  0  0
 19 21  1  0  0  0  0
 21 22  1  0  0  0  0
 21 23  1  0  0  0  0
 23 24  1  0  0  0  0
 23 25  1  0  0  0  0
 23 26  1  0  0  0  0
M  END
$$$$

  -OEChem-01062216093D

 26 25  0     1  0  0  0  0  0999 V2000
   -2.9977   -2.9430    1.5227 H   0  0  0  0  0  0  0  0  0  0  0  0
   -2.9720   -1.9656    1.0325 C   0  0  0  0  0  0  0  0  0  0  0  0
   -3.4561   -1.2341    1.6839 H   0  0  0  0  0  0  0  0  0  0  0  0
   -3.5220   -2.0288    0.0907 H   0  0  0  0  0  0  0  0  0  0  0  0
   -1.5360   -1.5538    0.7686 C   0  0  0  0  0  0  0  0  0  0  0  0
   -0.6328   -2.3446    0.9749 O   0  0  0  0  0  0  0  0  0  0  0  0
   -1.2742   -0.3307    0.1856 N   0  0  0  0  0  0  0  0  0  0  0  0
   -2.0831    0.2731    0.0697 H   0  0  0  0  0  0  0  0  0  0  0  0
    0.0180    0.3687    0.3168 C   0  0  1  0  0  0  0  0  0  0  0  0
    0.7995   -0.3107   -0.0401 H   0  0  0  0  0  0  0  0  0  0  0  0
    0.0346    1.6024   -0.6125 C   0  0  1  0  0  0  0  0  0  0  0  0
    1.0068    2.0981   -0.5094 H   0  0  0  0  0  0  0  0  0  0  0  0
   -0.1472    1.2139   -2.0811 C   0  0  0  0  0  0  0  0  0  0  0  0
   -1.1360    0.7778   -2.2530 H   0  0  0  0  0  0  0  0  0  0  0  0
   -0.0399    2.0945   -2.7212 H   0  0  0  0  0  0  0  0  0  0  0  0
    0.6104    0.4810   -2.3758 H   0  0  0  0  0  0  0  0  0  0  0  0
   -1.0043    2.5271   -0.2624 O   0  0  0  0  0  0  0  0  0  0  0  0
   -1.0211    3.2693   -0.8939 H   0  0  0  0  0  0  0  0  0  0  0  0
    0.4117    0.7149    1.7757 C   0  0  0  0  0  0  0  0  0  0  0  0
    0.8794   -0.1273    2.5282 O   0  0  0  0  0  0  0  0  0  0  0  0
    0.3110    2.0137    2.2426 N   0  0  0  0  0  0  0  0  0  0  0  0
   -0.1840    2.6655    1.6351 H   0  0  0  0  0  0  0  0  0  0  0  0
    0.6199    2.4099    3.6109 C   0  0  0  0  0  0  0  0  0  0  0  0
    1.6654    2.1862    3.8475 H   0  0  0  0  0  0  0  0  0  0  0  0
    0.4597    3.4847    3.7384 H   0  0  0  0  0  0  0  0  0  0  0  0
   -0.0233    1.8765    4.3184 H   0  0  0  0  0  0  0  0  0  0  0  0
  1  2  1  0  0  0  0
  2  3  1  0  0  0  0
  2  4  1  0  0  0  0
  2  5  1  0  0  0  0
  5  6  2  0  0  0  0
  5  7  1  0  0  0  0
  7  8  1  0  0  0  0
  7  9  1  0  0  0  0
  9 10  1  0  0  0  0
  9 11  1  0  0  0  0
  9 19  1  0  0  0  0
 11 12  1  0  0  0  0
 11 13  1  0  0  0  0
 11 17  1  0  0  0  0
 13 14  1  0  0  0  0
 13 15  1  0  0  0  0
 13 16  1  0  0  0  0
 17 18  1  0  0  0  0
 19 20  2  0  0  0  0
 19 21  1  0  0  0  0
 21 22  1  0  0  0  0
 21 23  1  0  0  0  0
 23 24  1  0  0  0  0
 23 25  1  0  0  0  0
 23 26  1  0  0  0  0
M  END
$$$$

  -OEChem-01062216093D

 26 25  0     1  0  0  0  0  0999 V2000
   -3.0552   -2.9875    1.4348 H   0  0  0  0  0  0  0  0  0  0  0  0
   -3.0129   -2.0237    0.9194 C   0  0  0  0  0  0  0  0  0  0  0  0
   -3.5894   -1.2939    1.4927 H   0  0  0  0  0  0  0  0  0  0  0  0
   -3.4577   -2.1345   -0.0724 H   0  0  0  0  0  0  0  0  0  0  0  0
   -1.5726   -1.5640    0.7935 C   0  0  0  0  0  0  0  0  0  0  0  0
   -0.6708   -2.3025    1.1449 O   0  0  0  0  0  0  0  0  0  0  0  0
   -1.2956   -0.3419    0.2164 N   0  0  0  0  0  0  0  0  0  0  0  0
   -2.1007    0.2441    0.0145 H   0  0  0  0  0  0  0  0  0  0  0  0
   -0.0059    0.3604    0.3562 C   0  0  1  0  0  0  0  0  0  0  0  0
    0.7781   -0.3171    0.0001 H   0  0  0  0  0  0  0  0  0  0  0  0
    0.0126    1.5977   -0.5671 C   0  0  1  0  0  0  0  0  0  0  0  0
    0.9826    2.0947   -0.4504 H   0  0  0  0  0  0  0  0  0  0  0  0
   -0.1541    1.2152   -2.0388 C   0  0  0  0  0  0  0  0  0  0  0  0
   -1.1407    0.7791   -2.2215 H   0  0  0  0  0  0  0  0  0  0  0  0
   -0.0416    2.0982   -2.6745 H   0  0  0  0  0  0  0  0  0  0  0  0
    0.6073    0.4845   -2.3289 H   0  0  0  0  0  0  0  0  0  0  0  0
   -1.0296    2.5212   -0.2219 O   0  0  0  0  0  0  0  0  0  0  0  0
   -1.0123    3.2866   -0.8250 H   0  0  0  0  0  0  0  0  0  0  0  0
    0.3791    0.7089    1.8140 C   0  0  0  0  0  0  0  0  0  0  0  0
    1.1427   -0.0023    2.4517 O   0  0  0  0  0  0  0  0  0  0  0  0
   -0.0089    1.9137    2.3720 N   0  0  0  0  0  0  0  0  0  0  0  0
   -0.6003    2.5078    1.7917 H   0  0  0  0  0  0  0  0  0  0  0  0
    0.3785    2.3611    3.7036 C   0  0  0  0  0  0  0  0  0  0  0  0
    1.4665    2.4632    3.7720 H   0  0  0  0  0  0  0  0  0  0  0  0
   -0.0750    3.3325    3.9223 H   0  0  0  0  0  0  0  0  0  0  0  0
    0.0431    1.6446    4.4608 H   0  0  0  0  0  0  0  0  0  0  0  0
  1  2  1  0  0  0  0
  2  3  1  0  0  0  0
  2  4  1  0  0  0  0
  2  5  1  0  0  0  0
  5  6  2  0  0  0  0
  5  7  1  0  0  0  0
  7  8  1  0  0  0  0
  7  9  1  0  0  0  0
  9 10  1  0  0  0  0
  9 11  1  0  0  0  0
  9 19  1  0  0  0  0
 11 12  1  0  0  0  0
 11 13  1  0  0  0  0
 11 17  1  0  0  0  0
 13 14  1  0  0  0  0
 13 15  1  0  0  0  0
 13 16  1  0  0  0  0
 17 18  1  0  0  0  0
 19 20  2  0  0  0  0
 19 21  1  0  0  0  0
 21 22  1  0  0  0  0
 21 23  1  0  0  0  0
 23 24  1  0  0  0  0
 23 25  1  0  0  0  0
 23 26  1  0  0  0  0
M  END
$$$$

  -OEChem-01062216093D

 26 25  0     1  0  0  0  0  0999 V2000
   -3.0875   -3.0404    1.3451 H   0  0  0  0  0  0  0  0  0  0  0  0
   -3.0354   -2.0667    0.8494 C   0  0  0  0  0  0  0  0  0  0  0  0
   -3.6538   -1.3571    1.4042 H   0  0  0  0  0  0  0  0  0  0  0  0
   -3.4265   -2.1669   -0.1659 H   0  0  0  0  0  0  0  0  0  0  0  0
   -1.5990   -1.5800    0.8065 C   0  0  0  0  0  0  0  0  0  0  0  0
   -0.7086   -2.2815    1.2512 O   0  0  0  0  0  0  0  0  0  0  0  0
   -1.3096   -0.3600    0.2316 N   0  0  0  0  0  0  0  0  0  0  0  0
   -2.1057    0.2160   -0.0271 H   0  0  0  0  0  0  0  0  0  0  0  0
   -0.0170    0.3349    0.3780 C   0  0  1  0  0  0  0  0  0  0  0  0
    0.7650   -0.3424    0.0173 H   0  0  0  0  0  0  0  0  0  0  0  0
    0.0064    1.5853   -0.5250 C   0  0  1  0  0  0  0  0  0  0  0  0
    0.9779    2.0765   -0.3982 H   0  0  0  0  0  0  0  0  0  0  0  0
   -0.1611    1.2299   -2.0033 C   0  0  0  0  0  0  0  0  0  0  0  0
   -1.1493    0.8011   -2.1947 H   0  0  0  0  0  0  0  0  0  0  0  0
   -0.0446    2.1240   -2.6228 H   0  0  0  0  0  0  0  0  0  0  0  0
    0.5978    0.5018   -2.3061 H   0  0  0  0  0  0  0  0  0  0  0  0
   -1.0319    2.5059   -0.1604 O   0  0  0  0  0  0  0  0  0  0  0  0
   -0.9849    3.3022   -0.7204 H   0  0  0  0  0  0  0  0  0  0  0  0
    0.3605    0.6790    1.8358 C   0  0  0  0  0  0  0  0  0  0  0  0
    1.3281    0.1532    2.3693 O   0  0  0  0  0  0  0  0  0  0  0  0
   -0.2716    1.7212    2.4895 N   0  0  0  0  0  0  0  0  0  0  0  0
   -0.9381    2.2540    1.9324 H   0  0  0  0  0  0  0  0  0  0  0  0
    0.1404    2.2291    3.7915 C   0  0  0  0  0  0  0  0  0  0  0  0
    1.1452    2.6600    3.7342 H   0  0  0  0  0  0  0  0  0  0  0  0
   -0.5526    3.0047    4.1310 H   0  0  0  0  0  0  0  0  0  0  0  0
    0.1445    1.4228    4.5326 H   0  0  0  0  0  0  0  0  0  0  0  0
  1  2  1  0  0  0  0
  2  3  1  0  0  0  0
  2  4  1  0  0  0  0
  2  5  1  0  0  0  0
  5  6  2  0  0  0  0
  5  7  1  0  0  0  0
  7  8  1  0  0  0  0
  7  9  1  0  0  0  0
  9 10  1  0  0  0  0
  9 11  1  0  0  0  0
  9 19  1  0  0  0  0
 11 12  1  0  0  0  0
 11 13  1  0  0  0  0
 11 17  1  0  0  0  0
 13 14  1  0  0  0  0
 13 15  1  0  0  0  0
 13 16  1  0  0  0  0
 17 18  1  0  0  0  0
 19 20  2  0  0  0  0
 19 21  1  0  0  0  0
 21 22  1  0  0  0  0
 21 23  1  0  0  0  0
 23 24  1  0  0  0  0
 23 25  1  0  0  0  0
 23 26  1  0  0  0  0
M  END
$$$$

  -OEChem-01062216093D

 26 25  0     1  0  0  0  0  0999 V2000
   -3.0976   -3.0607    1.3311 H   0  0  0  0  0  0  0  0  0  0  0  0
   -3.0405   -2.0971    0.8168 C   0  0  0  0  0  0  0  0  0  0  0  0
   -3.6880   -1.3847    1.3334 H   0  0  0  0  0  0  0  0  0  0  0  0
   -3.3930   -2.2248   -0.2094 H   0  0  0  0  0  0  0  0  0  0  0  0
   -1.6098   -1.5921    0.8145 C   0  0  0  0  0  0  0  0  0  0  0  0
   -0.7268   -2.2696    1.3092 O   0  0  0  0  0  0  0  0  0  0  0  0
   -1.3143   -0.3751    0.2362 N   0  0  0  0  0  0  0  0  0  0  0  0
   -2.1016    0.1919   -0.0653 H   0  0  0  0  0  0  0  0  0  0  0  0
   -0.0162    0.3104    0.3797 C   0  0  1  0  0  0  0  0  0  0  0  0
    0.7614   -0.3666    0.0093 H   0  0  0  0  0  0  0  0  0  0  0  0
    0.0054    1.5746   -0.5004 C   0  0  1  0  0  0  0  0  0  0  0  0
    0.9798    2.0599   -0.3729 H   0  0  0  0  0  0  0  0  0  0  0  0
   -0.1777    1.2504   -1.9841 C   0  0  0  0  0  0  0  0  0  0  0  0
   -1.1703    0.8319   -2.1751 H   0  0  0  0  0  0  0  0  0  0  0  0
   -0.0610    2.1565   -2.5861 H   0  0  0  0  0  0  0  0  0  0  0  0
    0.5741    0.5241   -2.3085 H   0  0  0  0  0  0  0  0  0  0  0  0
   -1.0257    2.4878   -0.1011 O   0  0  0  0  0  0  0  0  0  0  0  0
   -0.9511    3.3182   -0.6054 H   0  0  0  0  0  0  0  0  0  0  0  0
    0.3678    0.6539    1.8339 C   0  0  0  0  0  0  0  0  0  0  0  0
    1.4679    0.3415    2.2713 O   0  0  0  0  0  0  0  0  0  0  0  0
   -0.4467    1.4787    2.5891 N   0  0  0  0  0  0  0  0  0  0  0  0
   -1.2178    1.9124    2.0860 H   0  0  0  0  0  0  0  0  0  0  0  0
   -0.0632    2.0085    3.8911 C   0  0  0  0  0  0  0  0  0  0  0  0
    0.8165    2.6538    3.7981 H   0  0  0  0  0  0  0  0  0  0  0  0
   -0.8829    2.5954    4.3163 H   0  0  0  0  0  0  0  0  0  0  0  0
    0.1699    1.1918    4.5826 H   0  0  0  0  0  0  0  0  0  0  0  0
  1  2  1  0  0  0  0
  2  3  1  0  0  0  0
  2  4  1  0  0  0  0
  2  5  1  0  0  0  0
  5  6  2  0  0  0  0
  5  7  1  0  0  0  0
  7  8  1  0  0  0  0
  7  9  1  0  0  0  0
  9 10  1  0  0  0  0
  9 11  1  0  0  0  0
  9 19  1  0  0  0  0
 11 12  1  0  0  0  0
 11 13  1  0  0  0  0
 11 17  1  0  0  0  0
 13 14  1  0  0  0  0
 13 15  1  0  0  0  0
 13 16  1  0  0  0  0
 17 18  1  0  0  0  0
 19 20  2  0  0  0  0
 19 21  1  0  0  0  0
 21 22  1  0  0  0  0
 21 23  1  0  0  0  0
 23 24  1  0  0  0  0
 23 25  1  0  0  0  0
 23 26  1  0  0  0  0
M  END
$$$$

  -OEChem-01062216093D

 26 25  0     1  0  0  0  0  0999 V2000
   -3.1114   -3.0770    1.2977 H   0  0  0  0  0  0  0  0  0  0  0  0
   -3.0469   -2.1130    0.7850 C   0  0  0  0  0  0  0  0  0  0  0  0
   -3.7128   -1.4049    1.2838 H   0  0  0  0  0  0  0  0  0  0  0  0
   -3.3710   -2.2429   -0.2502 H   0  0  0  0  0  0  0  0  0  0  0  0
   -1.6202   -1.5982    0.8204 C   0  0  0  0  0  0  0  0  0  0  0  0
   -0.7476   -2.2601    1.3540 O   0  0  0  0  0  0  0  0  0  0  0  0
   -1.3144   -0.3860    0.2383 N   0  0  0  0  0  0  0  0  0  0  0  0
   -2.0903    0.1729   -0.1053 H   0  0  0  0  0  0  0  0  0  0  0  0
   -0.0110    0.2905    0.3788 C   0  0  1  0  0  0  0  0  0  0  0  0
    0.7623   -0.3873    0.0016 H   0  0  0  0  0  0  0  0  0  0  0  0
    0.0060    1.5622   -0.4873 C   0  0  1  0  0  0  0  0  0  0  0  0
    0.9821    2.0450   -0.3624 H   0  0  0  0  0  0  0  0  0  0  0  0
   -0.1938    1.2589   -1.9729 C   0  0  0  0  0  0  0  0  0  0  0  0
   -1.1880    0.8421   -2.1591 H   0  0  0  0  0  0  0  0  0  0  0  0
   -0.0852    2.1740   -2.5624 H   0  0  0  0  0  0  0  0  0  0  0  0
    0.5553    0.5386   -2.3158 H   0  0  0  0  0  0  0  0  0  0  0  0
   -1.0207    2.4666   -0.0606 O   0  0  0  0  0  0  0  0  0  0  0  0
   -0.9254    3.3223   -0.5160 H   0  0  0  0  0  0  0  0  0  0  0  0
    0.3872    0.6415    1.8263 C   0  0  0  0  0  0  0  0  0  0  0  0
    1.5602    0.5663    2.1710 O   0  0  0  0  0  0  0  0  0  0  0  0
   -0.5356    1.2111    2.6857 N   0  0  0  0  0  0  0  0  0  0  0  0
   -1.4294    1.4627    2.2740 H   0  0  0  0  0  0  0  0  0  0  0  0
   -0.1882    1.7357    3.9995 C   0  0  0  0  0  0  0  0  0  0  0  0
    0.5137    2.5707    3.9056 H   0  0  0  0  0  0  0  0  0  0  0  0
   -1.0863    2.0914    4.5133 H   0  0  0  0  0  0  0  0  0  0  0  0
    0.2725    0.9543    4.6131 H   0  0  0  0  0  0  0  0  0  0  0  0
  1  2  1  0  0  0  0
  2  3  1  0  0  0  0
  2  4  1  0  0  0  0
  2  5  1  0  0  0  0
  5  6  2  0  0  0  0
  5  7  1  0  0  0  0
  7  8  1  0  0  0  0
  7  9  1  0  0  0  0
  9 10  1  0  0  0  0
  9 11  1  0  0  0  0
  9 19  1  0  0  0  0
 11 12  1  0  0  0  0
 11 13  1  0  0  0  0
 11 17  1  0  0  0  0
 13 14  1  0  0  0  0
 13 15  1  0  0  0  0
 13 16  1  0  0  0  0
 17 18  1  0  0  0  0
 19 20  2  0  0  0  0
 19 21  1  0  0  0  0
 21 22  1  0  0  0  0
 21 23  1  0  0  0  0
 23 24  1  0  0  0  0
 23 25  1  0  0  0  0
 23 26  1  0  0  0  0
M  END
$$$$

  -OEChem-01062216093D

 26 25  0     1  0  0  0  0  0999 V2000
   -3.1135   -3.0748    1.2816 H   0  0  0  0  0  0  0  0  0  0  0  0
   -3.0448   -2.1179    0.7563 C   0  0  0  0  0  0  0  0  0  0  0  0
   -3.7408   -1.4130    1.2171 H   0  0  0  0  0  0  0  0  0  0  0  0
   -3.3265   -2.2694   -0.2885 H   0  0  0  0  0  0  0  0  0  0  0  0
   -1.6291   -1.5792    0.8375 C   0  0  0  0  0  0  0  0  0  0  0  0
   -0.7689   -2.2134    1.4221 O   0  0  0  0  0  0  0  0  0  0  0  0
   -1.3188   -0.3728    0.2460 N   0  0  0  0  0  0  0  0  0  0  0  0
   -2.0846    0.1693   -0.1452 H   0  0  0  0  0  0  0  0  0  0  0  0
   -0.0151    0.3070    0.3778 C   0  0  1  0  0  0  0  0  0  0  0  0
    0.7564   -0.3750    0.0055 H   0  0  0  0  0  0  0  0  0  0  0  0
   -0.0037    1.5670   -0.5049 C   0  0  1  0  0  0  0  0  0  0  0  0
    0.9703    2.0565   -0.3898 H   0  0  0  0  0  0  0  0  0  0  0  0
   -0.2057    1.2451   -1.9863 C   0  0  0  0  0  0  0  0  0  0  0  0
   -1.1989    0.8229   -2.1655 H   0  0  0  0  0  0  0  0  0  0  0  0
   -0.1016    2.1536   -2.5866 H   0  0  0  0  0  0  0  0  0  0  0  0
    0.5455    0.5235   -2.3218 H   0  0  0  0  0  0  0  0  0  0  0  0
   -1.0330    2.4696   -0.0844 O   0  0  0  0  0  0  0  0  0  0  0  0
   -0.9208    3.3343   -0.5175 H   0  0  0  0  0  0  0  0  0  0  0  0
    0.4012    0.6807    1.8150 C   0  0  0  0  0  0  0  0  0  0  0  0
    1.5874    0.8433    2.0760 O   0  0  0  0  0  0  0  0  0  0  0  0
   -0.5482    0.9728    2.7785 N   0  0  0  0  0  0  0  0  0  0  0  0
   -1.5207    0.9042    2.4986 H   0  0  0  0  0  0  0  0  0  0  0  0
   -0.2212    1.3907    4.1348 C   0  0  0  0  0  0  0  0  0  0  0  0
    0.3570    2.3205    4.1207 H   0  0  0  0  0  0  0  0  0  0  0  0
   -1.1372    1.5612    4.7083 H   0  0  0  0  0  0  0  0  0  0  0  0
    0.3655    0.6172    4.6414 H   0  0  0  0  0  0  0  0  0  0  0  0
  1  2  1  0  0  0  0
  2  3  1  0  0  0  0
  2  4  1  0  0  0  0
  2  5  1  0  0  0  0
  5  6  2  0  0  0  0
  5  7  1  0  0  0  0
  7  8  1  0  0  0  0
  7  9  1  0  0  0  0
  9 10  1  0  0  0  0
  9 11  1  0  0  0  0
  9 19  1  0  0  0  0
 11 12  1  0  0  0  0
 11 13  1  0  0  0  0
 11 17  1  0  0  0  0
 13 14  1  0  0  0  0
 13 15  1  0  0  0  0
 13 16  1  0  0  0  0
 17 18  1  0  0  0  0
 19 20  2  0  0  0  0
 19 21  1  0  0  0  0
 21 22  1  0  0  0  0
 21 23  1  0  0  0  0
 23 24  1  0  0  0  0
 23 25  1  0  0  0  0
 23 26  1  0  0  0  0
M  END
$$$$

  -OEChem-01062216093D

 26 25  0     1  0  0  0  0  0999 V2000
   -3.1329   -3.0574    1.2649 H   0  0  0  0  0  0  0  0  0  0  0  0
   -3.0513   -2.1097    0.7250 C   0  0  0  0  0  0  0  0  0  0  0  0
   -3.7641   -1.3995    1.1507 H   0  0  0  0  0  0  0  0  0  0  0  0
   -3.3000   -2.2808   -0.3251 H   0  0  0  0  0  0  0  0  0  0  0  0
   -1.6408   -1.5634    0.8395 C   0  0  0  0  0  0  0  0  0  0  0  0
   -0.8006   -2.1712    1.4787 O   0  0  0  0  0  0  0  0  0  0  0  0
   -1.3204   -0.3614    0.2462 N   0  0  0  0  0  0  0  0  0  0  0  0
   -2.0810    0.1746   -0.1641 H   0  0  0  0  0  0  0  0  0  0  0  0
   -0.0234    0.3317    0.3871 C   0  0  1  0  0  0  0  0  0  0  0  0
    0.7572   -0.3484    0.0309 H   0  0  0  0  0  0  0  0  0  0  0  0
   -0.0213    1.5766   -0.5203 C   0  0  1  0  0  0  0  0  0  0  0  0
    0.9432    2.0850   -0.4072 H   0  0  0  0  0  0  0  0  0  0  0  0
   -0.2027    1.2265   -1.9983 C   0  0  0  0  0  0  0  0  0  0  0  0
   -1.1849    0.7807   -2.1800 H   0  0  0  0  0  0  0  0  0  0  0  0
   -0.1121    2.1273   -2.6123 H   0  0  0  0  0  0  0  0  0  0  0  0
    0.5669    0.5161   -2.3155 H   0  0  0  0  0  0  0  0  0  0  0  0
   -1.0690    2.4687   -0.1248 O   0  0  0  0  0  0  0  0  0  0  0  0
   -0.9500    3.3384   -0.5453 H   0  0  0  0  0  0  0  0  0  0  0  0
    0.3895    0.7317    1.8207 C   0  0  0  0  0  0  0  0  0  0  0  0
    1.5294    1.1333    2.0262 O   0  0  0  0  0  0  0  0  0  0  0  0
   -0.5228    0.7371    2.8614 N   0  0  0  0  0  0  0  0  0  0  0  0
   -1.4115    0.2849    2.6770 H   0  0  0  0  0  0  0  0  0  0  0  0
   -0.1572    1.0279    4.2411 C   0  0  0  0  0  0  0  0  0  0  0  0
    0.2963    2.0218    4.3165 H   0  0  0  0  0  0  0  0  0  0  0  0
   -1.0455    1.0060    4.8795 H   0  0  0  0  0  0  0  0  0  0  0  0
    0.5563    0.2843    4.6114 H   0  0  0  0  0  0  0  0  0  0  0  0
  1  2  1  0  0  0  0
  2  3  1  0  0  0  0
  2  4  1  0  0  0  0
  2  5  1  0  0  0  0
  5  6  2  0  0  0  0
  5  7  1  0  0  0  0
  7  8  1  0  0  0  0
  7  9  1  0  0  0  0
  9 10  1  0  0  0  0
  9 11  1  0  0  0  0
  9 19  1  0  0  0  0
 11 12  1  0  0  0  0
 11 13  1  0  0  0  0
 11 17  1  0  0  0  0
 13 14  1  0  0  0  0
 13 15  1  0  0  0  0
 13 16  1  0  0  0  0
 17 18  1  0  0  0  0
 19 20  2  0  0  0  0
 19 21  1  0  0  0  0
 21 22  1  0  0  0  0
 21 23  1  0  0  0  0
 23 24  1  0  0  0  0
 23 25  1  0  0  0  0
 23 26  1  0  0  0  0
M  END
$$$$

  -OEChem-01062216093D

 26 25  0     1  0  0  0  0  0999 V2000
   -3.1756   -3.0626    1.1843 H   0  0  0  0  0  0  0  0  0  0  0  0
   -3.0767   -2.1066    0.6622 C   0  0  0  0  0  0  0  0  0  0  0  0
   -3.7996   -1.4011    1.0793 H   0  0  0  0  0  0  0  0  0  0  0  0
   -3.2971   -2.2604   -0.3971 H   0  0  0  0  0  0  0  0  0  0  0  0
   -1.6692   -1.5650    0.8247 C   0  0  0  0  0  0  0  0  0  0  0  0
   -0.8585   -2.1649    1.5091 O   0  0  0  0  0  0  0  0  0  0  0  0
   -1.3274   -0.3601    0.2513 N   0  0  0  0  0  0  0  0  0  0  0  0
   -2.0791    0.1807   -0.1699 H   0  0  0  0  0  0  0  0  0  0  0  0
   -0.0318    0.3349    0.4052 C   0  0  1  0  0  0  0  0  0  0  0  0
    0.7507   -0.3434    0.0515 H   0  0  0  0  0  0  0  0  0  0  0  0
   -0.0366    1.5748   -0.5127 C   0  0  1  0  0  0  0  0  0  0  0  0
    0.9222    2.0941   -0.4041 H   0  0  0  0  0  0  0  0  0  0  0  0
   -0.2100    1.2137   -1.9892 C   0  0  0  0  0  0  0  0  0  0  0  0
   -1.1892    0.7619   -2.1724 H   0  0  0  0  0  0  0  0  0  0  0  0
   -0.1221    2.1115   -2.6084 H   0  0  0  0  0  0  0  0  0  0  0  0
    0.5648    0.5055   -2.2987 H   0  0  0  0  0  0  0  0  0  0  0  0
   -1.0945    2.4598   -0.1292 O   0  0  0  0  0  0  0  0  0  0  0  0
   -0.9621    3.3381   -0.5272 H   0  0  0  0  0  0  0  0  0  0  0  0
    0.3856    0.7330    1.8419 C   0  0  0  0  0  0  0  0  0  0  0  0
    1.4243    1.3618    2.0159 O   0  0  0  0  0  0  0  0  0  0  0  0
   -0.4134    0.4517    2.9363 N   0  0  0  0  0  0  0  0  0  0  0  0
   -1.0928   -0.2894    2.7845 H   0  0  0  0  0  0  0  0  0  0  0  0
    0.0026    0.7250    4.3058 C   0  0  0  0  0  0  0  0  0  0  0  0
    0.2234    1.7898    4.4348 H   0  0  0  0  0  0  0  0  0  0  0  0
   -0.7954    0.4532    5.0031 H   0  0  0  0  0  0  0  0  0  0  0  0
    0.8971    0.1456    4.5570 H   0  0  0  0  0  0  0  0  0  0  0  0
  1  2  1  0  0  0  0
  2  3  1  0  0  0  0
  2  4  1  0  0  0  0
  2  5  1  0  0  0  0
  5  6  2  0  0  0  0
  5  7  1  0  0  0  0
  7  8  1  0  0  0  0
  7  9  1  0  0  0  0
  9 10  1  0  0  0  0
  9 11  1  0  0  0  0
  9 19  1  0  0  0  0
 11 12  1  0  0  0  0
 11 13  1  0  0  0  0
 11 17  1  0  0  0  0
 13 14  1  0  0  0  0
 13 15  1  0  0  0  0
 13 16  1  0  0  0  0
 17 18  1  0  0  0  0
 19 20  2  0  0  0  0
 19 21  1  0  0  0  0
 21 22  1  0  0  0  0
 21 23  1  0  0  0  0
 23 24  1  0  0  0  0
 23 25  1  0  0  0  0
 23 26  1  0  0  0  0
M  END
$$$$

  -OEChem-01062216093D

 26 25  0     1  0  0  0  0  0999 V2000
   -3.1945   -3.0513    1.1673 H   0  0  0  0  0  0  0  0  0  0  0  0
   -3.0892   -2.0900    0.6563 C   0  0  0  0  0  0  0  0  0  0  0  0
   -3.7932   -1.3786    1.0952 H   0  0  0  0  0  0  0  0  0  0  0  0
   -3.3301   -2.2258   -0.4009 H   0  0  0  0  0  0  0  0  0  0  0  0
   -1.6708   -1.5732    0.8025 C   0  0  0  0  0  0  0  0  0  0  0  0
   -0.8524   -2.2075    1.4473 O   0  0  0  0  0  0  0  0  0  0  0  0
   -1.3224   -0.3619    0.2465 N   0  0  0  0  0  0  0  0  0  0  0  0
   -2.0805    0.1979   -0.1374 H   0  0  0  0  0  0  0  0  0  0  0  0
   -0.0296    0.3369    0.4116 C   0  0  1  0  0  0  0  0  0  0  0  0
    0.7562   -0.3367    0.0567 H   0  0  0  0  0  0  0  0  0  0  0  0
   -0.0441    1.5742   -0.5123 C   0  0  1  0  0  0  0  0  0  0  0  0
    0.9093    2.1037   -0.4062 H   0  0  0  0  0  0  0  0  0  0  0  0
   -0.2115    1.2067   -1.9882 C   0  0  0  0  0  0  0  0  0  0  0  0
   -1.1890    0.7522   -2.1734 H   0  0  0  0  0  0  0  0  0  0  0  0
   -0.1235    2.1023   -2.6102 H   0  0  0  0  0  0  0  0  0  0  0  0
    0.5656    0.4989   -2.2926 H   0  0  0  0  0  0  0  0  0  0  0  0
   -1.1127    2.4488   -0.1346 O   0  0  0  0  0  0  0  0  0  0  0  0
   -0.9737    3.3347   -0.5127 H   0  0  0  0  0  0  0  0  0  0  0  0
    0.3859    0.7261    1.8548 C   0  0  0  0  0  0  0  0  0  0  0  0
    1.2865    1.5392    2.0353 O   0  0  0  0  0  0  0  0  0  0  0  0
   -0.2387    0.1814    2.9631 N   0  0  0  0  0  0  0  0  0  0  0  0
   -0.7423   -0.6863    2.7786 H   0  0  0  0  0  0  0  0  0  0  0  0
    0.2080    0.4323    4.3273 C   0  0  0  0  0  0  0  0  0  0  0  0
    0.1898    1.5051    4.5459 H   0  0  0  0  0  0  0  0  0  0  0  0
   -0.4518   -0.0738    5.0383 H   0  0  0  0  0  0  0  0  0  0  0  0
    1.2274    0.0596    4.4715 H   0  0  0  0  0  0  0  0  0  0  0  0
  1  2  1  0  0  0  0
  2  3  1  0  0  0  0
  2  4  1  0  0  0  0
  2  5  1  0  0  0  0
  5  6  2  0  0  0  0
  5  7  1  0  0  0  0
  7  8  1  0  0  0  0
  7  9  1  0  0  0  0
  9 10  1  0  0  0  0
  9 11  1  0  0  0  0
  9 19  1  0  0  0  0
 11 12  1  0  0  0  0
 11 13  1  0  0  0  0
 11 17  1  0  0  0  0
 13 14  1  0  0  0  0
 13 15  1  0  0  0  0
 13 16  1  0  0  0  0
 17 18  1  0  0  0  0
 19 20  2  0  0  0  0
 19 21  1  0  0  0  0
 21 22  1  0  0  0  0
 21 23  1  0  0  0  0
 23 24  1  0  0  0  0
 23 25  1  0  0  0  0
 23 26  1  0  0  0  0
M  END
$$$$

  -OEChem-01062216093D

 26 25  0     1  0  0  0  0  0999 V2000
   -3.1983   -3.0364    1.1878 H   0  0  0  0  0  0  0  0  0  0  0  0
   -3.0924   -2.0724    0.6823 C   0  0  0  0  0  0  0  0  0  0  0  0
   -3.7683   -1.3532    1.1515 H   0  0  0  0  0  0  0  0  0  0  0  0
   -3.3711   -2.1931   -0.3674 H   0  0  0  0  0  0  0  0  0  0  0  0
   -1.6607   -1.5816    0.7844 C   0  0  0  0  0  0  0  0  0  0  0  0
   -0.8224   -2.2581    1.3584 O   0  0  0  0  0  0  0  0  0  0  0  0
   -1.3156   -0.3638    0.2397 N   0  0  0  0  0  0  0  0  0  0  0  0
   -2.0842    0.2126   -0.0966 H   0  0  0  0  0  0  0  0  0  0  0  0
   -0.0274    0.3412    0.4129 C   0  0  1  0  0  0  0  0  0  0  0  0
    0.7633   -0.3272    0.0590 H   0  0  0  0  0  0  0  0  0  0  0  0
   -0.0490    1.5746   -0.5175 C   0  0  1  0  0  0  0  0  0  0  0  0
    0.8986    2.1135   -0.4077 H   0  0  0  0  0  0  0  0  0  0  0  0
   -0.2025    1.2019   -1.9941 C   0  0  0  0  0  0  0  0  0  0  0  0
   -1.1679    0.7235   -2.1827 H   0  0  0  0  0  0  0  0  0  0  0  0
   -0.1346    2.0990   -2.6166 H   0  0  0  0  0  0  0  0  0  0  0  0
    0.5928    0.5134   -2.2952 H   0  0  0  0  0  0  0  0  0  0  0  0
   -1.1279    2.4406   -0.1479 O   0  0  0  0  0  0  0  0  0  0  0  0
   -0.9799    3.3346   -0.5032 H   0  0  0  0  0  0  0  0  0  0  0  0
    0.3813    0.7219    1.8626 C   0  0  0  0  0  0  0  0  0  0  0  0
    1.1165    1.6813    2.0723 O   0  0  0  0  0  0  0  0  0  0  0  0
   -0.0148   -0.0389    2.9482 N   0  0  0  0  0  0  0  0  0  0  0  0
   -0.4016   -0.9560    2.7168 H   0  0  0  0  0  0  0  0  0  0  0  0
    0.4703    0.1823    4.3045 C   0  0  0  0  0  0  0  0  0  0  0  0
    0.2307    1.1975    4.6373 H   0  0  0  0  0  0  0  0  0  0  0  0
   -0.0022   -0.5252    4.9926 H   0  0  0  0  0  0  0  0  0  0  0  0
    1.5551    0.0418    4.3518 H   0  0  0  0  0  0  0  0  0  0  0  0
  1  2  1  0  0  0  0
  2  3  1  0  0  0  0
  2  4  1  0  0  0  0
  2  5  1  0  0  0  0
  5  6  2  0  0  0  0
  5  7  1  0  0  0  0
  7  8  1  0  0  0  0
  7  9  1  0  0  0  0
  9 10  1  0  0  0  0
  9 11  1  0  0  0  0
  9 19  1  0  0  0  0
 11 12  1  0  0  0  0
 11 13  1  0  0  0  0
 11 17  1  0  0  0  0
 13 14  1  0  0  0  0
 13 15  1  0  0  0  0
 13 16  1  0  0  0  0
 17 18  1  0  0  0  0
 19 20  2  0  0  0  0
 19 21  1  0  0  0  0
 21 22  1  0  0  0  0
 21 23  1  0  0  0  0
 23 24  1  0  0  0  0
 23 25  1  0  0  0  0
 23 26  1  0  0  0  0
M  END
$$$$

  -OEChem-01062216093D

 26 25  0     1  0  0  0  0  0999 V2000
   -3.1725   -3.0313    1.2280 H   0  0  0  0  0  0  0  0  0  0  0  0
   -3.0793   -2.0626    0.7288 C   0  0  0  0  0  0  0  0  0  0  0  0
   -3.7283   -1.3429    1.2337 H   0  0  0  0  0  0  0  0  0  0  0  0
   -3.4027   -2.1690   -0.3094 H   0  0  0  0  0  0  0  0  0  0  0  0
   -1.6402   -1.5856    0.7759 C   0  0  0  0  0  0  0  0  0  0  0  0
   -0.7796   -2.2901    1.2802 O   0  0  0  0  0  0  0  0  0  0  0  0
   -1.3074   -0.3631    0.2337 N   0  0  0  0  0  0  0  0  0  0  0  0
   -2.0856    0.2243   -0.0589 H   0  0  0  0  0  0  0  0  0  0  0  0
   -0.0202    0.3421    0.4035 C   0  0  1  0  0  0  0  0  0  0  0  0
    0.7707   -0.3229    0.0434 H   0  0  0  0  0  0  0  0  0  0  0  0
   -0.0467    1.5757   -0.5259 C   0  0  1  0  0  0  0  0  0  0  0  0
    0.9015    2.1138   -0.4151 H   0  0  0  0  0  0  0  0  0  0  0  0
   -0.2025    1.2039   -2.0020 C   0  0  0  0  0  0  0  0  0  0  0  0
   -1.1713    0.7318   -2.1897 H   0  0  0  0  0  0  0  0  0  0  0  0
   -0.1285    2.1006   -2.6242 H   0  0  0  0  0  0  0  0  0  0  0  0
    0.5880    0.5099   -2.3033 H   0  0  0  0  0  0  0  0  0  0  0  0
   -1.1255    2.4414   -0.1541 O   0  0  0  0  0  0  0  0  0  0  0  0
   -0.9541    3.3472   -0.4657 H   0  0  0  0  0  0  0  0  0  0  0  0
    0.3873    0.7099    1.8570 C   0  0  0  0  0  0  0  0  0  0  0  0
    0.9267    1.7812    2.1146 O   0  0  0  0  0  0  0  0  0  0  0  0
    0.2598   -0.2071    2.8839 N   0  0  0  0  0  0  0  0  0  0  0  0
   -0.0423   -1.1456    2.6115 H   0  0  0  0  0  0  0  0  0  0  0  0
    0.7577    0.0072    4.2363 C   0  0  0  0  0  0  0  0  0  0  0  0
    0.3023    0.9008    4.6755 H   0  0  0  0  0  0  0  0  0  0  0  0
    0.5108   -0.8513    4.8681 H   0  0  0  0  0  0  0  0  0  0  0  0
    1.8454    0.1319    4.2289 H   0  0  0  0  0  0  0  0  0  0  0  0
  1  2  1  0  0  0  0
  2  3  1  0  0  0  0
  2  4  1  0  0  0  0
  2  5  1  0  0  0  0
  5  6  2  0  0  0  0
  5  7  1  0  0  0  0
  7  8  1  0  0  0  0
  7  9  1  0  0  0  0
  9 10  1  0  0  0  0
  9 11  1  0  0  0  0
  9 19  1  0  0  0  0
 11 12  1  0  0  0  0
 11 13  1  0  0  0  0
 11 17  1  0  0  0  0
 13 14  1  0  0  0  0
 13 15  1  0  0  0  0
 13 16  1  0  0  0  0
 17 18  1  0  0  0  0
 19 20  2  0  0  0  0
 19 21  1  0  0  0  0
 21 22  1  0  0  0  0
 21 23  1  0  0  0  0
 23 24  1  0  0  0  0
 23 25  1  0  0  0  0
 23 26  1  0  0  0  0
M  END
$$$$

  -OEChem-01062216093D

 26 25  0     1  0  0  0  0  0999 V2000
   -3.1265   -2.9947    1.2812 H   0  0  0  0  0  0  0  0  0  0  0  0
   -3.0477   -2.0051    0.8220 C   0  0  0  0  0  0  0  0  0  0  0  0
   -3.6490   -1.2995    1.4006 H   0  0  0  0  0  0  0  0  0  0  0  0
   -3.4395   -2.0582   -0.1968 H   0  0  0  0  0  0  0  0  0  0  0  0
   -1.5998   -1.5536    0.7974 C   0  0  0  0  0  0  0  0  0  0  0  0
   -0.7296   -2.2644    1.2764 O   0  0  0  0  0  0  0  0  0  0  0  0
   -1.2654   -0.3544    0.2043 N   0  0  0  0  0  0  0  0  0  0  0  0
   -2.0395    0.2267   -0.1126 H   0  0  0  0  0  0  0  0  0  0  0  0
    0.0458    0.3197    0.2934 C   0  0  1  0  0  0  0  0  0  0  0  0
    0.8078   -0.3656   -0.0909 H   0  0  0  0  0  0  0  0  0  0  0  0
    0.0212    1.5566   -0.6316 C   0  0  1  0  0  0  0  0  0  0  0  0
    0.9932    2.0603   -0.5776 H   0  0  0  0  0  0  0  0  0  0  0  0
   -0.2402    1.1912   -2.0940 C   0  0  0  0  0  0  0  0  0  0  0  0
   -1.2337    0.7515   -2.2200 H   0  0  0  0  0  0  0  0  0  0  0  0
   -0.1800    2.0886   -2.7172 H   0  0  0  0  0  0  0  0  0  0  0  0
    0.5075    0.4748   -2.4470 H   0  0  0  0  0  0  0  0  0  0  0  0
   -1.0014    2.4560   -0.1966 O   0  0  0  0  0  0  0  0  0  0  0  0
   -0.7610    2.7862    0.6948 H   0  0  0  0  0  0  0  0  0  0  0  0
    0.4877    0.6944    1.7337 C   0  0  0  0  0  0  0  0  0  0  0  0
    0.6354    1.8695    2.0587 O   0  0  0  0  0  0  0  0  0  0  0  0
    0.6524   -0.2758    2.7029 N   0  0  0  0  0  0  0  0  0  0  0  0
    0.4000   -1.2306    2.4326 H   0  0  0  0  0  0  0  0  0  0  0  0
    0.9525    0.0058    4.1006 C   0  0  0  0  0  0  0  0  0  0  0  0
    0.1401    0.5788    4.5591 H   0  0  0  0  0  0  0  0  0  0  0  0
    1.0732   -0.9301    4.6546 H   0  0  0  0  0  0  0  0  0  0  0  0
    1.8818    0.5787    4.1862 H   0  0  0  0  0  0  0  0  0  0  0  0
  1  2  1  0  0  0  0
  2  3  1  0  0  0  0
  2  4  1  0  0  0  0
  2  5  1  0  0  0  0
  5  6  2  0  0  0  0
  5  7  1  0  0  0  0
  7  8  1  0  0  0  0
  7  9  1  0  0  0  0
  9 10  1  0  0  0  0
  9 11  1  0  0  0  0
  9 19  1  0  0  0  0
 11 12  1  0  0  0  0
 11 13  1  0  0  0  0
 11 17  1  0  0  0  0
 13 14  1  0  0  0  0
 13 15  1  0  0  0  0
 13 16  1  0  0  0  0
 17 18  1  0  0  0  0
 19 20  2  0  0  0  0
 19 21  1  0  0  0  0
 21 22  1  0  0  0  0
 21 23  1  0  0  0  0
 23 24  1  0  0  0  0
 23 25  1  0  0  0  0
 23 26  1  0  0  0  0
M  END
$$$$

  -OEChem-01062216093D

 26 25  0     1  0  0  0  0  0999 V2000
   -3.0602   -2.9999    1.3281 H   0  0  0  0  0  0  0  0  0  0  0  0
   -3.0056   -2.0068    0.8733 C   0  0  0  0  0  0  0  0  0  0  0  0
   -3.6039   -1.3129    1.4687 H   0  0  0  0  0  0  0  0  0  0  0  0
   -3.4196   -2.0598   -0.1367 H   0  0  0  0  0  0  0  0  0  0  0  0
   -1.5654   -1.5340    0.8198 C   0  0  0  0  0  0  0  0  0  0  0  0
   -0.6752   -2.2212    1.2981 O   0  0  0  0  0  0  0  0  0  0  0  0
   -1.2564   -0.3396    0.2037 N   0  0  0  0  0  0  0  0  0  0  0  0
   -2.0394    0.2372   -0.0986 H   0  0  0  0  0  0  0  0  0  0  0  0
    0.0547    0.3319    0.2752 C   0  0  1  0  0  0  0  0  0  0  0  0
    0.8153   -0.3536   -0.1116 H   0  0  0  0  0  0  0  0  0  0  0  0
    0.0276    1.5675   -0.6505 C   0  0  1  0  0  0  0  0  0  0  0  0
    1.0023    2.0659   -0.5994 H   0  0  0  0  0  0  0  0  0  0  0  0
   -0.2435    1.2014   -2.1107 C   0  0  0  0  0  0  0  0  0  0  0  0
   -1.2413    0.7698   -2.2303 H   0  0  0  0  0  0  0  0  0  0  0  0
   -0.1788    2.0969   -2.7360 H   0  0  0  0  0  0  0  0  0  0  0  0
    0.4962    0.4778   -2.4656 H   0  0  0  0  0  0  0  0  0  0  0  0
   -0.9860    2.4748   -0.2111 O   0  0  0  0  0  0  0  0  0  0  0  0
   -0.7661    2.7609    0.7022 H   0  0  0  0  0  0  0  0  0  0  0  0
    0.4894    0.7087    1.7142 C   0  0  0  0  0  0  0  0  0  0  0  0
    0.4338    1.8715    2.1068 O   0  0  0  0  0  0  0  0  0  0  0  0
    0.9404   -0.2673    2.5812 N   0  0  0  0  0  0  0  0  0  0  0  0
    0.7483   -1.2304    2.2918 H   0  0  0  0  0  0  0  0  0  0  0  0
    1.2515   -0.0138    3.9821 C   0  0  0  0  0  0  0  0  0  0  0  0
    0.3554    0.3110    4.5209 H   0  0  0  0  0  0  0  0  0  0  0  0
    1.6304   -0.9255    4.4541 H   0  0  0  0  0  0  0  0  0  0  0  0
    2.0182    0.7631    4.0708 H   0  0  0  0  0  0  0  0  0  0  0  0
  1  2  1  0  0  0  0
  2  3  1  0  0  0  0
  2  4  1  0  0  0  0
  2  5  1  0  0  0  0
  5  6  2  0  0  0  0
  5  7  1  0  0  0  0
  7  8  1  0  0  0  0
  7  9  1  0  0  0  0
  9 10  1  0  0  0  0
  9 11  1  0  0  0  0
  9 19  1  0  0  0  0
 11 12  1  0  0  0  0
 11 13  1  0  0  0  0
 11 17  1  0  0  0  0
 13 14  1  0  0  0  0
 13 15  1  0  0  0  0
 13 16  1  0  0  0  0
 17 18  1  0  0  0  0
 19 20  2  0  0  0  0
 19 21  1  0  0  0  0
 21 22  1  0  0  0  0
 21 23  1  0  0  0  0
 23 24  1  0  0  0  0
 23 25  1  0  0  0  0
 23 26  1  0  0  0  0
M  END
$$$$

  -OEChem-01062216093D

 26 25  0     1  0  0  0  0  0999 V2000
   -2.9952   -2.9776    1.4350 H   0  0  0  0  0  0  0  0  0  0  0  0
   -2.9641   -2.0118    0.9230 C   0  0  0  0  0  0  0  0  0  0  0  0
   -3.5688   -1.2959    1.4852 H   0  0  0  0  0  0  0  0  0  0  0  0
   -3.3877   -2.1303   -0.0774 H   0  0  0  0  0  0  0  0  0  0  0  0
   -1.5332   -1.5179    0.8251 C   0  0  0  0  0  0  0  0  0  0  0  0
   -0.6189   -2.1795    1.2956 O   0  0  0  0  0  0  0  0  0  0  0  0
   -1.2547   -0.3263    0.1890 N   0  0  0  0  0  0  0  0  0  0  0  0
   -2.0475    0.2512   -0.0844 H   0  0  0  0  0  0  0  0  0  0  0  0
    0.0553    0.3428    0.2546 C   0  0  1  0  0  0  0  0  0  0  0  0
    0.8172   -0.3406   -0.1336 H   0  0  0  0  0  0  0  0  0  0  0  0
    0.0305    1.5821   -0.6651 C   0  0  1  0  0  0  0  0  0  0  0  0
    1.0071    2.0757   -0.6089 H   0  0  0  0  0  0  0  0  0  0  0  0
   -0.2410    1.2251   -2.1268 C   0  0  0  0  0  0  0  0  0  0  0  0
   -1.2401    0.7966   -2.2478 H   0  0  0  0  0  0  0  0  0  0  0  0
   -0.1743    2.1240   -2.7471 H   0  0  0  0  0  0  0  0  0  0  0  0
    0.4968    0.5015   -2.4858 H   0  0  0  0  0  0  0  0  0  0  0  0
   -0.9775    2.4936   -0.2216 O   0  0  0  0  0  0  0  0  0  0  0  0
   -0.7935    2.7250    0.7160 H   0  0  0  0  0  0  0  0  0  0  0  0
    0.4721    0.7177    1.6969 C   0  0  0  0  0  0  0  0  0  0  0  0
    0.2148    1.8258    2.1615 O   0  0  0  0  0  0  0  0  0  0  0  0
    1.1929   -0.1848    2.4547 N   0  0  0  0  0  0  0  0  0  0  0  0
    1.1251   -1.1548    2.1396 H   0  0  0  0  0  0  0  0  0  0  0  0
    1.5371    0.0558    3.8502 C   0  0  0  0  0  0  0  0  0  0  0  0
    0.6312    0.1624    4.4560 H   0  0  0  0  0  0  0  0  0  0  0  0
    2.1219   -0.7815    4.2429 H   0  0  0  0  0  0  0  0  0  0  0  0
    2.1359    0.9676    3.9464 H   0  0  0  0  0  0  0  0  0  0  0  0
  1  2  1  0  0  0  0
  2  3  1  0  0  0  0
  2  4  1  0  0  0  0
  2  5  1  0  0  0  0
  5  6  2  0  0  0  0
  5  7  1  0  0  0  0
  7  8  1  0  0  0  0
  7  9  1  0  0  0  0
  9 10  1  0  0  0  0
  9 11  1  0  0  0  0
  9 19  1  0  0  0  0
 11 12  1  0  0  0  0
 11 13  1  0  0  0  0
 11 17  1  0  0  0  0
 13 14  1  0  0  0  0
 13 15  1  0  0  0  0
 13 16  1  0  0  0  0
 17 18  1  0  0  0  0
 19 20  2  0  0  0  0
 19 21  1  0  0  0  0
 21 22  1  0  0  0  0
 21 23  1  0  0  0  0
 23 24  1  0  0  0  0
 23 25  1  0  0  0  0
 23 26  1  0  0  0  0
M  END
$$$$

  -OEChem-01062216093D

 26 25  0     1  0  0  0  0  0999 V2000
   -2.8984   -3.0093    1.5215 H   0  0  0  0  0  0  0  0  0  0  0  0
   -2.9145   -2.0446    1.0068 C   0  0  0  0  0  0  0  0  0  0  0  0
   -3.4859   -1.3341    1.6093 H   0  0  0  0  0  0  0  0  0  0  0  0
   -3.4053   -2.1692    0.0387 H   0  0  0  0  0  0  0  0  0  0  0  0
   -1.5000   -1.5346    0.8086 C   0  0  0  0  0  0  0  0  0  0  0  0
   -0.5450   -2.2107    1.1650 O   0  0  0  0  0  0  0  0  0  0  0  0
   -1.2845   -0.3079    0.2170 N   0  0  0  0  0  0  0  0  0  0  0  0
   -2.0985    0.2947    0.1147 H   0  0  0  0  0  0  0  0  0  0  0  0
    0.0089    0.3835    0.3154 C   0  0  1  0  0  0  0  0  0  0  0  0
    0.7764   -0.2873   -0.0826 H   0  0  0  0  0  0  0  0  0  0  0  0
   -0.0008    1.6235   -0.6041 C   0  0  1  0  0  0  0  0  0  0  0  0
    0.9710    2.1191   -0.5032 H   0  0  0  0  0  0  0  0  0  0  0  0
   -0.2036    1.2587   -2.0757 C   0  0  0  0  0  0  0  0  0  0  0  0
   -1.1910    0.8156   -2.2353 H   0  0  0  0  0  0  0  0  0  0  0  0
   -0.1205    2.1528   -2.7004 H   0  0  0  0  0  0  0  0  0  0  0  0
    0.5565    0.5412   -2.3987 H   0  0  0  0  0  0  0  0  0  0  0  0
   -1.0252    2.5459   -0.2228 O   0  0  0  0  0  0  0  0  0  0  0  0
   -0.8657    3.4224   -0.6117 H   0  0  0  0  0  0  0  0  0  0  0  0
    0.4275    0.7008    1.7708 C   0  0  0  0  0  0  0  0  0  0  0  0
   -0.0631    1.6240    2.4096 O   0  0  0  0  0  0  0  0  0  0  0  0
    1.4180   -0.0652    2.3595 N   0  0  0  0  0  0  0  0  0  0  0  0
    1.5783   -0.9697    1.9191 H   0  0  0  0  0  0  0  0  0  0  0  0
    1.7954    0.0816    3.7598 C   0  0  0  0  0  0  0  0  0  0  0  0
    0.9446   -0.1436    4.4113 H   0  0  0  0  0  0  0  0  0  0  0  0
    2.6118   -0.6049    4.0036 H   0  0  0  0  0  0  0  0  0  0  0  0
    2.1341    1.1032    3.9618 H   0  0  0  0  0  0  0  0  0  0  0  0
  1  2  1  0  0  0  0
  2  3  1  0  0  0  0
  2  4  1  0  0  0  0
  2  5  1  0  0  0  0
  5  6  2  0  0  0  0
  5  7  1  0  0  0  0
  7  8  1  0  0  0  0
  7  9  1  0  0  0  0
  9 10  1  0  0  0  0
  9 11  1  0  0  0  0
  9 19  1  0  0  0  0
 11 12  1  0  0  0  0
 11 13  1  0  0  0  0
 11 17  1  0  0  0  0
 13 14  1  0  0  0  0
 13 15  1  0  0  0  0
 13 16  1  0  0  0  0
 17 18  1  0  0  0  0
 19 20  2  0  0  0  0
 19 21  1  0  0  0  0
 21 22  1  0  0  0  0
 21 23  1  0  0  0  0
 23 24  1  0  0  0  0
 23 25  1  0  0  0  0
 23 26  1  0  0  0  0
M  END
$$$$

  -OEChem-01062216093D

 26 25  0     1  0  0  0  0  0999 V2000
   -2.8672   -2.9940    1.5680 H   0  0  0  0  0  0  0  0  0  0  0  0
   -2.8946   -2.0214    1.0689 C   0  0  0  0  0  0  0  0  0  0  0  0
   -3.4171   -1.3100    1.7132 H   0  0  0  0  0  0  0  0  0  0  0  0
   -3.4420   -2.1221    0.1288 H   0  0  0  0  0  0  0  0  0  0  0  0
   -1.4841   -1.5330    0.7994 C   0  0  0  0  0  0  0  0  0  0  0  0
   -0.5236   -2.2231    1.1095 O   0  0  0  0  0  0  0  0  0  0  0  0
   -1.2806   -0.3123    0.1915 N   0  0  0  0  0  0  0  0  0  0  0  0
   -2.0946    0.2968    0.1414 H   0  0  0  0  0  0  0  0  0  0  0  0
    0.0124    0.3815    0.2841 C   0  0  1  0  0  0  0  0  0  0  0  0
    0.7788   -0.2927   -0.1101 H   0  0  0  0  0  0  0  0  0  0  0  0
    0.0136    1.6287   -0.6228 C   0  0  1  0  0  0  0  0  0  0  0  0
    0.9892    2.1167   -0.5214 H   0  0  0  0  0  0  0  0  0  0  0  0
   -0.1958    1.2730   -2.0952 C   0  0  0  0  0  0  0  0  0  0  0  0
   -1.1870    0.8375   -2.2539 H   0  0  0  0  0  0  0  0  0  0  0  0
   -0.1068    2.1690   -2.7163 H   0  0  0  0  0  0  0  0  0  0  0  0
    0.5583    0.5510   -2.4227 H   0  0  0  0  0  0  0  0  0  0  0  0
   -1.0035    2.5534   -0.2296 O   0  0  0  0  0  0  0  0  0  0  0  0
   -0.8900    3.4084   -0.6778 H   0  0  0  0  0  0  0  0  0  0  0  0
    0.4223    0.7105    1.7376 C   0  0  0  0  0  0  0  0  0  0  0  0
   -0.3007    1.3734    2.4729 O   0  0  0  0  0  0  0  0  0  0  0  0
    1.5996    0.1906    2.2475 N   0  0  0  0  0  0  0  0  0  0  0  0
    2.0266   -0.5556    1.7049 H   0  0  0  0  0  0  0  0  0  0  0  0
    1.9612    0.3024    3.6554 C   0  0  0  0  0  0  0  0  0  0  0  0
    1.2316   -0.2234    4.2803 H   0  0  0  0  0  0  0  0  0  0  0  0
    2.9481   -0.1376    3.8275 H   0  0  0  0  0  0  0  0  0  0  0  0
    1.9959    1.3534    3.9616 H   0  0  0  0  0  0  0  0  0  0  0  0
  1  2  1  0  0  0  0
  2  3  1  0  0  0  0
  2  4  1  0  0  0  0
  2  5  1  0  0  0  0
  5  6  2  0  0  0  0
  5  7  1  0  0  0  0
  7  8  1  0  0  0  0
  7  9  1  0  0  0  0
  9 10  1  0  0  0  0
  9 11  1  0  0  0  0
  9 19  1  0  0  0  0
 11 12  1  0  0  0  0
 11 13  1  0  0  0  0
 11 17  1  0  0  0  0
 13 14  1  0  0  0  0
 13 15  1  0  0  0  0
 13 16  1  0  0  0  0
 17 18  1  0  0  0  0
 19 20  2  0  0  0  0
 19 21  1  0  0  0  0
 21 22  1  0  0  0  0
 21 23  1  0  0  0  0
 23 24  1  0  0  0  0
 23 25  1  0  0  0  0
 23 26  1  0  0  0  0
M  END
$$$$

  -OEChem-01062216093D

 26 25  0     1  0  0  0  0  0999 V2000
   -2.8701   -2.9840    1.5829 H   0  0  0  0  0  0  0  0  0  0  0  0
   -2.8952   -2.0084    1.0897 C   0  0  0  0  0  0  0  0  0  0  0  0
   -3.3902   -1.2927    1.7508 H   0  0  0  0  0  0  0  0  0  0  0  0
   -3.4670   -2.0954    0.1629 H   0  0  0  0  0  0  0  0  0  0  0  0
   -1.4848   -1.5396    0.7875 C   0  0  0  0  0  0  0  0  0  0  0  0
   -0.5274   -2.2442    1.0736 O   0  0  0  0  0  0  0  0  0  0  0  0
   -1.2806   -0.3248    0.1675 N   0  0  0  0  0  0  0  0  0  0  0  0
   -2.0922    0.2884    0.1403 H   0  0  0  0  0  0  0  0  0  0  0  0
    0.0126    0.3691    0.2686 C   0  0  1  0  0  0  0  0  0  0  0  0
    0.7828   -0.3064   -0.1158 H   0  0  0  0  0  0  0  0  0  0  0  0
    0.0211    1.6232   -0.6268 C   0  0  1  0  0  0  0  0  0  0  0  0
    0.9974    2.1091   -0.5219 H   0  0  0  0  0  0  0  0  0  0  0  0
   -0.1907    1.2815   -2.1023 C   0  0  0  0  0  0  0  0  0  0  0  0
   -1.1835    0.8512   -2.2643 H   0  0  0  0  0  0  0  0  0  0  0  0
   -0.0989    2.1826   -2.7155 H   0  0  0  0  0  0  0  0  0  0  0  0
    0.5601    0.5595   -2.4372 H   0  0  0  0  0  0  0  0  0  0  0  0
   -0.9967    2.5421   -0.2236 O   0  0  0  0  0  0  0  0  0  0  0  0
   -0.9162    3.3842   -0.7028 H   0  0  0  0  0  0  0  0  0  0  0  0
    0.4058    0.7116    1.7230 C   0  0  0  0  0  0  0  0  0  0  0  0
   -0.4230    1.1375    2.5209 O   0  0  0  0  0  0  0  0  0  0  0  0
    1.6974    0.4713    2.1597 N   0  0  0  0  0  0  0  0  0  0  0  0
    2.2940   -0.0688    1.5401 H   0  0  0  0  0  0  0  0  0  0  0  0
    2.0935    0.6015    3.5565 C   0  0  0  0  0  0  0  0  0  0  0  0
    1.5431   -0.1126    4.1781 H   0  0  0  0  0  0  0  0  0  0  0  0
    3.1643    0.4042    3.6650 H   0  0  0  0  0  0  0  0  0  0  0  0
    1.8922    1.6146    3.9204 H   0  0  0  0  0  0  0  0  0  0  0  0
  1  2  1  0  0  0  0
  2  3  1  0  0  0  0
  2  4  1  0  0  0  0
  2  5  1  0  0  0  0
  5  6  2  0  0  0  0
  5  7  1  0  0  0  0
  7  8  1  0  0  0  0
  7  9  1  0  0  0  0
  9 10  1  0  0  0  0
  9 11  1  0  0  0  0
  9 19  1  0  0  0  0
 11 12  1  0  0  0  0
 11 13  1  0  0  0  0
 11 17  1  0  0  0  0
 13 14  1  0  0  0  0
 13 15  1  0  0  0  0
 13 16  1  0  0  0  0
 17 18  1  0  0  0  0
 19 20  2  0  0  0  0
 19 21  1  0  0  0  0
 21 22  1  0  0  0  0
 21 23  1  0  0  0  0
 23 24  1  0  0  0  0
 23 25  1  0  0  0  0
 23 26  1  0  0  0  0
M  END
$$$$

  -OEChem-01062216093D

 26 25  0     1  0  0  0  0  0999 V2000
   -2.8846   -2.9820    1.5743 H   0  0  0  0  0  0  0  0  0  0  0  0
   -2.9039   -2.0010    1.0920 C   0  0  0  0  0  0  0  0  0  0  0  0
   -3.3719   -1.2843    1.7716 H   0  0  0  0  0  0  0  0  0  0  0  0
   -3.4967   -2.0682    0.1769 H   0  0  0  0  0  0  0  0  0  0  0  0
   -1.4926   -1.5522    0.7650 C   0  0  0  0  0  0  0  0  0  0  0  0
   -0.5408   -2.2736    1.0261 O   0  0  0  0  0  0  0  0  0  0  0  0
   -1.2826   -0.3389    0.1434 N   0  0  0  0  0  0  0  0  0  0  0  0
   -2.0912    0.2784    0.1296 H   0  0  0  0  0  0  0  0  0  0  0  0
    0.0122    0.3510    0.2616 C   0  0  1  0  0  0  0  0  0  0  0  0
    0.7870   -0.3239   -0.1152 H   0  0  0  0  0  0  0  0  0  0  0  0
    0.0240    1.6133   -0.6218 C   0  0  1  0  0  0  0  0  0  0  0  0
    0.9994    2.1000   -0.5118 H   0  0  0  0  0  0  0  0  0  0  0  0
   -0.1862    1.2838   -2.1003 C   0  0  0  0  0  0  0  0  0  0  0  0
   -1.1788    0.8544   -2.2672 H   0  0  0  0  0  0  0  0  0  0  0  0
   -0.0941    2.1901   -2.7059 H   0  0  0  0  0  0  0  0  0  0  0  0
    0.5651    0.5645   -2.4401 H   0  0  0  0  0  0  0  0  0  0  0  0
   -0.9976    2.5252   -0.2110 O   0  0  0  0  0  0  0  0  0  0  0  0
   -0.9320    3.3642   -0.6983 H   0  0  0  0  0  0  0  0  0  0  0  0
    0.3922    0.6981    1.7193 C   0  0  0  0  0  0  0  0  0  0  0  0
   -0.4695    0.9142    2.5660 O   0  0  0  0  0  0  0  0  0  0  0  0
    1.7255    0.7532    2.0895 N   0  0  0  0  0  0  0  0  0  0  0  0
    2.4074    0.4251    1.4126 H   0  0  0  0  0  0  0  0  0  0  0  0
    2.1557    0.9545    3.4677 C   0  0  0  0  0  0  0  0  0  0  0  0
    1.8069    0.1321    4.1012 H   0  0  0  0  0  0  0  0  0  0  0  0
    3.2478    0.9945    3.5204 H   0  0  0  0  0  0  0  0  0  0  0  0
    1.7578    1.8960    3.8608 H   0  0  0  0  0  0  0  0  0  0  0  0
  1  2  1  0  0  0  0
  2  3  1  0  0  0  0
  2  4  1  0  0  0  0
  2  5  1  0  0  0  0
  5  6  2  0  0  0  0
  5  7  1  0  0  0  0
  7  8  1  0  0  0  0
  7  9  1  0  0  0  0
  9 10  1  0  0  0  0
  9 11  1  0  0  0  0
  9 19  1  0  0  0  0
 11 12  1  0  0  0  0
 11 13  1  0  0  0  0
 11 17  1  0  0  0  0
 13 14  1  0  0  0  0
 13 15  1  0  0  0  0
 13 16  1  0  0  0  0
 17 18  1  0  0  0  0
 19 20  2  0  0  0  0
 19 21  1  0  0  0  0
 21 22  1  0  0  0  0
 21 23  1  0  0  0  0
 23 24  1  0  0  0  0
 23 25  1  0  0  0  0
 23 26  1  0  0  0  0
M  END
$$$$

  -OEChem-01062216093D

 26 25  0     1  0  0  0  0  0999 V2000
   -2.9012   -2.9761    1.5722 H   0  0  0  0  0  0  0  0  0  0  0  0
   -2.9145   -1.9946    1.0901 C   0  0  0  0  0  0  0  0  0  0  0  0
   -3.3623   -1.2723    1.7772 H   0  0  0  0  0  0  0  0  0  0  0  0
   -3.5211   -2.0533    0.1834 H   0  0  0  0  0  0  0  0  0  0  0  0
   -1.5025   -1.5640    0.7430 C   0  0  0  0  0  0  0  0  0  0  0  0
   -0.5591   -2.3074    0.9702 O   0  0  0  0  0  0  0  0  0  0  0  0
   -1.2838   -0.3490    0.1269 N   0  0  0  0  0  0  0  0  0  0  0  0
   -2.0886    0.2729    0.1232 H   0  0  0  0  0  0  0  0  0  0  0  0
    0.0137    0.3348    0.2621 C   0  0  1  0  0  0  0  0  0  0  0  0
    0.7917   -0.3378   -0.1122 H   0  0  0  0  0  0  0  0  0  0  0  0
    0.0244    1.6030   -0.6137 C   0  0  1  0  0  0  0  0  0  0  0  0
    0.9970    2.0944   -0.5013 H   0  0  0  0  0  0  0  0  0  0  0  0
   -0.1814    1.2831   -2.0952 C   0  0  0  0  0  0  0  0  0  0  0  0
   -1.1734    0.8549   -2.2682 H   0  0  0  0  0  0  0  0  0  0  0  0
   -0.0872    2.1927   -2.6955 H   0  0  0  0  0  0  0  0  0  0  0  0
    0.5711    0.5659   -2.4368 H   0  0  0  0  0  0  0  0  0  0  0  0
   -1.0028    2.5052   -0.1952 O   0  0  0  0  0  0  0  0  0  0  0  0
   -0.9567    3.3397   -0.6926 H   0  0  0  0  0  0  0  0  0  0  0  0
    0.3892    0.6803    1.7229 C   0  0  0  0  0  0  0  0  0  0  0  0
   -0.4567    0.6976    2.6123 O   0  0  0  0  0  0  0  0  0  0  0  0
    1.6919    1.0325    2.0366 N   0  0  0  0  0  0  0  0  0  0  0  0
    2.3927    0.9278    1.3100 H   0  0  0  0  0  0  0  0  0  0  0  0
    2.1321    1.3187    3.3965 C   0  0  0  0  0  0  0  0  0  0  0  0
    1.9861    0.4431    4.0379 H   0  0  0  0  0  0  0  0  0  0  0  0
    3.1945    1.5800    3.4029 H   0  0  0  0  0  0  0  0  0  0  0  0
    1.5677    2.1598    3.8128 H   0  0  0  0  0  0  0  0  0  0  0  0
  1  2  1  0  0  0  0
  2  3  1  0  0  0  0
  2  4  1  0  0  0  0
  2  5  1  0  0  0  0
  5  6  2  0  0  0  0
  5  7  1  0  0  0  0
  7  8  1  0  0  0  0
  7  9  1  0  0  0  0
  9 10  1  0  0  0  0
  9 11  1  0  0  0  0
  9 19  1  0  0  0  0
 11 12  1  0  0  0  0
 11 13  1  0  0  0  0
 11 17  1  0  0  0  0
 13 14  1  0  0  0  0
 13 15  1  0  0  0  0
 13 16  1  0  0  0  0
 17 18  1  0  0  0  0
 19 20  2  0  0  0  0
 19 21  1  0  0  0  0
 21 22  1  0  0  0  0
 21 23  1  0  0  0  0
 23 24  1  0  0  0  0
 23 25  1  0  0  0  0
 23 26  1  0  0  0  0
M  END
$$$$

  -OEChem-01062216093D

 26 25  0     1  0  0  0  0  0999 V2000
   -2.9298   -3.0103    1.4613 H   0  0  0  0  0  0  0  0  0  0  0  0
   -2.9183   -1.9804    1.0944 C   0  0  0  0  0  0  0  0  0  0  0  0
   -3.2478   -1.3178    1.8985 H   0  0  0  0  0  0  0  0  0  0  0  0
   -3.6091   -1.8966    0.2525 H   0  0  0  0  0  0  0  0  0  0  0  0
   -1.5163   -1.5989    0.6597 C   0  0  0  0  0  0  0  0  0  0  0  0
   -0.6088   -2.4159    0.7142 O   0  0  0  0  0  0  0  0  0  0  0  0
   -1.2758   -0.3634    0.0931 N   0  0  0  0  0  0  0  0  0  0  0  0
   -2.0709    0.2675    0.1553 H   0  0  0  0  0  0  0  0  0  0  0  0
    0.0221    0.3138    0.2818 C   0  0  1  0  0  0  0  0  0  0  0  0
    0.7584   -0.2208   -0.3258 H   0  0  0  0  0  0  0  0  0  0  0  0
   -0.0959    1.7526   -0.2646 C   0  0  1  0  0  0  0  0  0  0  0  0
    0.8652    2.2605   -0.1330 H   0  0  0  0  0  0  0  0  0  0  0  0
   -0.4433    1.7818   -1.7545 C   0  0  0  0  0  0  0  0  0  0  0  0
   -1.4354    1.3570   -1.9354 H   0  0  0  0  0  0  0  0  0  0  0  0
   -0.4355    2.8115   -2.1240 H   0  0  0  0  0  0  0  0  0  0  0  0
    0.2904    1.2053   -2.3263 H   0  0  0  0  0  0  0  0  0  0  0  0
   -1.1037    2.4706    0.4520 O   0  0  0  0  0  0  0  0  0  0  0  0
   -1.1281    3.4036    0.1775 H   0  0  0  0  0  0  0  0  0  0  0  0
    0.5903    0.3204    1.7280 C   0  0  0  0  0  0  0  0  0  0  0  0
   -0.0844   -0.0307    2.6909 O   0  0  0  0  0  0  0  0  0  0  0  0
    1.8070    0.9322    1.9889 N   0  0  0  0  0  0  0  0  0  0  0  0
    2.3709    1.2162    1.1946 H   0  0  0  0  0  0  0  0  0  0  0  0
    2.3775    1.0407    3.3267 C   0  0  0  0  0  0  0  0  0  0  0  0
    2.5251    0.0463    3.7612 H   0  0  0  0  0  0  0  0  0  0  0  0
    3.3464    1.5474    3.2853 H   0  0  0  0  0  0  0  0  0  0  0  0
    1.7146    1.6170    3.9809 H   0  0  0  0  0  0  0  0  0  0  0  0
  1  2  1  0  0  0  0
  2  3  1  0  0  0  0
  2  4  1  0  0  0  0
  2  5  1  0  0  0  0
  5  6  2  0  0  0  0
  5  7  1  0  0  0  0
  7  8  1  0  0  0  0
  7  9  1  0  0  0  0
  9 10  1  0  0  0  0
  9 11  1  0  0  0  0
  9 19  1  0  0  0  0
 11 12  1  0  0  0  0
 11 13  1  0  0  0  0
 11 17  1  0  0  0  0
 13 14  1  0  0  0  0
 13 15  1  0  0  0  0
 13 16  1  0  0  0  0
 17 18  1  0  0  0  0
 19 20  2  0  0  0  0
 19 21  1  0  0  0  0
 21 22  1  0  0  0  0
 21 23  1  0  0  0  0
 23 24  1  0  0  0  0
 23 25  1  0  0  0  0
 23 26  1  0  0  0  0
M  END
$$$$

  -OEChem-01062216093D

 26 25  0     1  0  0  0  0  0999 V2000
   -2.9470   -2.9973    1.4522 H   0  0  0  0  0  0  0  0  0  0  0  0
   -2.9203   -1.9622    1.1007 C   0  0  0  0  0  0  0  0  0  0  0  0
   -3.2215   -1.3055    1.9206 H   0  0  0  0  0  0  0  0  0  0  0  0
   -3.6236   -1.8509    0.2723 H   0  0  0  0  0  0  0  0  0  0  0  0
   -1.5186   -1.6035    0.6460 C   0  0  0  0  0  0  0  0  0  0  0  0
   -0.6367   -2.4492    0.6358 O   0  0  0  0  0  0  0  0  0  0  0  0
   -1.2631   -0.3634    0.0966 N   0  0  0  0  0  0  0  0  0  0  0  0
   -2.0533    0.2724    0.1669 H   0  0  0  0  0  0  0  0  0  0  0  0
    0.0380    0.3102    0.2868 C   0  0  1  0  0  0  0  0  0  0  0  0
    0.7720   -0.2227   -0.3250 H   0  0  0  0  0  0  0  0  0  0  0  0
   -0.0928    1.7469   -0.2688 C   0  0  1  0  0  0  0  0  0  0  0  0
    0.8640    2.2661   -0.1545 H   0  0  0  0  0  0  0  0  0  0  0  0
   -0.4534    1.7636   -1.7562 C   0  0  0  0  0  0  0  0  0  0  0  0
   -1.4485    1.3413   -1.9254 H   0  0  0  0  0  0  0  0  0  0  0  0
   -0.4452    2.7896   -2.1353 H   0  0  0  0  0  0  0  0  0  0  0  0
    0.2728    1.1794   -2.3293 H   0  0  0  0  0  0  0  0  0  0  0  0
   -1.1051    2.4586    0.4483 O   0  0  0  0  0  0  0  0  0  0  0  0
   -1.1603    3.3825    0.1476 H   0  0  0  0  0  0  0  0  0  0  0  0
    0.6252    0.3113    1.7304 C   0  0  0  0  0  0  0  0  0  0  0  0
    0.0738   -0.2637    2.6625 O   0  0  0  0  0  0  0  0  0  0  0  0
    1.6671    1.1664    2.0595 N   0  0  0  0  0  0  0  0  0  0  0  0
    2.0957    1.6972    1.3091 H   0  0  0  0  0  0  0  0  0  0  0  0
    2.1788    1.3328    3.4153 C   0  0  0  0  0  0  0  0  0  0  0  0
    2.5304    0.3749    3.8128 H   0  0  0  0  0  0  0  0  0  0  0  0
    3.0167    2.0364    3.4194 H   0  0  0  0  0  0  0  0  0  0  0  0
    1.3964    1.7229    4.0748 H   0  0  0  0  0  0  0  0  0  0  0  0
  1  2  1  0  0  0  0
  2  3  1  0  0  0  0
  2  4  1  0  0  0  0
  2  5  1  0  0  0  0
  5  6  2  0  0  0  0
  5  7  1  0  0  0  0
  7  8  1  0  0  0  0
  7  9  1  0  0  0  0
  9 10  1  0  0  0  0
  9 11  1  0  0  0  0
  9 19  1  0  0  0  0
 11 12  1  0  0  0  0
 11 13  1  0  0  0  0
 11 17  1  0  0  0  0
 13 14  1  0  0  0  0
 13 15  1  0  0  0  0
 13 16  1  0  0  0  0
 17 18  1  0  0  0  0
 19 20  2  0  0  0  0
 19 21  1  0  0  0  0
 21 22  1  0  0  0  0
 21 23  1  0  0  0  0
 23 24  1  0  0  0  0
 23 25  1  0  0  0  0
 23 26  1  0  0  0  0
M  END
$$$$

  -OEChem-01062216093D

 26 25  0     1  0  0  0  0  0999 V2000
   -2.9288   -2.9661    1.5131 H   0  0  0  0  0  0  0  0  0  0  0  0
   -2.9050   -1.9384    1.1402 C   0  0  0  0  0  0  0  0  0  0  0  0
   -3.1774   -1.2639    1.9556 H   0  0  0  0  0  0  0  0  0  0  0  0
   -3.6311   -1.8376    0.3302 H   0  0  0  0  0  0  0  0  0  0  0  0
   -1.5144   -1.5998    0.6384 C   0  0  0  0  0  0  0  0  0  0  0  0
   -0.6617   -2.4698    0.5528 O   0  0  0  0  0  0  0  0  0  0  0  0
   -1.2554   -0.3548    0.1025 N   0  0  0  0  0  0  0  0  0  0  0  0
   -2.0468    0.2784    0.1785 H   0  0  0  0  0  0  0  0  0  0  0  0
    0.0428    0.3275    0.2896 C   0  0  1  0  0  0  0  0  0  0  0  0
    0.7767   -0.2090   -0.3197 H   0  0  0  0  0  0  0  0  0  0  0  0
   -0.0864    1.7552   -0.2898 C   0  0  1  0  0  0  0  0  0  0  0  0
    0.8707    2.2762   -0.1864 H   0  0  0  0  0  0  0  0  0  0  0  0
   -0.4431    1.7463   -1.7782 C   0  0  0  0  0  0  0  0  0  0  0  0
   -1.4346    1.3142   -1.9449 H   0  0  0  0  0  0  0  0  0  0  0  0
   -0.4404    2.7667   -2.1723 H   0  0  0  0  0  0  0  0  0  0  0  0
    0.2901    1.1596   -2.3401 H   0  0  0  0  0  0  0  0  0  0  0  0
   -1.1042    2.4772    0.4093 O   0  0  0  0  0  0  0  0  0  0  0  0
   -1.2036    3.3752    0.0466 H   0  0  0  0  0  0  0  0  0  0  0  0
    0.6441    0.3275    1.7304 C   0  0  0  0  0  0  0  0  0  0  0  0
    0.3238   -0.4930    2.5811 O   0  0  0  0  0  0  0  0  0  0  0  0
    1.4499    1.3718    2.1616 N   0  0  0  0  0  0  0  0  0  0  0  0
    1.5918    2.1434    1.5192 H   0  0  0  0  0  0  0  0  0  0  0  0
    1.9114    1.5207    3.5375 C   0  0  0  0  0  0  0  0  0  0  0  0
    2.4762    0.6362    3.8506 H   0  0  0  0  0  0  0  0  0  0  0  0
    2.5648    2.3940    3.6244 H   0  0  0  0  0  0  0  0  0  0  0  0
    1.0610    1.6540    4.2144 H   0  0  0  0  0  0  0  0  0  0  0  0
  1  2  1  0  0  0  0
  2  3  1  0  0  0  0
  2  4  1  0  0  0  0
  2  5  1  0  0  0  0
  5  6  2  0  0  0  0
  5  7  1  0  0  0  0
  7  8  1  0  0  0  0
  7  9  1  0  0  0  0
  9 10  1  0  0  0  0
  9 11  1  0  0  0  0
  9 19  1  0  0  0  0
 11 12  1  0  0  0  0
 11 13  1  0  0  0  0
 11 17  1  0  0  0  0
 13 14  1  0  0  0  0
 13 15  1  0  0  0  0
 13 16  1  0  0  0  0
 17 18  1  0  0  0  0
 19 20  2  0  0  0  0
 19 21  1  0  0  0  0
 21 22  1  0  0  0  0
 21 23  1  0  0  0  0
 23 24  1  0  0  0  0
 23 25  1  0  0  0  0
 23 26  1  0  0  0  0
M  END
$$$$

  -OEChem-01062216093D

 26 25  0     1  0  0  0  0  0999 V2000
   -2.9210   -2.9429    1.5552 H   0  0  0  0  0  0  0  0  0  0  0  0
   -2.8995   -1.9226    1.1624 C   0  0  0  0  0  0  0  0  0  0  0  0
   -3.1758   -1.2335    1.9640 H   0  0  0  0  0  0  0  0  0  0  0  0
   -3.6247   -1.8401    0.3496 H   0  0  0  0  0  0  0  0  0  0  0  0
   -1.5093   -1.5911    0.6548 C   0  0  0  0  0  0  0  0  0  0  0  0
   -0.6725   -2.4721    0.5486 O   0  0  0  0  0  0  0  0  0  0  0  0
   -1.2507   -0.3477    0.1152 N   0  0  0  0  0  0  0  0  0  0  0  0
   -2.0488    0.2788    0.1693 H   0  0  0  0  0  0  0  0  0  0  0  0
    0.0401    0.3502    0.2969 C   0  0  1  0  0  0  0  0  0  0  0  0
    0.7803   -0.1925   -0.2993 H   0  0  0  0  0  0  0  0  0  0  0  0
   -0.0751    1.7696   -0.3041 C   0  0  1  0  0  0  0  0  0  0  0  0
    0.8863    2.2843   -0.1990 H   0  0  0  0  0  0  0  0  0  0  0  0
   -0.4200    1.7345   -1.7946 C   0  0  0  0  0  0  0  0  0  0  0  0
   -1.4140    1.3078   -1.9598 H   0  0  0  0  0  0  0  0  0  0  0  0
   -0.4046    2.7463   -2.2101 H   0  0  0  0  0  0  0  0  0  0  0  0
    0.3114    1.1288   -2.3385 H   0  0  0  0  0  0  0  0  0  0  0  0
   -1.0963    2.5101    0.3713 O   0  0  0  0  0  0  0  0  0  0  0  0
   -1.2203    3.3826   -0.0438 H   0  0  0  0  0  0  0  0  0  0  0  0
    0.6310    0.3602    1.7400 C   0  0  0  0  0  0  0  0  0  0  0  0
    0.6392   -0.6296    2.4581 O   0  0  0  0  0  0  0  0  0  0  0  0
    1.1508    1.5256    2.2829 N   0  0  0  0  0  0  0  0  0  0  0  0
    0.9318    2.3832    1.7845 H   0  0  0  0  0  0  0  0  0  0  0  0
    1.6117    1.6297    3.6632 C   0  0  0  0  0  0  0  0  0  0  0  0
    2.4017    0.8974    3.8607 H   0  0  0  0  0  0  0  0  0  0  0  0
    2.0157    2.6286    3.8521 H   0  0  0  0  0  0  0  0  0  0  0  0
    0.7842    1.4518    4.3578 H   0  0  0  0  0  0  0  0  0  0  0  0
  1  2  1  0  0  0  0
  2  3  1  0  0  0  0
  2  4  1  0  0  0  0
  2  5  1  0  0  0  0
  5  6  2  0  0  0  0
  5  7  1  0  0  0  0
  7  8  1  0  0  0  0
  7  9  1  0  0  0  0
  9 10  1  0  0  0  0
  9 11  1  0  0  0  0
  9 19  1  0  0  0  0
 11 12  1  0  0  0  0
 11 13  1  0  0  0  0
 11 17  1  0  0  0  0
 13 14  1  0  0  0  0
 13 15  1  0  0  0  0
 13 16  1  0  0  0  0
 17 18  1  0  0  0  0
 19 20  2  0  0  0  0
 19 21  1  0  0  0  0
 21 22  1  0  0  0  0
 21 23  1  0  0  0  0
 23 24  1  0  0  0  0
 23 25  1  0  0  0  0
 23 26  1  0  0  0  0
M  END
$$$$

  -OEChem-01062216093D

 26 25  0     1  0  0  0  0  0999 V2000
   -2.9821   -2.9431    1.5168 H   0  0  0  0  0  0  0  0  0  0  0  0
   -2.9476   -1.9348    1.0949 C   0  0  0  0  0  0  0  0  0  0  0  0
   -3.3109   -1.2289    1.8454 H   0  0  0  0  0  0  0  0  0  0  0  0
   -3.5989   -1.8961    0.2188 H   0  0  0  0  0  0  0  0  0  0  0  0
   -1.5251   -1.5853    0.7003 C   0  0  0  0  0  0  0  0  0  0  0  0
   -0.6681   -2.4505    0.7098 O   0  0  0  0  0  0  0  0  0  0  0  0
   -1.2529   -0.3476    0.1538 N   0  0  0  0  0  0  0  0  0  0  0  0
   -2.0579    0.2724    0.1412 H   0  0  0  0  0  0  0  0  0  0  0  0
    0.0330    0.3605    0.3275 C   0  0  1  0  0  0  0  0  0  0  0  0
    0.7777   -0.1863   -0.2599 H   0  0  0  0  0  0  0  0  0  0  0  0
   -0.0779    1.7741   -0.2868 C   0  0  1  0  0  0  0  0  0  0  0  0
    0.8858    2.2837   -0.1740 H   0  0  0  0  0  0  0  0  0  0  0  0
   -0.4101    1.7243   -1.7796 C   0  0  0  0  0  0  0  0  0  0  0  0
   -1.4020    1.2940   -1.9484 H   0  0  0  0  0  0  0  0  0  0  0  0
   -0.3927    2.7321   -2.2049 H   0  0  0  0  0  0  0  0  0  0  0  0
    0.3270    1.1149   -2.3116 H   0  0  0  0  0  0  0  0  0  0  0  0
   -1.0997    2.5317    0.3717 O   0  0  0  0  0  0  0  0  0  0  0  0
   -1.2149    3.3966   -0.0627 H   0  0  0  0  0  0  0  0  0  0  0  0
    0.6127    0.3848    1.7704 C   0  0  0  0  0  0  0  0  0  0  0  0
    0.9868   -0.6293    2.3400 O   0  0  0  0  0  0  0  0  0  0  0  0
    0.8305    1.5901    2.4176 N   0  0  0  0  0  0  0  0  0  0  0  0
    0.3598    2.3963    2.0115 H   0  0  0  0  0  0  0  0  0  0  0  0
    1.3330    1.6893    3.7831 C   0  0  0  0  0  0  0  0  0  0  0  0
    2.3104    1.2025    3.8686 H   0  0  0  0  0  0  0  0  0  0  0  0
    1.4466    2.7394    4.0683 H   0  0  0  0  0  0  0  0  0  0  0  0
    0.6392    1.2114    4.4826 H   0  0  0  0  0  0  0  0  0  0  0  0
  1  2  1  0  0  0  0
  2  3  1  0  0  0  0
  2  4  1  0  0  0  0
  2  5  1  0  0  0  0
  5  6  2  0  0  0  0
  5  7  1  0  0  0  0
  7  8  1  0  0  0  0
  7  9  1  0  0  0  0
  9 10  1  0  0  0  0
  9 11  1  0  0  0  0
  9 19  1  0  0  0  0
 11 12  1  0  0  0  0
 11 13  1  0  0  0  0
 11 17  1  0  0  0  0
 13 14  1  0  0  0  0
 13 15  1  0  0  0  0
 13 16  1  0  0  0  0
 17 18  1  0  0  0  0
 19 20  2  0  0  0  0
 19 21  1  0  0  0  0
 21 22  1  0  0  0  0
 21 23  1  0  0  0  0
 23 24  1  0  0  0  0
 23 25  1  0  0  0  0
 23 26  1  0  0  0  0
M  END
$$$$

  -OEChem-01062216093D

 26 25  0     1  0  0  0  0  0999 V2000
   -3.0921   -2.9523    1.4353 H   0  0  0  0  0  0  0  0  0  0  0  0
   -3.0274   -1.9779    0.9428 C   0  0  0  0  0  0  0  0  0  0  0  0
   -3.5409   -1.2382    1.5612 H   0  0  0  0  0  0  0  0  0  0  0  0
   -3.5231   -2.0402   -0.0288 H   0  0  0  0  0  0  0  0  0  0  0  0
   -1.5739   -1.5827    0.7597 C   0  0  0  0  0  0  0  0  0  0  0  0
   -0.6989   -2.3897    1.0093 O   0  0  0  0  0  0  0  0  0  0  0  0
   -1.2725   -0.3519    0.2131 N   0  0  0  0  0  0  0  0  0  0  0  0
   -2.0758    0.2563    0.0832 H   0  0  0  0  0  0  0  0  0  0  0  0
    0.0143    0.3553    0.3782 C   0  0  1  0  0  0  0  0  0  0  0  0
    0.7556   -0.1962   -0.2096 H   0  0  0  0  0  0  0  0  0  0  0  0
   -0.0971    1.7658   -0.2429 C   0  0  1  0  0  0  0  0  0  0  0  0
    0.8679    2.2719   -0.1238 H   0  0  0  0  0  0  0  0  0  0  0  0
   -0.4210    1.7095   -1.7373 C   0  0  0  0  0  0  0  0  0  0  0  0
   -1.4124    1.2799   -1.9095 H   0  0  0  0  0  0  0  0  0  0  0  0
   -0.3990    2.7153   -2.1671 H   0  0  0  0  0  0  0  0  0  0  0  0
    0.3185    1.0965   -2.2620 H   0  0  0  0  0  0  0  0  0  0  0  0
   -1.1159    2.5360    0.4089 O   0  0  0  0  0  0  0  0  0  0  0  0
   -1.1976    3.4119   -0.0110 H   0  0  0  0  0  0  0  0  0  0  0  0
    0.5971    0.3906    1.8158 C   0  0  0  0  0  0  0  0  0  0  0  0
    1.3131   -0.5085    2.2324 O   0  0  0  0  0  0  0  0  0  0  0  0
    0.5310    1.5513    2.5674 N   0  0  0  0  0  0  0  0  0  0  0  0
   -0.0961    2.2736    2.2158 H   0  0  0  0  0  0  0  0  0  0  0  0
    1.1102    1.6933    3.8975 C   0  0  0  0  0  0  0  0  0  0  0  0
    2.1980    1.5747    3.8559 H   0  0  0  0  0  0  0  0  0  0  0  0
    0.8862    2.6844    4.3032 H   0  0  0  0  0  0  0  0  0  0  0  0
    0.6992    0.9389    4.5766 H   0  0  0  0  0  0  0  0  0  0  0  0
  1  2  1  0  0  0  0
  2  3  1  0  0  0  0
  2  4  1  0  0  0  0
  2  5  1  0  0  0  0
  5  6  2  0  0  0  0
  5  7  1  0  0  0  0
  7  8  1  0  0  0  0
  7  9  1  0  0  0  0
  9 10  1  0  0  0  0
  9 11  1  0  0  0  0
  9 19  1  0  0  0  0
 11 12  1  0  0  0  0
 11 13  1  0  0  0  0
 11 17  1  0  0  0  0
 13 14  1  0  0  0  0
 13 15  1  0  0  0  0
 13 16  1  0  0  0  0
 17 18  1  0  0  0  0
 19 20  2  0  0  0  0
 19 21  1  0  0  0  0
 21 22  1  0  0  0  0
 21 23  1  0  0  0  0
 23 24  1  0  0  0  0
 23 25  1  0  0  0  0
 23 26  1  0  0  0  0
M  END
$$$$

  -OEChem-01062216093D

 26 25  0     1  0  0  0  0  0999 V2000
   -3.1281   -2.9942    1.3563 H   0  0  0  0  0  0  0  0  0  0  0  0
   -3.0537   -2.0223    0.8600 C   0  0  0  0  0  0  0  0  0  0  0  0
   -3.6370   -1.2935    1.4277 H   0  0  0  0  0  0  0  0  0  0  0  0
   -3.4684   -2.1086   -0.1471 H   0  0  0  0  0  0  0  0  0  0  0  0
   -1.6028   -1.5839    0.7876 C   0  0  0  0  0  0  0  0  0  0  0  0
   -0.7294   -2.3388    1.1709 O   0  0  0  0  0  0  0  0  0  0  0  0
   -1.2934   -0.3568    0.2370 N   0  0  0  0  0  0  0  0  0  0  0  0
   -2.0914    0.2391    0.0370 H   0  0  0  0  0  0  0  0  0  0  0  0
   -0.0026    0.3432    0.3989 C   0  0  1  0  0  0  0  0  0  0  0  0
    0.7339   -0.2108   -0.1928 H   0  0  0  0  0  0  0  0  0  0  0  0
   -0.1042    1.7583   -0.2118 C   0  0  1  0  0  0  0  0  0  0  0  0
    0.8658    2.2530   -0.0869 H   0  0  0  0  0  0  0  0  0  0  0  0
   -0.4288    1.7158   -1.7063 C   0  0  0  0  0  0  0  0  0  0  0  0
   -1.4245    1.2972   -1.8805 H   0  0  0  0  0  0  0  0  0  0  0  0
   -0.3977    2.7244   -2.1290 H   0  0  0  0  0  0  0  0  0  0  0  0
    0.3046    1.0998   -2.2359 H   0  0  0  0  0  0  0  0  0  0  0  0
   -1.1135    2.5374    0.4451 O   0  0  0  0  0  0  0  0  0  0  0  0
   -1.1553    3.4303    0.0564 H   0  0  0  0  0  0  0  0  0  0  0  0
    0.5758    0.3750    1.8350 C   0  0  0  0  0  0  0  0  0  0  0  0
    1.5014   -0.3607    2.1500 O   0  0  0  0  0  0  0  0  0  0  0  0
    0.2514    1.4095    2.6941 N   0  0  0  0  0  0  0  0  0  0  0  0
   -0.4555    2.0644    2.3621 H   0  0  0  0  0  0  0  0  0  0  0  0
    0.8507    1.5990    4.0085 C   0  0  0  0  0  0  0  0  0  0  0  0
    1.9291    1.7656    3.9173 H   0  0  0  0  0  0  0  0  0  0  0  0
    0.4065    2.4671    4.5048 H   0  0  0  0  0  0  0  0  0  0  0  0
    0.6817    0.7174    4.6359 H   0  0  0  0  0  0  0  0  0  0  0  0
  1  2  1  0  0  0  0
  2  3  1  0  0  0  0
  2  4  1  0  0  0  0
  2  5  1  0  0  0  0
  5  6  2  0  0  0  0
  5  7  1  0  0  0  0
  7  8  1  0  0  0  0
  7  9  1  0  0  0  0
  9 10  1  0  0  0  0
  9 11  1  0  0  0  0
  9 19  1  0  0  0  0
 11 12  1  0  0  0  0
 11 13  1  0  0  0  0
 11 17  1  0  0  0  0
 13 14  1  0  0  0  0
 13 15  1  0  0  0  0
 13 16  1  0  0  0  0
 17 18  1  0  0  0  0
 19 20  2  0  0  0  0
 19 21  1  0  0  0  0
 21 22  1  0  0  0  0
 21 23  1  0  0  0  0
 23 24  1  0  0  0  0
 23 25  1  0  0  0  0
 23 26  1  0  0  0  0
M  END
$$$$

  -OEChem-01062216093D

 26 25  0     1  0  0  0  0  0999 V2000
   -3.1411   -3.0285    1.3051 H   0  0  0  0  0  0  0  0  0  0  0  0
   -3.0671   -2.0489    0.8242 C   0  0  0  0  0  0  0  0  0  0  0  0
   -3.6700   -1.3343    1.3894 H   0  0  0  0  0  0  0  0  0  0  0  0
   -3.4602   -2.1259   -0.1922 H   0  0  0  0  0  0  0  0  0  0  0  0
   -1.6198   -1.5944    0.7881 C   0  0  0  0  0  0  0  0  0  0  0  0
   -0.7490   -2.3266    1.2205 O   0  0  0  0  0  0  0  0  0  0  0  0
   -1.3059   -0.3697    0.2347 N   0  0  0  0  0  0  0  0  0  0  0  0
   -2.0980    0.2238    0.0060 H   0  0  0  0  0  0  0  0  0  0  0  0
   -0.0100    0.3190    0.4011 C   0  0  1  0  0  0  0  0  0  0  0  0
    0.7240   -0.2343   -0.1943 H   0  0  0  0  0  0  0  0  0  0  0  0
   -0.1005    1.7432   -0.1847 C   0  0  1  0  0  0  0  0  0  0  0  0
    0.8738    2.2268   -0.0505 H   0  0  0  0  0  0  0  0  0  0  0  0
   -0.4268    1.7314   -1.6791 C   0  0  0  0  0  0  0  0  0  0  0  0
   -1.4285    1.3302   -1.8601 H   0  0  0  0  0  0  0  0  0  0  0  0
   -0.3814    2.7469   -2.0836 H   0  0  0  0  0  0  0  0  0  0  0  0
    0.2977    1.1148   -2.2202 H   0  0  0  0  0  0  0  0  0  0  0  0
   -1.1009    2.5176    0.4909 O   0  0  0  0  0  0  0  0  0  0  0  0
   -1.1109    3.4284    0.1444 H   0  0  0  0  0  0  0  0  0  0  0  0
    0.5590    0.3429    1.8384 C   0  0  0  0  0  0  0  0  0  0  0  0
    1.6257   -0.2037    2.0887 O   0  0  0  0  0  0  0  0  0  0  0  0
    0.0100    1.1872    2.7865 N   0  0  0  0  0  0  0  0  0  0  0  0
   -0.7535    1.7799    2.4643 H   0  0  0  0  0  0  0  0  0  0  0  0
    0.5999    1.4275    4.0967 C   0  0  0  0  0  0  0  0  0  0  0  0
    1.5732    1.9182    3.9944 H   0  0  0  0  0  0  0  0  0  0  0  0
   -0.0540    2.0709    4.6928 H   0  0  0  0  0  0  0  0  0  0  0  0
    0.7357    0.4827    4.6337 H   0  0  0  0  0  0  0  0  0  0  0  0
  1  2  1  0  0  0  0
  2  3  1  0  0  0  0
  2  4  1  0  0  0  0
  2  5  1  0  0  0  0
  5  6  2  0  0  0  0
  5  7  1  0  0  0  0
  7  8  1  0  0  0  0
  7  9  1  0  0  0  0
  9 10  1  0  0  0  0
  9 11  1  0  0  0  0
  9 19  1  0  0  0  0
 11 12  1  0  0  0  0
 11 13  1  0  0  0  0
 11 17  1  0  0  0  0
 13 14  1  0  0  0  0
 13 15  1  0  0  0  0
 13 16  1  0  0  0  0
 17 18  1  0  0  0  0
 19 20  2  0  0  0  0
 19 21  1  0  0  0  0
 21 22  1  0  0  0  0
 21 23  1  0  0  0  0
 23 24  1  0  0  0  0
 23 25  1  0  0  0  0
 23 26  1  0  0  0  0
M  END
$$$$

  -OEChem-01062216093D

 26 25  0     1  0  0  0  0  0999 V2000
   -3.1476   -3.0396    1.2931 H   0  0  0  0  0  0  0  0  0  0  0  0
   -3.0705   -2.0623    0.8078 C   0  0  0  0  0  0  0  0  0  0  0  0
   -3.6820   -1.3463    1.3618 H   0  0  0  0  0  0  0  0  0  0  0  0
   -3.4509   -2.1450   -0.2132 H   0  0  0  0  0  0  0  0  0  0  0  0
   -1.6245   -1.6033    0.7867 C   0  0  0  0  0  0  0  0  0  0  0  0
   -0.7553   -2.3254    1.2405 O   0  0  0  0  0  0  0  0  0  0  0  0
   -1.3063   -0.3829    0.2266 N   0  0  0  0  0  0  0  0  0  0  0  0
   -2.0931    0.2096   -0.0218 H   0  0  0  0  0  0  0  0  0  0  0  0
   -0.0056    0.2970    0.3907 C   0  0  1  0  0  0  0  0  0  0  0  0
    0.7251   -0.2538   -0.2107 H   0  0  0  0  0  0  0  0  0  0  0  0
   -0.0956    1.7289   -0.1710 C   0  0  1  0  0  0  0  0  0  0  0  0
    0.8810    2.2078   -0.0365 H   0  0  0  0  0  0  0  0  0  0  0  0
   -0.4362    1.7463   -1.6621 C   0  0  0  0  0  0  0  0  0  0  0  0
   -1.4367    1.3424   -1.8424 H   0  0  0  0  0  0  0  0  0  0  0  0
   -0.4017    2.7705   -2.0448 H   0  0  0  0  0  0  0  0  0  0  0  0
    0.2875    1.1459   -2.2222 H   0  0  0  0  0  0  0  0  0  0  0  0
   -1.0874    2.4882    0.5327 O   0  0  0  0  0  0  0  0  0  0  0  0
   -1.0688    3.4175    0.2407 H   0  0  0  0  0  0  0  0  0  0  0  0
    0.5636    0.3226    1.8258 C   0  0  0  0  0  0  0  0  0  0  0  0
    1.7258   -0.0065    2.0286 O   0  0  0  0  0  0  0  0  0  0  0  0
   -0.1519    0.9262    2.8444 N   0  0  0  0  0  0  0  0  0  0  0  0
   -1.0046    1.4035    2.5614 H   0  0  0  0  0  0  0  0  0  0  0  0
    0.3958    1.1768    4.1708 C   0  0  0  0  0  0  0  0  0  0  0  0
    1.2260    1.8882    4.1141 H   0  0  0  0  0  0  0  0  0  0  0  0
   -0.3758    1.5923    4.8258 H   0  0  0  0  0  0  0  0  0  0  0  0
    0.7596    0.2449    4.6164 H   0  0  0  0  0  0  0  0  0  0  0  0
  1  2  1  0  0  0  0
  2  3  1  0  0  0  0
  2  4  1  0  0  0  0
  2  5  1  0  0  0  0
  5  6  2  0  0  0  0
  5  7  1  0  0  0  0
  7  8  1  0  0  0  0
  7  9  1  0  0  0  0
  9 10  1  0  0  0  0
  9 11  1  0  0  0  0
  9 19  1  0  0  0  0
 11 12  1  0  0  0  0
 11 13  1  0  0  0  0
 11 17  1  0  0  0  0
 13 14  1  0  0  0  0
 13 15  1  0  0  0  0
 13 16  1  0  0  0  0
 17 18  1  0  0  0  0
 19 20  2  0  0  0  0
 19 21  1  0  0  0  0
 21 22  1  0  0  0  0
 21 23  1  0  0  0  0
 23 24  1  0  0  0  0
 23 25  1  0  0  0  0
 23 26  1  0  0  0  0
M  END
$$$$

  -OEChem-01062216093D

 26 25  0     1  0  0  0  0  0999 V2000
   -3.1538   -3.0405    1.2861 H   0  0  0  0  0  0  0  0  0  0  0  0
   -3.0729   -2.0684    0.7913 C   0  0  0  0  0  0  0  0  0  0  0  0
   -3.6960   -1.3485    1.3271 H   0  0  0  0  0  0  0  0  0  0  0  0
   -3.4368   -2.1653   -0.2343 H   0  0  0  0  0  0  0  0  0  0  0  0
   -1.6285   -1.6039    0.7872 C   0  0  0  0  0  0  0  0  0  0  0  0
   -0.7634   -2.3150    1.2662 O   0  0  0  0  0  0  0  0  0  0  0  0
   -1.3048   -0.3880    0.2205 N   0  0  0  0  0  0  0  0  0  0  0  0
   -2.0869    0.2023   -0.0482 H   0  0  0  0  0  0  0  0  0  0  0  0
   -0.0014    0.2889    0.3810 C   0  0  1  0  0  0  0  0  0  0  0  0
    0.7275   -0.2611   -0.2231 H   0  0  0  0  0  0  0  0  0  0  0  0
   -0.0956    1.7225   -0.1718 C   0  0  1  0  0  0  0  0  0  0  0  0
    0.8808    2.2033   -0.0403 H   0  0  0  0  0  0  0  0  0  0  0  0
   -0.4473    1.7528   -1.6600 C   0  0  0  0  0  0  0  0  0  0  0  0
   -1.4491    1.3500   -1.8360 H   0  0  0  0  0  0  0  0  0  0  0  0
   -0.4161    2.7805   -2.0336 H   0  0  0  0  0  0  0  0  0  0  0  0
    0.2724    1.1582   -2.2311 H   0  0  0  0  0  0  0  0  0  0  0  0
   -1.0844    2.4680    0.5488 O   0  0  0  0  0  0  0  0  0  0  0  0
   -1.0458    3.4086    0.2992 H   0  0  0  0  0  0  0  0  0  0  0  0
    0.5777    0.3280    1.8111 C   0  0  0  0  0  0  0  0  0  0  0  0
    1.7887    0.2403    1.9756 O   0  0  0  0  0  0  0  0  0  0  0  0
   -0.2290    0.6545    2.8869 N   0  0  0  0  0  0  0  0  0  0  0  0
   -1.1882    0.9076    2.6701 H   0  0  0  0  0  0  0  0  0  0  0  0
    0.2756    0.8636    4.2370 C   0  0  0  0  0  0  0  0  0  0  0  0
    0.9615    1.7167    4.2617 H   0  0  0  0  0  0  0  0  0  0  0  0
   -0.5530    1.0628    4.9231 H   0  0  0  0  0  0  0  0  0  0  0  0
    0.8070   -0.0273    4.5883 H   0  0  0  0  0  0  0  0  0  0  0  0
  1  2  1  0  0  0  0
  2  3  1  0  0  0  0
  2  4  1  0  0  0  0
  2  5  1  0  0  0  0
  5  6  2  0  0  0  0
  5  7  1  0  0  0  0
  7  8  1  0  0  0  0
  7  9  1  0  0  0  0
  9 10  1  0  0  0  0
  9 11  1  0  0  0  0
  9 19  1  0  0  0  0
 11 12  1  0  0  0  0
 11 13  1  0  0  0  0
 11 17  1  0  0  0  0
 13 14  1  0  0  0  0
 13 15  1  0  0  0  0
 13 16  1  0  0  0  0
 17 18  1  0  0  0  0
 19 20  2  0  0  0  0
 19 21  1  0  0  0  0
 21 22  1  0  0  0  0
 21 23  1  0  0  0  0
 23 24  1  0  0  0  0
 23 25  1  0  0  0  0
 23 26  1  0  0  0  0
M  END
$$$$

  -OEChem-01062216093D

 26 25  0     1  0  0  0  0  0999 V2000
   -3.1745   -3.0195    1.2791 H   0  0  0  0  0  0  0  0  0  0  0  0
   -3.0785   -2.0666    0.7506 C   0  0  0  0  0  0  0  0  0  0  0  0
   -3.7415   -1.3361    1.2202 H   0  0  0  0  0  0  0  0  0  0  0  0
   -3.3817   -2.2096   -0.2894 H   0  0  0  0  0  0  0  0  0  0  0  0
   -1.6429   -1.5799    0.8085 C   0  0  0  0  0  0  0  0  0  0  0  0
   -0.7954   -2.2593    1.3595 O   0  0  0  0  0  0  0  0  0  0  0  0
   -1.3082   -0.3723    0.2321 N   0  0  0  0  0  0  0  0  0  0  0  0
   -2.0825    0.2016   -0.0908 H   0  0  0  0  0  0  0  0  0  0  0  0
   -0.0111    0.3184    0.3948 C   0  0  1  0  0  0  0  0  0  0  0  0
    0.7255   -0.2368   -0.1947 H   0  0  0  0  0  0  0  0  0  0  0  0
   -0.1191    1.7383   -0.1905 C   0  0  1  0  0  0  0  0  0  0  0  0
    0.8481    2.2373   -0.0605 H   0  0  0  0  0  0  0  0  0  0  0  0
   -0.4562    1.7334   -1.6826 C   0  0  0  0  0  0  0  0  0  0  0  0
   -1.4501    1.3127   -1.8609 H   0  0  0  0  0  0  0  0  0  0  0  0
   -0.4365    2.7539   -2.0765 H   0  0  0  0  0  0  0  0  0  0  0  0
    0.2784    1.1385   -2.2341 H   0  0  0  0  0  0  0  0  0  0  0  0
   -1.1252    2.4815    0.5059 O   0  0  0  0  0  0  0  0  0  0  0  0
   -1.0687    3.4259    0.2764 H   0  0  0  0  0  0  0  0  0  0  0  0
    0.5780    0.4025    1.8207 C   0  0  0  0  0  0  0  0  0  0  0  0
    1.7852    0.5658    1.9570 O   0  0  0  0  0  0  0  0  0  0  0  0
   -0.2363    0.4426    2.9391 N   0  0  0  0  0  0  0  0  0  0  0  0
   -1.2227    0.2630    2.7871 H   0  0  0  0  0  0  0  0  0  0  0  0
    0.2749    0.4815    4.3023 C   0  0  0  0  0  0  0  0  0  0  0  0
    0.9144    1.3584    4.4476 H   0  0  0  0  0  0  0  0  0  0  0  0
   -0.5537    0.5378    5.0145 H   0  0  0  0  0  0  0  0  0  0  0  0
    0.8572   -0.4206    4.5168 H   0  0  0  0  0  0  0  0  0  0  0  0
  1  2  1  0  0  0  0
  2  3  1  0  0  0  0
  2  4  1  0  0  0  0
  2  5  1  0  0  0  0
  5  6  2  0  0  0  0
  5  7  1  0  0  0  0
  7  8  1  0  0  0  0
  7  9  1  0  0  0  0
  9 10  1  0  0  0  0
  9 11  1  0  0  0  0
  9 19  1  0  0  0  0
 11 12  1  0  0  0  0
 11 13  1  0  0  0  0
 11 17  1  0  0  0  0
 13 14  1  0  0  0  0
 13 15  1  0  0  0  0
 13 16  1  0  0  0  0
 17 18  1  0  0  0  0
 19 20  2  0  0  0  0
 19 21  1  0  0  0  0
 21 22  1  0  0  0  0
 21 23  1  0  0  0  0
 23 24  1  0  0  0  0
 23 25  1  0  0  0  0
 23 26  1  0  0  0  0
M  END
$$$$

  -OEChem-01062216093D

 26 25  0     1  0  0  0  0  0999 V2000
   -3.2521   -3.0144    1.1786 H   0  0  0  0  0  0  0  0  0  0  0  0
   -3.1248   -2.0571    0.6649 C   0  0  0  0  0  0  0  0  0  0  0  0
   -3.8032   -1.3257    1.1110 H   0  0  0  0  0  0  0  0  0  0  0  0
   -3.3821   -2.1873   -0.3892 H   0  0  0  0  0  0  0  0  0  0  0  0
   -1.6895   -1.5817    0.7920 C   0  0  0  0  0  0  0  0  0  0  0  0
   -0.8795   -2.2564    1.4024 O   0  0  0  0  0  0  0  0  0  0  0  0
   -1.3204   -0.3751    0.2370 N   0  0  0  0  0  0  0  0  0  0  0  0
   -2.0806    0.2047   -0.1091 H   0  0  0  0  0  0  0  0  0  0  0  0
   -0.0243    0.3157    0.4217 C   0  0  1  0  0  0  0  0  0  0  0  0
    0.7187   -0.2389   -0.1599 H   0  0  0  0  0  0  0  0  0  0  0  0
   -0.1389    1.7322   -0.1775 C   0  0  1  0  0  0  0  0  0  0  0  0
    0.8196    2.2462   -0.0414 H   0  0  0  0  0  0  0  0  0  0  0  0
   -0.4555    1.7153   -1.6743 C   0  0  0  0  0  0  0  0  0  0  0  0
   -1.4384    1.2754   -1.8656 H   0  0  0  0  0  0  0  0  0  0  0  0
   -0.4503    2.7350   -2.0706 H   0  0  0  0  0  0  0  0  0  0  0  0
    0.2982    1.1336   -2.2138 H   0  0  0  0  0  0  0  0  0  0  0  0
   -1.1629    2.4676    0.5001 O   0  0  0  0  0  0  0  0  0  0  0  0
   -1.0955    3.4156    0.2904 H   0  0  0  0  0  0  0  0  0  0  0  0
    0.5692    0.4120    1.8486 C   0  0  0  0  0  0  0  0  0  0  0  0
    1.7138    0.8316    1.9829 O   0  0  0  0  0  0  0  0  0  0  0  0
   -0.1836    0.1562    2.9814 N   0  0  0  0  0  0  0  0  0  0  0  0
   -1.0122   -0.4093    2.8222 H   0  0  0  0  0  0  0  0  0  0  0  0
    0.3850    0.1697    4.3229 C   0  0  0  0  0  0  0  0  0  0  0  0
    0.8311    1.1456    4.5418 H   0  0  0  0  0  0  0  0  0  0  0  0
   -0.3956   -0.0246    5.0645 H   0  0  0  0  0  0  0  0  0  0  0  0
    1.1566   -0.6013    4.4185 H   0  0  0  0  0  0  0  0  0  0  0  0
  1  2  1  0  0  0  0
  2  3  1  0  0  0  0
  2  4  1  0  0  0  0
  2  5  1  0  0  0  0
  5  6  2  0  0  0  0
  5  7  1  0  0  0  0
  7  8  1  0  0  0  0
  7  9  1  0  0  0  0
  9 10  1  0  0  0  0
  9 11  1  0  0  0  0
  9 19  1  0  0  0  0
 11 12  1  0  0  0  0
 11 13  1  0  0  0  0
 11 17  1  0  0  0  0
 13 14  1  0  0  0  0
 13 15  1  0  0  0  0
 13 16  1  0  0  0  0
 17 18  1  0  0  0  0
 19 20  2  0  0  0  0
 19 21  1  0  0  0  0
 21 22  1  0  0  0  0
 21 23  1  0  0  0  0
 23 24  1  0  0  0  0
 23 25  1  0  0  0  0
 23 26  1  0  0  0  0
M  END
$$$$

  -OEChem-01062216093D

 26 25  0     1  0  0  0  0  0999 V2000
   -3.3023   -2.9969    1.1272 H   0  0  0  0  0  0  0  0  0  0  0  0
   -3.1569   -2.0340    0.6292 C   0  0  0  0  0  0  0  0  0  0  0  0
   -3.8136   -1.2947    1.0942 H   0  0  0  0  0  0  0  0  0  0  0  0
   -3.4259   -2.1391   -0.4247 H   0  0  0  0  0  0  0  0  0  0  0  0
   -1.7102   -1.5943    0.7524 C   0  0  0  0  0  0  0  0  0  0  0  0
   -0.9067   -2.3094    1.3260 O   0  0  0  0  0  0  0  0  0  0  0  0
   -1.3206   -0.3817    0.2257 N   0  0  0  0  0  0  0  0  0  0  0  0
   -2.0793    0.2201   -0.0851 H   0  0  0  0  0  0  0  0  0  0  0  0
   -0.0262    0.3078    0.4335 C   0  0  1  0  0  0  0  0  0  0  0  0
    0.7224   -0.2393   -0.1474 H   0  0  0  0  0  0  0  0  0  0  0  0
   -0.1526    1.7250   -0.1673 C   0  0  1  0  0  0  0  0  0  0  0  0
    0.7970    2.2537   -0.0269 H   0  0  0  0  0  0  0  0  0  0  0  0
   -0.4567    1.7061   -1.6671 C   0  0  0  0  0  0  0  0  0  0  0  0
   -1.4380    1.2662   -1.8673 H   0  0  0  0  0  0  0  0  0  0  0  0
   -0.4479    2.7254   -2.0642 H   0  0  0  0  0  0  0  0  0  0  0  0
    0.3017    1.1238   -2.1994 H   0  0  0  0  0  0  0  0  0  0  0  0
   -1.1928    2.4458    0.5019 O   0  0  0  0  0  0  0  0  0  0  0  0
   -1.1207    3.3978    0.3129 H   0  0  0  0  0  0  0  0  0  0  0  0
    0.5676    0.3955    1.8652 C   0  0  0  0  0  0  0  0  0  0  0  0
    1.6115    1.0167    2.0371 O   0  0  0  0  0  0  0  0  0  0  0  0
   -0.0604   -0.1468    2.9725 N   0  0  0  0  0  0  0  0  0  0  0  0
   -0.7105   -0.9010    2.7550 H   0  0  0  0  0  0  0  0  0  0  0  0
    0.5400   -0.1370    4.3003 C   0  0  0  0  0  0  0  0  0  0  0  0
    0.7506    0.8892    4.6191 H   0  0  0  0  0  0  0  0  0  0  0  0
   -0.1440   -0.5878    5.0254 H   0  0  0  0  0  0  0  0  0  0  0  0
    1.4753   -0.7063    4.3020 H   0  0  0  0  0  0  0  0  0  0  0  0
  1  2  1  0  0  0  0
  2  3  1  0  0  0  0
  2  4  1  0  0  0  0
  2  5  1  0  0  0  0
  5  6  2  0  0  0  0
  5  7  1  0  0  0  0
  7  8  1  0  0  0  0
  7  9  1  0  0  0  0
  9 10  1  0  0  0  0
  9 11  1  0  0  0  0
  9 19  1  0  0  0  0
 11 12  1  0  0  0  0
 11 13  1  0  0  0  0
 11 17  1  0  0  0  0
 13 14  1  0  0  0  0
 13 15  1  0  0  0  0
 13 16  1  0  0  0  0
 17 18  1  0  0  0  0
 19 20  2  0  0  0  0
 19 21  1  0  0  0  0
 21 22  1  0  0  0  0
 21 23  1  0  0  0  0
 23 24  1  0  0  0  0
 23 25  1  0  0  0  0
 23 26  1  0  0  0  0
M  END
$$$$

  -OEChem-01062216093D

 26 25  0     1  0  0  0  0  0999 V2000
   -3.3157   -2.9806    1.1236 H   0  0  0  0  0  0  0  0  0  0  0  0
   -3.1670   -2.0110    0.6401 C   0  0  0  0  0  0  0  0  0  0  0  0
   -3.7880   -1.2671    1.1452 H   0  0  0  0  0  0  0  0  0  0  0  0
   -3.4785   -2.0874   -0.4045 H   0  0  0  0  0  0  0  0  0  0  0  0
   -1.7071   -1.6067    0.7165 C   0  0  0  0  0  0  0  0  0  0  0  0
   -0.8917   -2.3731    1.2017 O   0  0  0  0  0  0  0  0  0  0  0  0
   -1.3130   -0.3870    0.2100 N   0  0  0  0  0  0  0  0  0  0  0  0
   -2.0772    0.2318   -0.0513 H   0  0  0  0  0  0  0  0  0  0  0  0
   -0.0232    0.3062    0.4373 C   0  0  1  0  0  0  0  0  0  0  0  0
    0.7330   -0.2338   -0.1403 H   0  0  0  0  0  0  0  0  0  0  0  0
   -0.1606    1.7224   -0.1676 C   0  0  1  0  0  0  0  0  0  0  0  0
    0.7805    2.2644   -0.0228 H   0  0  0  0  0  0  0  0  0  0  0  0
   -0.4531    1.7002   -1.6700 C   0  0  0  0  0  0  0  0  0  0  0  0
   -1.4282    1.2503   -1.8779 H   0  0  0  0  0  0  0  0  0  0  0  0
   -0.4522    2.7196   -2.0671 H   0  0  0  0  0  0  0  0  0  0  0  0
    0.3152    1.1258   -2.1966 H   0  0  0  0  0  0  0  0  0  0  0  0
   -1.2169    2.4288    0.4914 O   0  0  0  0  0  0  0  0  0  0  0  0
   -1.1402    3.3843    0.3227 H   0  0  0  0  0  0  0  0  0  0  0  0
    0.5628    0.3851    1.8767 C   0  0  0  0  0  0  0  0  0  0  0  0
    1.4774    1.1683    2.1119 O   0  0  0  0  0  0  0  0  0  0  0  0
    0.1134   -0.4041    2.9205 N   0  0  0  0  0  0  0  0  0  0  0  0
   -0.4203   -1.2263    2.6354 H   0  0  0  0  0  0  0  0  0  0  0  0
    0.7466   -0.4268    4.2330 C   0  0  0  0  0  0  0  0  0  0  0  0
    0.7419    0.5731    4.6792 H   0  0  0  0  0  0  0  0  0  0  0  0
    0.2039   -1.1030    4.9002 H   0  0  0  0  0  0  0  0  0  0  0  0
    1.7823   -0.7728    4.1530 H   0  0  0  0  0  0  0  0  0  0  0  0
  1  2  1  0  0  0  0
  2  3  1  0  0  0  0
  2  4  1  0  0  0  0
  2  5  1  0  0  0  0
  5  6  2  0  0  0  0
  5  7  1  0  0  0  0
  7  8  1  0  0  0  0
  7  9  1  0  0  0  0
  9 10  1  0  0  0  0
  9 11  1  0  0  0  0
  9 19  1  0  0  0  0
 11 12  1  0  0  0  0
 11 13  1  0  0  0  0
 11 17  1  0  0  0  0
 13 14  1  0  0  0  0
 13 15  1  0  0  0  0
 13 16  1  0  0  0  0
 17 18  1  0  0  0  0
 19 20  2  0  0  0  0
 19 21  1  0  0  0  0
 21 22  1  0  0  0  0
 21 23  1  0  0  0  0
 23 24  1  0  0  0  0
 23 25  1  0  0  0  0
 23 26  1  0  0  0  0
M  END
$$$$

  -OEChem-01062216093D

 26 25  0     1  0  0  0  0  0999 V2000
   -3.3719   -2.9248    1.1610 H   0  0  0  0  0  0  0  0  0  0  0  0
   -3.2188   -1.9271    0.7399 C   0  0  0  0  0  0  0  0  0  0  0  0
   -3.7594   -1.2006    1.3517 H   0  0  0  0  0  0  0  0  0  0  0  0
   -3.6200   -1.9086   -0.2763 H   0  0  0  0  0  0  0  0  0  0  0  0
   -1.7401   -1.5890    0.7188 C   0  0  0  0  0  0  0  0  0  0  0  0
   -0.9249   -2.4143    1.0976 O   0  0  0  0  0  0  0  0  0  0  0  0
   -1.3290   -0.3747    0.2124 N   0  0  0  0  0  0  0  0  0  0  0  0
   -2.0875    0.2753    0.0165 H   0  0  0  0  0  0  0  0  0  0  0  0
   -0.0197    0.2872    0.4190 C   0  0  1  0  0  0  0  0  0  0  0  0
    0.7129   -0.2704   -0.1717 H   0  0  0  0  0  0  0  0  0  0  0  0
   -0.1382    1.7024   -0.1945 C   0  0  1  0  0  0  0  0  0  0  0  0
    0.8160    2.2257   -0.0677 H   0  0  0  0  0  0  0  0  0  0  0  0
   -0.4517    1.6761   -1.6927 C   0  0  0  0  0  0  0  0  0  0  0  0
   -1.4401    1.2480   -1.8829 H   0  0  0  0  0  0  0  0  0  0  0  0
   -0.4321    2.6921   -2.0978 H   0  0  0  0  0  0  0  0  0  0  0  0
    0.2953    1.0795   -2.2252 H   0  0  0  0  0  0  0  0  0  0  0  0
   -1.1713    2.4330    0.4763 O   0  0  0  0  0  0  0  0  0  0  0  0
   -1.0541    3.3891    0.3361 H   0  0  0  0  0  0  0  0  0  0  0  0
    0.5926    0.3408    1.8506 C   0  0  0  0  0  0  0  0  0  0  0  0
    1.3650    1.2445    2.1540 O   0  0  0  0  0  0  0  0  0  0  0  0
    0.3610   -0.6340    2.8039 N   0  0  0  0  0  0  0  0  0  0  0  0
   -0.1015   -1.4810    2.4677 H   0  0  0  0  0  0  0  0  0  0  0  0
    1.0250   -0.6764    4.1005 C   0  0  0  0  0  0  0  0  0  0  0  0
    0.8375    0.2472    4.6580 H   0  0  0  0  0  0  0  0  0  0  0  0
    0.6447   -1.5164    4.6894 H   0  0  0  0  0  0  0  0  0  0  0  0
    2.1055   -0.8009    3.9744 H   0  0  0  0  0  0  0  0  0  0  0  0
  1  2  1  0  0  0  0
  2  3  1  0  0  0  0
  2  4  1  0  0  0  0
  2  5  1  0  0  0  0
  5  6  2  0  0  0  0
  5  7  1  0  0  0  0
  7  8  1  0  0  0  0
  7  9  1  0  0  0  0
  9 10  1  0  0  0  0
  9 11  1  0  0  0  0
  9 19  1  0  0  0  0
 11 12  1  0  0  0  0
 11 13  1  0  0  0  0
 11 17  1  0  0  0  0
 13 14  1  0  0  0  0
 13 15  1  0  0  0  0
 13 16  1  0  0  0  0
 17 18  1  0  0  0  0
 19 20  2  0  0  0  0
 19 21  1  0  0  0  0
 21 22  1  0  0  0  0
 21 23  1  0  0  0  0
 23 24  1  0  0  0  0
 23 25  1  0  0  0  0
 23 26  1  0  0  0  0
M  END
$$$$

  -OEChem-01062216093D

 26 25  0     1  0  0  0  0  0999 V2000
   -3.2618   -2.9862    1.1757 H   0  0  0  0  0  0  0  0  0  0  0  0
   -3.1396   -1.9911    0.7388 C   0  0  0  0  0  0  0  0  0  0  0  0
   -3.6844   -1.2692    1.3522 H   0  0  0  0  0  0  0  0  0  0  0  0
   -3.5617   -1.9947   -0.2691 H   0  0  0  0  0  0  0  0  0  0  0  0
   -1.6695   -1.6204    0.6837 C   0  0  0  0  0  0  0  0  0  0  0  0
   -0.8253   -2.4421    1.0030 O   0  0  0  0  0  0  0  0  0  0  0  0
   -1.2982   -0.3870    0.1923 N   0  0  0  0  0  0  0  0  0  0  0  0
   -2.0768    0.2473    0.0248 H   0  0  0  0  0  0  0  0  0  0  0  0
   -0.0100    0.3083    0.4143 C   0  0  1  0  0  0  0  0  0  0  0  0
    0.7428   -0.2219   -0.1763 H   0  0  0  0  0  0  0  0  0  0  0  0
   -0.1606    1.7243   -0.1885 C   0  0  1  0  0  0  0  0  0  0  0  0
    0.7797    2.2683   -0.0445 H   0  0  0  0  0  0  0  0  0  0  0  0
   -0.4571    1.7047   -1.6899 C   0  0  0  0  0  0  0  0  0  0  0  0
   -1.4301    1.2490   -1.8952 H   0  0  0  0  0  0  0  0  0  0  0  0
   -0.4643    2.7252   -2.0840 H   0  0  0  0  0  0  0  0  0  0  0  0
    0.3132    1.1368   -2.2204 H   0  0  0  0  0  0  0  0  0  0  0  0
   -1.2180    2.4233    0.4780 O   0  0  0  0  0  0  0  0  0  0  0  0
   -1.0783    3.3845    0.4150 H   0  0  0  0  0  0  0  0  0  0  0  0
    0.5829    0.3517    1.8546 C   0  0  0  0  0  0  0  0  0  0  0  0
    1.1317    1.3650    2.2758 O   0  0  0  0  0  0  0  0  0  0  0  0
    0.6209   -0.7641    2.6696 N   0  0  0  0  0  0  0  0  0  0  0  0
    0.2469   -1.6295    2.2730 H   0  0  0  0  0  0  0  0  0  0  0  0
    1.2590   -0.8057    3.9788 C   0  0  0  0  0  0  0  0  0  0  0  0
    0.8167   -0.0574    4.6446 H   0  0  0  0  0  0  0  0  0  0  0  0
    1.1240   -1.7927    4.4315 H   0  0  0  0  0  0  0  0  0  0  0  0
    2.3323   -0.6092    3.8886 H   0  0  0  0  0  0  0  0  0  0  0  0
  1  2  1  0  0  0  0
  2  3  1  0  0  0  0
  2  4  1  0  0  0  0
  2  5  1  0  0  0  0
  5  6  2  0  0  0  0
  5  7  1  0  0  0  0
  7  8  1  0  0  0  0
  7  9  1  0  0  0  0
  9 10  1  0  0  0  0
  9 11  1  0  0  0  0
  9 19  1  0  0  0  0
 11 12  1  0  0  0  0
 11 13  1  0  0  0  0
 11 17  1  0  0  0  0
 13 14  1  0  0  0  0
 13 15  1  0  0  0  0
 13 16  1  0  0  0  0
 17 18  1  0  0  0  0
 19 20  2  0  0  0  0
 19 21  1  0  0  0  0
 21 22  1  0  0  0  0
 21 23  1  0  0  0  0
 23 24  1  0  0  0  0
 23 25  1  0  0  0  0
 23 26  1  0  0  0  0
M  END
$$$$

  -OEChem-01062216093D

 26 25  0     1  0  0  0  0  0999 V2000
   -3.1922   -2.9638    1.2300 H   0  0  0  0  0  0  0  0  0  0  0  0
   -3.0864   -1.9466    0.8428 C   0  0  0  0  0  0  0  0  0  0  0  0
   -3.5802   -1.2553    1.5302 H   0  0  0  0  0  0  0  0  0  0  0  0
   -3.5744   -1.8897   -0.1333 H   0  0  0  0  0  0  0  0  0  0  0  0
   -1.6187   -1.5860    0.7120 C   0  0  0  0  0  0  0  0  0  0  0  0
   -0.7632   -2.3992    1.0231 O   0  0  0  0  0  0  0  0  0  0  0  0
   -1.2632   -0.3719    0.1631 N   0  0  0  0  0  0  0  0  0  0  0  0
   -2.0443    0.2539   -0.0259 H   0  0  0  0  0  0  0  0  0  0  0  0
    0.0404    0.3145    0.2997 C   0  0  1  0  0  0  0  0  0  0  0  0
    0.7640   -0.2304   -0.3141 H   0  0  0  0  0  0  0  0  0  0  0  0
   -0.1056    1.7320   -0.2986 C   0  0  1  0  0  0  0  0  0  0  0  0
    0.8538    2.2559   -0.2160 H   0  0  0  0  0  0  0  0  0  0  0  0
   -0.5004    1.7080   -1.7766 C   0  0  0  0  0  0  0  0  0  0  0  0
   -1.4938    1.2717   -1.9142 H   0  0  0  0  0  0  0  0  0  0  0  0
   -0.5153    2.7277   -2.1730 H   0  0  0  0  0  0  0  0  0  0  0  0
    0.2220    1.1238   -2.3544 H   0  0  0  0  0  0  0  0  0  0  0  0
   -1.1039    2.4527    0.4279 O   0  0  0  0  0  0  0  0  0  0  0  0
   -0.7809    2.5877    1.3436 H   0  0  0  0  0  0  0  0  0  0  0  0
    0.6612    0.3676    1.7254 C   0  0  0  0  0  0  0  0  0  0  0  0
    0.8303    1.4473    2.2860 O   0  0  0  0  0  0  0  0  0  0  0  0
    0.9751   -0.7776    2.4308 N   0  0  0  0  0  0  0  0  0  0  0  0
    0.6556   -1.6582    2.0172 H   0  0  0  0  0  0  0  0  0  0  0  0
    1.4310   -0.7827    3.8148 C   0  0  0  0  0  0  0  0  0  0  0  0
    0.6612   -0.3675    4.4732 H   0  0  0  0  0  0  0  0  0  0  0  0
    1.6471   -1.8065    4.1349 H   0  0  0  0  0  0  0  0  0  0  0  0
    2.3451   -0.1892    3.9205 H   0  0  0  0  0  0  0  0  0  0  0  0
  1  2  1  0  0  0  0
  2  3  1  0  0  0  0
  2  4  1  0  0  0  0
  2  5  1  0  0  0  0
  5  6  2  0  0  0  0
  5  7  1  0  0  0  0
  7  8  1  0  0  0  0
  7  9  1  0  0  0  0
  9 10  1  0  0  0  0
  9 11  1  0  0  0  0
  9 19  1  0  0  0  0
 11 12  1  0  0  0  0
 11 13  1  0  0  0  0
 11 17  1  0  0  0  0
 13 14  1  0  0  0  0
 13 15  1  0  0  0  0
 13 16  1  0  0  0  0
 17 18  1  0  0  0  0
 19 20  2  0  0  0  0
 19 21  1  0  0  0  0
 21 22  1  0  0  0  0
 21 23  1  0  0  0  0
 23 24  1  0  0  0  0
 23 25  1  0  0  0  0
 23 26  1  0  0  0  0
M  END
$$$$

  -OEChem-01062216093D

 26 25  0     1  0  0  0  0  0999 V2000
   -3.1165   -2.9630    1.3219 H   0  0  0  0  0  0  0  0  0  0  0  0
   -3.0399   -1.9618    0.8887 C   0  0  0  0  0  0  0  0  0  0  0  0
   -3.5546   -1.2550    1.5441 H   0  0  0  0  0  0  0  0  0  0  0  0
   -3.5279   -1.9635   -0.0890 H   0  0  0  0  0  0  0  0  0  0  0  0
   -1.5832   -1.5650    0.7415 C   0  0  0  0  0  0  0  0  0  0  0  0
   -0.7027   -2.3452    1.0691 O   0  0  0  0  0  0  0  0  0  0  0  0
   -1.2586   -0.3546    0.1651 N   0  0  0  0  0  0  0  0  0  0  0  0
   -2.0479    0.2631   -0.0163 H   0  0  0  0  0  0  0  0  0  0  0  0
    0.0449    0.3312    0.2838 C   0  0  1  0  0  0  0  0  0  0  0  0
    0.7661   -0.2153   -0.3315 H   0  0  0  0  0  0  0  0  0  0  0  0
   -0.0986    1.7480   -0.3144 C   0  0  1  0  0  0  0  0  0  0  0  0
    0.8647    2.2641   -0.2330 H   0  0  0  0  0  0  0  0  0  0  0  0
   -0.5001    1.7265   -1.7903 C   0  0  0  0  0  0  0  0  0  0  0  0
   -1.4931    1.2881   -1.9237 H   0  0  0  0  0  0  0  0  0  0  0  0
   -0.5191    2.7470   -2.1845 H   0  0  0  0  0  0  0  0  0  0  0  0
    0.2209    1.1450   -2.3723 H   0  0  0  0  0  0  0  0  0  0  0  0
   -1.0853    2.4780    0.4181 O   0  0  0  0  0  0  0  0  0  0  0  0
   -0.7771    2.5625    1.3464 H   0  0  0  0  0  0  0  0  0  0  0  0
    0.6556    0.3843    1.7107 C   0  0  0  0  0  0  0  0  0  0  0  0
    0.6392    1.4289    2.3574 O   0  0  0  0  0  0  0  0  0  0  0  0
    1.2322   -0.7354    2.2782 N   0  0  0  0  0  0  0  0  0  0  0  0
    0.9712   -1.6211    1.8364 H   0  0  0  0  0  0  0  0  0  0  0  0
    1.7116   -0.7748    3.6539 C   0  0  0  0  0  0  0  0  0  0  0  0
    0.8849   -0.6121    4.3530 H   0  0  0  0  0  0  0  0  0  0  0  0
    2.1610   -1.7494    3.8674 H   0  0  0  0  0  0  0  0  0  0  0  0
    2.4710   -0.0033    3.8187 H   0  0  0  0  0  0  0  0  0  0  0  0
  1  2  1  0  0  0  0
  2  3  1  0  0  0  0
  2  4  1  0  0  0  0
  2  5  1  0  0  0  0
  5  6  2  0  0  0  0
  5  7  1  0  0  0  0
  7  8  1  0  0  0  0
  7  9  1  0  0  0  0
  9 10  1  0  0  0  0
  9 11  1  0  0  0  0
  9 19  1  0  0  0  0
 11 12  1  0  0  0  0
 11 13  1  0  0  0  0
 11 17  1  0  0  0  0
 13 14  1  0  0  0  0
 13 15  1  0  0  0  0
 13 16  1  0  0  0  0
 17 18  1  0  0  0  0
 19 20  2  0  0  0  0
 19 21  1  0  0  0  0
 21 22  1  0  0  0  0
 21 23  1  0  0  0  0
 23 24  1  0  0  0  0
 23 25  1  0  0  0  0
 23 26  1  0  0  0  0
M  END
$$$$

  -OEChem-01062216093D

 26 25  0     1  0  0  0  0  0999 V2000
   -3.0377   -2.9766    1.3653 H   0  0  0  0  0  0  0  0  0  0  0  0
   -2.9917   -1.9735    0.9321 C   0  0  0  0  0  0  0  0  0  0  0  0
   -3.5072   -1.2782    1.5992 H   0  0  0  0  0  0  0  0  0  0  0  0
   -3.4995   -1.9847   -0.0354 H   0  0  0  0  0  0  0  0  0  0  0  0
   -1.5474   -1.5455    0.7552 C   0  0  0  0  0  0  0  0  0  0  0  0
   -0.6404   -2.2917    1.0923 O   0  0  0  0  0  0  0  0  0  0  0  0
   -1.2563   -0.3388    0.1533 N   0  0  0  0  0  0  0  0  0  0  0  0
   -2.0537    0.2731   -0.0111 H   0  0  0  0  0  0  0  0  0  0  0  0
    0.0455    0.3455    0.2654 C   0  0  1  0  0  0  0  0  0  0  0  0
    0.7686   -0.2006   -0.3481 H   0  0  0  0  0  0  0  0  0  0  0  0
   -0.0919    1.7640   -0.3276 C   0  0  1  0  0  0  0  0  0  0  0  0
    0.8750    2.2726   -0.2417 H   0  0  0  0  0  0  0  0  0  0  0  0
   -0.4928    1.7485   -1.8035 C   0  0  0  0  0  0  0  0  0  0  0  0
   -1.4886    1.3164   -1.9374 H   0  0  0  0  0  0  0  0  0  0  0  0
   -0.5054    2.7700   -2.1955 H   0  0  0  0  0  0  0  0  0  0  0  0
    0.2242    1.1634   -2.3869 H   0  0  0  0  0  0  0  0  0  0  0  0
   -1.0719    2.5010    0.4071 O   0  0  0  0  0  0  0  0  0  0  0  0
   -0.7944    2.5275    1.3496 H   0  0  0  0  0  0  0  0  0  0  0  0
    0.6323    0.3953    1.6994 C   0  0  0  0  0  0  0  0  0  0  0  0
    0.4242    1.3637    2.4268 O   0  0  0  0  0  0  0  0  0  0  0  0
    1.4554   -0.6205    2.1462 N   0  0  0  0  0  0  0  0  0  0  0  0
    1.3240   -1.5088    1.6588 H   0  0  0  0  0  0  0  0  0  0  0  0
    1.9678   -0.6717    3.5097 C   0  0  0  0  0  0  0  0  0  0  0  0
    1.1438   -0.7528    4.2261 H   0  0  0  0  0  0  0  0  0  0  0  0
    2.6229   -1.5395    3.6326 H   0  0  0  0  0  0  0  0  0  0  0  0
    2.5466    0.2296    3.7373 H   0  0  0  0  0  0  0  0  0  0  0  0
  1  2  1  0  0  0  0
  2  3  1  0  0  0  0
  2  4  1  0  0  0  0
  2  5  1  0  0  0  0
  5  6  2  0  0  0  0
  5  7  1  0  0  0  0
  7  8  1  0  0  0  0
  7  9  1  0  0  0  0
  9 10  1  0  0  0  0
  9 11  1  0  0  0  0
  9 19  1  0  0  0  0
 11 12  1  0  0  0  0
 11 13  1  0  0  0  0
 11 17  1  0  0  0  0
 13 14  1  0  0  0  0
 13 15  1  0  0  0  0
 13 16  1  0  0  0  0
 17 18  1  0  0  0  0
 19 20  2  0  0  0  0
 19 21  1  0  0  0  0
 21 22  1  0  0  0  0
 21 23  1  0  0  0  0
 23 24  1  0  0  0  0
 23 25  1  0  0  0  0
 23 26  1  0  0  0  0
M  END
$$$$

  -OEChem-01062216093D

 26 25  0     1  0  0  0  0  0999 V2000
   -2.9126   -3.0214    1.4817 H   0  0  0  0  0  0  0  0  0  0  0  0
   -2.9230   -2.0344    1.0110 C   0  0  0  0  0  0  0  0  0  0  0  0
   -3.4225   -1.3306    1.6814 H   0  0  0  0  0  0  0  0  0  0  0  0
   -3.4819   -2.0954    0.0741 H   0  0  0  0  0  0  0  0  0  0  0  0
   -1.5052   -1.5699    0.7390 C   0  0  0  0  0  0  0  0  0  0  0  0
   -0.5598   -2.3113    0.9662 O   0  0  0  0  0  0  0  0  0  0  0  0
   -1.2818   -0.3283    0.1816 N   0  0  0  0  0  0  0  0  0  0  0  0
   -2.0934    0.2858    0.1657 H   0  0  0  0  0  0  0  0  0  0  0  0
    0.0052    0.3702    0.3318 C   0  0  1  0  0  0  0  0  0  0  0  0
    0.7319   -0.1611   -0.2897 H   0  0  0  0  0  0  0  0  0  0  0  0
   -0.1211    1.7909   -0.2593 C   0  0  1  0  0  0  0  0  0  0  0  0
    0.8444    2.2921   -0.1284 H   0  0  0  0  0  0  0  0  0  0  0  0
   -0.4565    1.7777   -1.7515 C   0  0  0  0  0  0  0  0  0  0  0  0
   -1.4465    1.3458   -1.9252 H   0  0  0  0  0  0  0  0  0  0  0  0
   -0.4491    2.7971   -2.1483 H   0  0  0  0  0  0  0  0  0  0  0  0
    0.2829    1.1887   -2.3024 H   0  0  0  0  0  0  0  0  0  0  0  0
   -1.1251    2.5464    0.4241 O   0  0  0  0  0  0  0  0  0  0  0  0
   -1.0025    3.4997    0.2777 H   0  0  0  0  0  0  0  0  0  0  0  0
    0.5943    0.3593    1.7655 C   0  0  0  0  0  0  0  0  0  0  0  0
    0.1883    1.1135    2.6417 O   0  0  0  0  0  0  0  0  0  0  0  0
    1.6622   -0.4743    2.0483 N   0  0  0  0  0  0  0  0  0  0  0  0
    1.7607   -1.2670    1.4166 H   0  0  0  0  0  0  0  0  0  0  0  0
    2.2055   -0.6169    3.3936 C   0  0  0  0  0  0  0  0  0  0  0  0
    1.4449   -1.0153    4.0732 H   0  0  0  0  0  0  0  0  0  0  0  0
    3.0578   -1.3028    3.3847 H   0  0  0  0  0  0  0  0  0  0  0  0
    2.5476    0.3508    3.7751 H   0  0  0  0  0  0  0  0  0  0  0  0
  1  2  1  0  0  0  0
  2  3  1  0  0  0  0
  2  4  1  0  0  0  0
  2  5  1  0  0  0  0
  5  6  2  0  0  0  0
  5  7  1  0  0  0  0
  7  8  1  0  0  0  0
  7  9  1  0  0  0  0
  9 10  1  0  0  0  0
  9 11  1  0  0  0  0
  9 19  1  0  0  0  0
 11 12  1  0  0  0  0
 11 13  1  0  0  0  0
 11 17  1  0  0  0  0
 13 14  1  0  0  0  0
 13 15  1  0  0  0  0
 13 16  1  0  0  0  0
 17 18  1  0  0  0  0
 19 20  2  0  0  0  0
 19 21  1  0  0  0  0
 21 22  1  0  0  0  0
 21 23  1  0  0  0  0
 23 24  1  0  0  0  0
 23 25  1  0  0  0  0
 23 26  1  0  0  0  0
M  END
$$$$

  -OEChem-01062216093D

 26 25  0     1  0  0  0  0  0999 V2000
   -2.8675   -3.0178    1.5215 H   0  0  0  0  0  0  0  0  0  0  0  0
   -2.8921   -2.0235    1.0670 C   0  0  0  0  0  0  0  0  0  0  0  0
   -3.3576   -1.3275    1.7694 H   0  0  0  0  0  0  0  0  0  0  0  0
   -3.4914   -2.0665    0.1545 H   0  0  0  0  0  0  0  0  0  0  0  0
   -1.4840   -1.5629    0.7426 C   0  0  0  0  0  0  0  0  0  0  0  0
   -0.5322   -2.3044    0.9402 O   0  0  0  0  0  0  0  0  0  0  0  0
   -1.2787   -0.3269    0.1656 N   0  0  0  0  0  0  0  0  0  0  0  0
   -2.0919    0.2847    0.1820 H   0  0  0  0  0  0  0  0  0  0  0  0
    0.0067    0.3764    0.3061 C   0  0  1  0  0  0  0  0  0  0  0  0
    0.7317   -0.1606   -0.3126 H   0  0  0  0  0  0  0  0  0  0  0  0
   -0.1091    1.8000   -0.2764 C   0  0  1  0  0  0  0  0  0  0  0  0
    0.8611    2.2936   -0.1511 H   0  0  0  0  0  0  0  0  0  0  0  0
   -0.4571    1.7915   -1.7657 C   0  0  0  0  0  0  0  0  0  0  0  0
   -1.4517    1.3666   -1.9319 H   0  0  0  0  0  0  0  0  0  0  0  0
   -0.4452    2.8113   -2.1612 H   0  0  0  0  0  0  0  0  0  0  0  0
    0.2728    1.1975   -2.3238 H   0  0  0  0  0  0  0  0  0  0  0  0
   -1.1028    2.5598    0.4155 O   0  0  0  0  0  0  0  0  0  0  0  0
   -1.0357    3.5044    0.1954 H   0  0  0  0  0  0  0  0  0  0  0  0
    0.5877    0.3764    1.7412 C   0  0  0  0  0  0  0  0  0  0  0  0
   -0.0341    0.8561    2.6825 O   0  0  0  0  0  0  0  0  0  0  0  0
    1.8269   -0.1943    1.9773 N   0  0  0  0  0  0  0  0  0  0  0  0
    2.1804   -0.8000    1.2419 H   0  0  0  0  0  0  0  0  0  0  0  0
    2.3586   -0.3789    3.3221 C   0  0  0  0  0  0  0  0  0  0  0  0
    1.7177   -1.0562    3.8964 H   0  0  0  0  0  0  0  0  0  0  0  0
    3.3641   -0.8078    3.2743 H   0  0  0  0  0  0  0  0  0  0  0  0
    2.4193    0.5799    3.8476 H   0  0  0  0  0  0  0  0  0  0  0  0
  1  2  1  0  0  0  0
  2  3  1  0  0  0  0
  2  4  1  0  0  0  0
  2  5  1  0  0  0  0
  5  6  2  0  0  0  0
  5  7  1  0  0  0  0
  7  8  1  0  0  0  0
  7  9  1  0  0  0  0
  9 10  1  0  0  0  0
  9 11  1  0  0  0  0
  9 19  1  0  0  0  0
 11 12  1  0  0  0  0
 11 13  1  0  0  0  0
 11 17  1  0  0  0  0
 13 14  1  0  0  0  0
 13 15  1  0  0  0  0
 13 16  1  0  0  0  0
 17 18  1  0  0  0  0
 19 20  2  0  0  0  0
 19 21  1  0  0  0  0
 21 22  1  0  0  0  0
 21 23  1  0  0  0  0
 23 24  1  0  0  0  0
 23 25  1  0  0  0  0
 23 26  1  0  0  0  0
M  END
$$$$

  -OEChem-01062216093D

 26 25  0     1  0  0  0  0  0999 V2000
   -2.8548   -3.0021    1.5627 H   0  0  0  0  0  0  0  0  0  0  0  0
   -2.8838   -2.0130    1.0972 C   0  0  0  0  0  0  0  0  0  0  0  0
   -3.3193   -1.3041    1.8059 H   0  0  0  0  0  0  0  0  0  0  0  0
   -3.5112   -2.0598    0.2042 H   0  0  0  0  0  0  0  0  0  0  0  0
   -1.4821   -1.5702    0.7243 C   0  0  0  0  0  0  0  0  0  0  0  0
   -0.5336   -2.3237    0.8893 O   0  0  0  0  0  0  0  0  0  0  0  0
   -1.2807   -0.3382    0.1364 N   0  0  0  0  0  0  0  0  0  0  0  0
   -2.0919    0.2746    0.1741 H   0  0  0  0  0  0  0  0  0  0  0  0
    0.0046    0.3649    0.2854 C   0  0  1  0  0  0  0  0  0  0  0  0
    0.7342   -0.1741   -0.3260 H   0  0  0  0  0  0  0  0  0  0  0  0
   -0.1036    1.7939   -0.2814 C   0  0  1  0  0  0  0  0  0  0  0  0
    0.8670    2.2849   -0.1503 H   0  0  0  0  0  0  0  0  0  0  0  0
   -0.4501    1.8034   -1.7708 C   0  0  0  0  0  0  0  0  0  0  0  0
   -1.4438    1.3794   -1.9435 H   0  0  0  0  0  0  0  0  0  0  0  0
   -0.4391    2.8282   -2.1535 H   0  0  0  0  0  0  0  0  0  0  0  0
    0.2809    1.2170   -2.3357 H   0  0  0  0  0  0  0  0  0  0  0  0
   -1.0971    2.5436    0.4211 O   0  0  0  0  0  0  0  0  0  0  0  0
   -1.0614    3.4843    0.1782 H   0  0  0  0  0  0  0  0  0  0  0  0
    0.5702    0.3742    1.7256 C   0  0  0  0  0  0  0  0  0  0  0  0
   -0.1506    0.6155    2.6883 O   0  0  0  0  0  0  0  0  0  0  0  0
    1.9099    0.0980    1.9411 N   0  0  0  0  0  0  0  0  0  0  0  0
    2.4257   -0.2869    1.1555 H   0  0  0  0  0  0  0  0  0  0  0  0
    2.4723   -0.0604    3.2768 C   0  0  0  0  0  0  0  0  0  0  0  0
    2.0028   -0.9059    3.7908 H   0  0  0  0  0  0  0  0  0  0  0  0
    3.5489   -0.2455    3.2139 H   0  0  0  0  0  0  0  0  0  0  0  0
    2.3137    0.8456    3.8711 H   0  0  0  0  0  0  0  0  0  0  0  0
  1  2  1  0  0  0  0
  2  3  1  0  0  0  0
  2  4  1  0  0  0  0
  2  5  1  0  0  0  0
  5  6  2  0  0  0  0
  5  7  1  0  0  0  0
  7  8  1  0  0  0  0
  7  9  1  0  0  0  0
  9 10  1  0  0  0  0
  9 11  1  0  0  0  0
  9 19  1  0  0  0  0
 11 12  1  0  0  0  0
 11 13  1  0  0  0  0
 11 17  1  0  0  0  0
 13 14  1  0  0  0  0
 13 15  1  0  0  0  0
 13 16  1  0  0  0  0
 17 18  1  0  0  0  0
 19 20  2  0  0  0  0
 19 21  1  0  0  0  0
 21 22  1  0  0  0  0
 21 23  1  0  0  0  0
 23 24  1  0  0  0  0
 23 25  1  0  0  0  0
 23 26  1  0  0  0  0
M  END
$$$$

  -OEChem-01062216093D

 26 25  0     1  0  0  0  0  0999 V2000
   -2.8852   -3.0126    1.5158 H   0  0  0  0  0  0  0  0  0  0  0  0
   -2.9002   -2.0043    1.0930 C   0  0  0  0  0  0  0  0  0  0  0  0
   -3.3009   -1.3157    1.8411 H   0  0  0  0  0  0  0  0  0  0  0  0
   -3.5495   -1.9983    0.2145 H   0  0  0  0  0  0  0  0  0  0  0  0
   -1.4966   -1.5804    0.7053 C   0  0  0  0  0  0  0  0  0  0  0  0
   -0.5581   -2.3511    0.8468 O   0  0  0  0  0  0  0  0  0  0  0  0
   -1.2835   -0.3499    0.1178 N   0  0  0  0  0  0  0  0  0  0  0  0
   -2.0895    0.2687    0.1633 H   0  0  0  0  0  0  0  0  0  0  0  0
    0.0060    0.3443    0.2805 C   0  0  1  0  0  0  0  0  0  0  0  0
    0.7387   -0.1956   -0.3267 H   0  0  0  0  0  0  0  0  0  0  0  0
   -0.0987    1.7782   -0.2747 C   0  0  1  0  0  0  0  0  0  0  0  0
    0.8717    2.2689   -0.1400 H   0  0  0  0  0  0  0  0  0  0  0  0
   -0.4455    1.8001   -1.7640 C   0  0  0  0  0  0  0  0  0  0  0  0
   -1.4401    1.3793   -1.9399 H   0  0  0  0  0  0  0  0  0  0  0  0
   -0.4328    2.8275   -2.1393 H   0  0  0  0  0  0  0  0  0  0  0  0
    0.2847    1.2166   -2.3328 H   0  0  0  0  0  0  0  0  0  0  0  0
   -1.0943    2.5201    0.4338 O   0  0  0  0  0  0  0  0  0  0  0  0
   -1.0789    3.4580    0.1770 H   0  0  0  0  0  0  0  0  0  0  0  0
    0.5651    0.3567    1.7241 C   0  0  0  0  0  0  0  0  0  0  0  0
   -0.1830    0.4026    2.6959 O   0  0  0  0  0  0  0  0  0  0  0  0
    1.9342    0.3840    1.9320 N   0  0  0  0  0  0  0  0  0  0  0  0
    2.5270    0.2082    1.1268 H   0  0  0  0  0  0  0  0  0  0  0  0
    2.5309    0.3170    3.2604 C   0  0  0  0  0  0  0  0  0  0  0  0
    2.2744   -0.6299    3.7471 H   0  0  0  0  0  0  0  0  0  0  0  0
    3.6204    0.3875    3.1896 H   0  0  0  0  0  0  0  0  0  0  0  0
    2.1729    1.1427    3.8844 H   0  0  0  0  0  0  0  0  0  0  0  0
  1  2  1  0  0  0  0
  2  3  1  0  0  0  0
  2  4  1  0  0  0  0
  2  5  1  0  0  0  0
  5  6  2  0  0  0  0
  5  7  1  0  0  0  0
  7  8  1  0  0  0  0
  7  9  1  0  0  0  0
  9 10  1  0  0  0  0
  9 11  1  0  0  0  0
  9 19  1  0  0  0  0
 11 12  1  0  0  0  0
 11 13  1  0  0  0  0
 11 17  1  0  0  0  0
 13 14  1  0  0  0  0
 13 15  1  0  0  0  0
 13 16  1  0  0  0  0
 17 18  1  0  0  0  0
 19 20  2  0  0  0  0
 19 21  1  0  0  0  0
 21 22  1  0  0  0  0
 21 23  1  0  0  0  0
 23 24  1  0  0  0  0
 23 25  1  0  0  0  0
 23 26  1  0  0  0  0
M  END
$$$$

  -OEChem-01062216093D

 26 25  0     1  0  0  0  0  0999 V2000
   -2.9087   -3.0044    1.5091 H   0  0  0  0  0  0  0  0  0  0  0  0
   -2.9165   -1.9967    1.0849 C   0  0  0  0  0  0  0  0  0  0  0  0
   -3.3009   -1.3026    1.8365 H   0  0  0  0  0  0  0  0  0  0  0  0
   -3.5749   -1.9843    0.2134 H   0  0  0  0  0  0  0  0  0  0  0  0
   -1.5118   -1.5910    0.6820 C   0  0  0  0  0  0  0  0  0  0  0  0
   -0.5871   -2.3840    0.7848 O   0  0  0  0  0  0  0  0  0  0  0  0
   -1.2845   -0.3584    0.1042 N   0  0  0  0  0  0  0  0  0  0  0  0
   -2.0843    0.2675    0.1587 H   0  0  0  0  0  0  0  0  0  0  0  0
    0.0102    0.3246    0.2825 C   0  0  1  0  0  0  0  0  0  0  0  0
    0.7448   -0.2135   -0.3238 H   0  0  0  0  0  0  0  0  0  0  0  0
   -0.0957    1.7629   -0.2627 C   0  0  1  0  0  0  0  0  0  0  0  0
    0.8715    2.2585   -0.1254 H   0  0  0  0  0  0  0  0  0  0  0  0
   -0.4408    1.7959   -1.7524 C   0  0  0  0  0  0  0  0  0  0  0  0
   -1.4329    1.3716   -1.9345 H   0  0  0  0  0  0  0  0  0  0  0  0
   -0.4325    2.8267   -2.1185 H   0  0  0  0  0  0  0  0  0  0  0  0
    0.2935    1.2212   -2.3250 H   0  0  0  0  0  0  0  0  0  0  0  0
   -1.0956    2.4928    0.4521 O   0  0  0  0  0  0  0  0  0  0  0  0
   -1.0991    3.4289    0.1882 H   0  0  0  0  0  0  0  0  0  0  0  0
    0.5710    0.3327    1.7274 C   0  0  0  0  0  0  0  0  0  0  0  0
   -0.1610    0.1859    2.7016 O   0  0  0  0  0  0  0  0  0  0  0  0
    1.8997    0.6607    1.9445 N   0  0  0  0  0  0  0  0  0  0  0  0
    2.5071    0.7083    1.1328 H   0  0  0  0  0  0  0  0  0  0  0  0
    2.5028    0.6984    3.2713 C   0  0  0  0  0  0  0  0  0  0  0  0
    2.4461   -0.2869    3.7458 H   0  0  0  0  0  0  0  0  0  0  0  0
    3.5552    0.9885    3.1995 H   0  0  0  0  0  0  0  0  0  0  0  0
    1.9877    1.4265    3.9067 H   0  0  0  0  0  0  0  0  0  0  0  0
  1  2  1  0  0  0  0
  2  3  1  0  0  0  0
  2  4  1  0  0  0  0
  2  5  1  0  0  0  0
  5  6  2  0  0  0  0
  5  7  1  0  0  0  0
  7  8  1  0  0  0  0
  7  9  1  0  0  0  0
  9 10  1  0  0  0  0
  9 11  1  0  0  0  0
  9 19  1  0  0  0  0
 11 12  1  0  0  0  0
 11 13  1  0  0  0  0
 11 17  1  0  0  0  0
 13 14  1  0  0  0  0
 13 15  1  0  0  0  0
 13 16  1  0  0  0  0
 17 18  1  0  0  0  0
 19 20  2  0  0  0  0
 19 21  1  0  0  0  0
 21 22  1  0  0  0  0
 21 23  1  0  0  0  0
 23 24  1  0  0  0  0
 23 25  1  0  0  0  0
 23 26  1  0  0  0  0
M  END
$$$$

  -OEChem-01062216093D

 26 25  0     1  0  0  0  0  0999 V2000
   -2.9885   -2.9846    1.4335 H   0  0  0  0  0  0  0  0  0  0  0  0
   -2.9455   -1.9481    1.0877 C   0  0  0  0  0  0  0  0  0  0  0  0
   -3.2054   -1.2902    1.9206 H   0  0  0  0  0  0  0  0  0  0  0  0
   -3.6701   -1.8126    0.2817 H   0  0  0  0  0  0  0  0  0  0  0  0
   -1.5491   -1.6230    0.5935 C   0  0  0  0  0  0  0  0  0  0  0  0
   -0.7072   -2.5035    0.4993 O   0  0  0  0  0  0  0  0  0  0  0  0
   -1.2684   -0.3759    0.0739 N   0  0  0  0  0  0  0  0  0  0  0  0
   -2.0483    0.2658    0.1885 H   0  0  0  0  0  0  0  0  0  0  0  0
    0.0349    0.2841    0.3011 C   0  0  1  0  0  0  0  0  0  0  0  0
    0.7013   -0.0609   -0.4945 H   0  0  0  0  0  0  0  0  0  0  0  0
   -0.1719    1.8061    0.1280 C   0  0  1  0  0  0  0  0  0  0  0  0
    0.7847    2.3143    0.2882 H   0  0  0  0  0  0  0  0  0  0  0  0
   -0.6676    2.1751   -1.2722 C   0  0  0  0  0  0  0  0  0  0  0  0
   -1.6640    1.7637   -1.4595 H   0  0  0  0  0  0  0  0  0  0  0  0
   -0.7181    3.2627   -1.3794 H   0  0  0  0  0  0  0  0  0  0  0  0
    0.0170    1.7862   -2.0321 H   0  0  0  0  0  0  0  0  0  0  0  0
   -1.1189    2.2864    1.0854 O   0  0  0  0  0  0  0  0  0  0  0  0
   -1.1737    3.2576    1.0654 H   0  0  0  0  0  0  0  0  0  0  0  0
    0.7968   -0.0153    1.6250 C   0  0  0  0  0  0  0  0  0  0  0  0
    0.2527   -0.5427    2.5893 O   0  0  0  0  0  0  0  0  0  0  0  0
    2.0241    0.5897    1.8538 N   0  0  0  0  0  0  0  0  0  0  0  0
    2.4816    1.0349    1.0652 H   0  0  0  0  0  0  0  0  0  0  0  0
    2.7566    0.4703    3.1095 C   0  0  0  0  0  0  0  0  0  0  0  0
    2.9680   -0.5811    3.3313 H   0  0  0  0  0  0  0  0  0  0  0  0
    3.7072    1.0081    3.0452 H   0  0  0  0  0  0  0  0  0  0  0  0
    2.1754    0.8948    3.9347 H   0  0  0  0  0  0  0  0  0  0  0  0
  1  2  1  0  0  0  0
  2  3  1  0  0  0  0
  2  4  1  0  0  0  0
  2  5  1  0  0  0  0
  5  6  2  0  0  0  0
  5  7  1  0  0  0  0
  7  8  1  0  0  0  0
  7  9  1  0  0  0  0
  9 10  1  0  0  0  0
  9 11  1  0  0  0  0
  9 19  1  0  0  0  0
 11 12  1  0  0  0  0
 11 13  1  0  0  0  0
 11 17  1  0  0  0  0
 13 14  1  0  0  0  0
 13 15  1  0  0  0  0
 13 16  1  0  0  0  0
 17 18  1  0  0  0  0
 19 20  2  0  0  0  0
 19 21  1  0  0  0  0
 21 22  1  0  0  0  0
 21 23  1  0  0  0  0
 23 24  1  0  0  0  0
 23 25  1  0  0  0  0
 23 26  1  0  0  0  0
M  END
$$$$

  -OEChem-01062216093D

 26 25  0     1  0  0  0  0  0999 V2000
   -2.9825   -2.9599    1.4572 H   0  0  0  0  0  0  0  0  0  0  0  0
   -2.9284   -1.9215    1.1191 C   0  0  0  0  0  0  0  0  0  0  0  0
   -3.1374   -1.2656    1.9678 H   0  0  0  0  0  0  0  0  0  0  0  0
   -3.6817   -1.7609    0.3446 H   0  0  0  0  0  0  0  0  0  0  0  0
   -1.5456   -1.6256    0.5709 C   0  0  0  0  0  0  0  0  0  0  0  0
   -0.7477   -2.5321    0.3887 O   0  0  0  0  0  0  0  0  0  0  0  0
   -1.2503   -0.3751    0.0694 N   0  0  0  0  0  0  0  0  0  0  0  0
   -2.0257    0.2695    0.1978 H   0  0  0  0  0  0  0  0  0  0  0  0
    0.0528    0.2872    0.3018 C   0  0  1  0  0  0  0  0  0  0  0  0
    0.7212   -0.0536   -0.4942 H   0  0  0  0  0  0  0  0  0  0  0  0
   -0.1747    1.8065    0.1147 C   0  0  1  0  0  0  0  0  0  0  0  0
    0.7716    2.3357    0.2631 H   0  0  0  0  0  0  0  0  0  0  0  0
   -0.6792    2.1548   -1.2883 C   0  0  0  0  0  0  0  0  0  0  0  0
   -1.6729    1.7336   -1.4678 H   0  0  0  0  0  0  0  0  0  0  0  0
   -0.7388    3.2405   -1.4082 H   0  0  0  0  0  0  0  0  0  0  0  0
    0.0056    1.7624   -2.0462 H   0  0  0  0  0  0  0  0  0  0  0  0
   -1.1331    2.2769    1.0659 O   0  0  0  0  0  0  0  0  0  0  0  0
   -1.2293    3.2439    1.0147 H   0  0  0  0  0  0  0  0  0  0  0  0
    0.8311   -0.0093    1.6227 C   0  0  0  0  0  0  0  0  0  0  0  0
    0.4200   -0.7826    2.4791 O   0  0  0  0  0  0  0  0  0  0  0  0
    1.8830    0.8123    2.0043 N   0  0  0  0  0  0  0  0  0  0  0  0
    2.2055    1.5044    1.3369 H   0  0  0  0  0  0  0  0  0  0  0  0
    2.5639    0.7137    3.2911 C   0  0  0  0  0  0  0  0  0  0  0  0
    2.9905   -0.2862    3.4241 H   0  0  0  0  0  0  0  0  0  0  0  0
    3.3758    1.4451    3.3457 H   0  0  0  0  0  0  0  0  0  0  0  0
    1.8650    0.9111    4.1109 H   0  0  0  0  0  0  0  0  0  0  0  0
  1  2  1  0  0  0  0
  2  3  1  0  0  0  0
  2  4  1  0  0  0  0
  2  5  1  0  0  0  0
  5  6  2  0  0  0  0
  5  7  1  0  0  0  0
  7  8  1  0  0  0  0
  7  9  1  0  0  0  0
  9 10  1  0  0  0  0
  9 11  1  0  0  0  0
  9 19  1  0  0  0  0
 11 12  1  0  0  0  0
 11 13  1  0  0  0  0
 11 17  1  0  0  0  0
 13 14  1  0  0  0  0
 13 15  1  0  0  0  0
 13 16  1  0  0  0  0
 17 18  1  0  0  0  0
 19 20  2  0  0  0  0
 19 21  1  0  0  0  0
 21 22  1  0  0  0  0
 21 23  1  0  0  0  0
 23 24  1  0  0  0  0
 23 25  1  0  0  0  0
 23 26  1  0  0  0  0
M  END
$$$$

  -OEChem-01062216093D

 26 25  0     1  0  0  0  0  0999 V2000
   -2.9470   -2.9433    1.5040 H   0  0  0  0  0  0  0  0  0  0  0  0
   -2.8899   -1.9015    1.1764 C   0  0  0  0  0  0  0  0  0  0  0  0
   -3.0449   -1.2533    2.0424 H   0  0  0  0  0  0  0  0  0  0  0  0
   -3.6772   -1.7168    0.4420 H   0  0  0  0  0  0  0  0  0  0  0  0
   -1.5299   -1.6240    0.5649 C   0  0  0  0  0  0  0  0  0  0  0  0
   -0.7784   -2.5480    0.3000 O   0  0  0  0  0  0  0  0  0  0  0  0
   -1.2360   -0.3696    0.0725 N   0  0  0  0  0  0  0  0  0  0  0  0
   -2.0168    0.2676    0.2024 H   0  0  0  0  0  0  0  0  0  0  0  0
    0.0576    0.3127    0.3070 C   0  0  1  0  0  0  0  0  0  0  0  0
    0.7339   -0.0318   -0.4810 H   0  0  0  0  0  0  0  0  0  0  0  0
   -0.1769    1.8266    0.0859 C   0  0  1  0  0  0  0  0  0  0  0  0
    0.7649    2.3665    0.2250 H   0  0  0  0  0  0  0  0  0  0  0  0
   -0.6722    2.1389   -1.3291 C   0  0  0  0  0  0  0  0  0  0  0  0
   -1.6607    1.7053   -1.5083 H   0  0  0  0  0  0  0  0  0  0  0  0
   -0.7392    3.2212   -1.4751 H   0  0  0  0  0  0  0  0  0  0  0  0
    0.0230    1.7353   -2.0719 H   0  0  0  0  0  0  0  0  0  0  0  0
   -1.1500    2.3089    1.0164 O   0  0  0  0  0  0  0  0  0  0  0  0
   -1.2988    3.2642    0.9009 H   0  0  0  0  0  0  0  0  0  0  0  0
    0.8394    0.0259    1.6305 C   0  0  0  0  0  0  0  0  0  0  0  0
    0.6990   -0.9964    2.2868 O   0  0  0  0  0  0  0  0  0  0  0  0
    1.6548    0.9974    2.1947 N   0  0  0  0  0  0  0  0  0  0  0  0
    1.6698    1.9073    1.7476 H   0  0  0  0  0  0  0  0  0  0  0  0
    2.3097    0.8515    3.4905 C   0  0  0  0  0  0  0  0  0  0  0  0
    2.9515   -0.0358    3.4986 H   0  0  0  0  0  0  0  0  0  0  0  0
    2.9313    1.7269    3.7002 H   0  0  0  0  0  0  0  0  0  0  0  0
    1.5651    0.7558    4.2877 H   0  0  0  0  0  0  0  0  0  0  0  0
  1  2  1  0  0  0  0
  2  3  1  0  0  0  0
  2  4  1  0  0  0  0
  2  5  1  0  0  0  0
  5  6  2  0  0  0  0
  5  7  1  0  0  0  0
  7  8  1  0  0  0  0
  7  9  1  0  0  0  0
  9 10  1  0  0  0  0
  9 11  1  0  0  0  0
  9 19  1  0  0  0  0
 11 12  1  0  0  0  0
 11 13  1  0  0  0  0
 11 17  1  0  0  0  0
 13 14  1  0  0  0  0
 13 15  1  0  0  0  0
 13 16  1  0  0  0  0
 17 18  1  0  0  0  0
 19 20  2  0  0  0  0
 19 21  1  0  0  0  0
 21 22  1  0  0  0  0
 21 23  1  0  0  0  0
 23 24  1  0  0  0  0
 23 25  1  0  0  0  0
 23 26  1  0  0  0  0
M  END
$$$$

  -OEChem-01062216093D

 26 25  0     1  0  0  0  0  0999 V2000
   -2.9571   -2.9203    1.5348 H   0  0  0  0  0  0  0  0  0  0  0  0
   -2.9012   -1.8897    1.1730 C   0  0  0  0  0  0  0  0  0  0  0  0
   -3.0954   -1.2148    2.0099 H   0  0  0  0  0  0  0  0  0  0  0  0
   -3.6644   -1.7416    0.4057 H   0  0  0  0  0  0  0  0  0  0  0  0
   -1.5247   -1.6164    0.5974 C   0  0  0  0  0  0  0  0  0  0  0  0
   -0.7714   -2.5463    0.3701 O   0  0  0  0  0  0  0  0  0  0  0  0
   -1.2285   -0.3658    0.0962 N   0  0  0  0  0  0  0  0  0  0  0  0
   -2.0192    0.2661    0.1843 H   0  0  0  0  0  0  0  0  0  0  0  0
    0.0555    0.3345    0.3276 C   0  0  1  0  0  0  0  0  0  0  0  0
    0.7427   -0.0216   -0.4461 H   0  0  0  0  0  0  0  0  0  0  0  0
   -0.1643    1.8449    0.0790 C   0  0  1  0  0  0  0  0  0  0  0  0
    0.7842    2.3752    0.2173 H   0  0  0  0  0  0  0  0  0  0  0  0
   -0.6458    2.1306   -1.3459 C   0  0  0  0  0  0  0  0  0  0  0  0
   -1.6361    1.7005   -1.5235 H   0  0  0  0  0  0  0  0  0  0  0  0
   -0.7026    3.2099   -1.5155 H   0  0  0  0  0  0  0  0  0  0  0  0
    0.0520    1.7055   -2.0740 H   0  0  0  0  0  0  0  0  0  0  0  0
   -1.1429    2.3558    0.9890 O   0  0  0  0  0  0  0  0  0  0  0  0
   -1.3235    3.2962    0.8091 H   0  0  0  0  0  0  0  0  0  0  0  0
    0.8159    0.0586    1.6615 C   0  0  0  0  0  0  0  0  0  0  0  0
    1.0425   -1.0677    2.0762 O   0  0  0  0  0  0  0  0  0  0  0  0
    1.3536    1.1056    2.3952 N   0  0  0  0  0  0  0  0  0  0  0  0
    1.0072    2.0324    2.1652 H   0  0  0  0  0  0  0  0  0  0  0  0
    2.0377    0.9230    3.6709 C   0  0  0  0  0  0  0  0  0  0  0  0
    2.8935    0.2492    3.5556 H   0  0  0  0  0  0  0  0  0  0  0  0
    2.4061    1.8840    4.0424 H   0  0  0  0  0  0  0  0  0  0  0  0
    1.3541    0.5006    4.4148 H   0  0  0  0  0  0  0  0  0  0  0  0
  1  2  1  0  0  0  0
  2  3  1  0  0  0  0
  2  4  1  0  0  0  0
  2  5  1  0  0  0  0
  5  6  2  0  0  0  0
  5  7  1  0  0  0  0
  7  8  1  0  0  0  0
  7  9  1  0  0  0  0
  9 10  1  0  0  0  0
  9 11  1  0  0  0  0
  9 19  1  0  0  0  0
 11 12  1  0  0  0  0
 11 13  1  0  0  0  0
 11 17  1  0  0  0  0
 13 14  1  0  0  0  0
 13 15  1  0  0  0  0
 13 16  1  0  0  0  0
 17 18  1  0  0  0  0
 19 20  2  0  0  0  0
 19 21  1  0  0  0  0
 21 22  1  0  0  0  0
 21 23  1  0  0  0  0
 23 24  1  0  0  0  0
 23 25  1  0  0  0  0
 23 26  1  0  0  0  0
M  END
$$$$

  -OEChem-01062216093D

 26 25  0     1  0  0  0  0  0999 V2000
   -3.2355   -2.9406    1.3030 H   0  0  0  0  0  0  0  0  0  0  0  0
   -3.1043   -1.9461    0.8669 C   0  0  0  0  0  0  0  0  0  0  0  0
   -3.6144   -1.2160    1.4998 H   0  0  0  0  0  0  0  0  0  0  0  0
   -3.5551   -1.9364   -0.1282 H   0  0  0  0  0  0  0  0  0  0  0  0
   -1.6276   -1.6087    0.7715 C   0  0  0  0  0  0  0  0  0  0  0  0
   -0.8122   -2.4560    1.0757 O   0  0  0  0  0  0  0  0  0  0  0  0
   -1.2613   -0.3795    0.2588 N   0  0  0  0  0  0  0  0  0  0  0  0
   -2.0492    0.2406    0.0995 H   0  0  0  0  0  0  0  0  0  0  0  0
    0.0325    0.3208    0.4366 C   0  0  1  0  0  0  0  0  0  0  0  0
    0.6963   -0.0626   -0.3447 H   0  0  0  0  0  0  0  0  0  0  0  0
   -0.1686    1.8285    0.1548 C   0  0  1  0  0  0  0  0  0  0  0  0
    0.7955    2.3381    0.2643 H   0  0  0  0  0  0  0  0  0  0  0  0
   -0.6703    2.0851   -1.2682 C   0  0  0  0  0  0  0  0  0  0  0  0
   -1.6724    1.6721   -1.4152 H   0  0  0  0  0  0  0  0  0  0  0  0
   -0.7075    3.1603   -1.4665 H   0  0  0  0  0  0  0  0  0  0  0  0
    0.0050    1.6258   -1.9968 H   0  0  0  0  0  0  0  0  0  0  0  0
   -1.1155    2.3943    1.0683 O   0  0  0  0  0  0  0  0  0  0  0  0
   -1.2638    3.3361    0.8670 H   0  0  0  0  0  0  0  0  0  0  0  0
    0.8225    0.0768    1.7531 C   0  0  0  0  0  0  0  0  0  0  0  0
    1.5091   -0.9250    1.8950 O   0  0  0  0  0  0  0  0  0  0  0  0
    1.1066    1.1372    2.5990 N   0  0  0  0  0  0  0  0  0  0  0  0
    0.4864    1.9401    2.5149 H   0  0  0  0  0  0  0  0  0  0  0  0
    1.9433    1.0187    3.7874 C   0  0  0  0  0  0  0  0  0  0  0  0
    2.9657    0.7413    3.5102 H   0  0  0  0  0  0  0  0  0  0  0  0
    1.9781    1.9732    4.3210 H   0  0  0  0  0  0  0  0  0  0  0  0
    1.5425    0.2565    4.4640 H   0  0  0  0  0  0  0  0  0  0  0  0
  1  2  1  0  0  0  0
  2  3  1  0  0  0  0
  2  4  1  0  0  0  0
  2  5  1  0  0  0  0
  5  6  2  0  0  0  0
  5  7  1  0  0  0  0
  7  8  1  0  0  0  0
  7  9  1  0  0  0  0
  9 10  1  0  0  0  0
  9 11  1  0  0  0  0
  9 19  1  0  0  0  0
 11 12  1  0  0  0  0
 11 13  1  0  0  0  0
 11 17  1  0  0  0  0
 13 14  1  0  0  0  0
 13 15  1  0  0  0  0
 13 16  1  0  0  0  0
 17 18  1  0  0  0  0
 19 20  2  0  0  0  0
 19 21  1  0  0  0  0
 21 22  1  0  0  0  0
 21 23  1  0  0  0  0
 23 24  1  0  0  0  0
 23 25  1  0  0  0  0
 23 26  1  0  0  0  0
M  END
$$$$

  -OEChem-01062216093D

 26 25  0     1  0  0  0  0  0999 V2000
   -3.2435   -2.9591    1.2861 H   0  0  0  0  0  0  0  0  0  0  0  0
   -3.1103   -1.9885    0.7996 C   0  0  0  0  0  0  0  0  0  0  0  0
   -3.7090   -1.2448    1.3309 H   0  0  0  0  0  0  0  0  0  0  0  0
   -3.4606   -2.0615   -0.2327 H   0  0  0  0  0  0  0  0  0  0  0  0
   -1.6463   -1.5896    0.8225 C   0  0  0  0  0  0  0  0  0  0  0  0
   -0.8318   -2.3680    1.2780 O   0  0  0  0  0  0  0  0  0  0  0  0
   -1.2831   -0.3674    0.2912 N   0  0  0  0  0  0  0  0  0  0  0  0
   -2.0652    0.2309    0.0451 H   0  0  0  0  0  0  0  0  0  0  0  0
    0.0168    0.3252    0.4446 C   0  0  1  0  0  0  0  0  0  0  0  0
    0.6661   -0.0638   -0.3463 H   0  0  0  0  0  0  0  0  0  0  0  0
   -0.1745    1.8345    0.1675 C   0  0  1  0  0  0  0  0  0  0  0  0
    0.7984    2.3290    0.2713 H   0  0  0  0  0  0  0  0  0  0  0  0
   -0.6887    2.0972   -1.2498 C   0  0  0  0  0  0  0  0  0  0  0  0
   -1.6975    1.6964   -1.3846 H   0  0  0  0  0  0  0  0  0  0  0  0
   -0.7144    3.1728   -1.4483 H   0  0  0  0  0  0  0  0  0  0  0  0
   -0.0274    1.6293   -1.9858 H   0  0  0  0  0  0  0  0  0  0  0  0
   -1.0999    2.4190    1.0932 O   0  0  0  0  0  0  0  0  0  0  0  0
   -1.2143    3.3682    0.9051 H   0  0  0  0  0  0  0  0  0  0  0  0
    0.8150    0.0808    1.7525 C   0  0  0  0  0  0  0  0  0  0  0  0
    1.6739   -0.7907    1.7912 O   0  0  0  0  0  0  0  0  0  0  0  0
    0.8583    1.0518    2.7385 N   0  0  0  0  0  0  0  0  0  0  0  0
    0.1334    1.7659    2.6864 H   0  0  0  0  0  0  0  0  0  0  0  0
    1.6626    0.9397    3.9490 C   0  0  0  0  0  0  0  0  0  0  0  0
    2.7273    0.8826    3.6986 H   0  0  0  0  0  0  0  0  0  0  0  0
    1.5055    1.8130    4.5891 H   0  0  0  0  0  0  0  0  0  0  0  0
    1.3839    0.0418    4.5108 H   0  0  0  0  0  0  0  0  0  0  0  0
  1  2  1  0  0  0  0
  2  3  1  0  0  0  0
  2  4  1  0  0  0  0
  2  5  1  0  0  0  0
  5  6  2  0  0  0  0
  5  7  1  0  0  0  0
  7  8  1  0  0  0  0
  7  9  1  0  0  0  0
  9 10  1  0  0  0  0
  9 11  1  0  0  0  0
  9 19  1  0  0  0  0
 11 12  1  0  0  0  0
 11 13  1  0  0  0  0
 11 17  1  0  0  0  0
 13 14  1  0  0  0  0
 13 15  1  0  0  0  0
 13 16  1  0  0  0  0
 17 18  1  0  0  0  0
 19 20  2  0  0  0  0
 19 21  1  0  0  0  0
 21 22  1  0  0  0  0
 21 23  1  0  0  0  0
 23 24  1  0  0  0  0
 23 25  1  0  0  0  0
 23 26  1  0  0  0  0
M  END
$$$$

  -OEChem-01062216093D

 26 25  0     1  0  0  0  0  0999 V2000
   -3.2255   -2.9824    1.2747 H   0  0  0  0  0  0  0  0  0  0  0  0
   -3.1059   -2.0063    0.7955 C   0  0  0  0  0  0  0  0  0  0  0  0
   -3.7093   -1.2736    1.3366 H   0  0  0  0  0  0  0  0  0  0  0  0
   -3.4623   -2.0747   -0.2351 H   0  0  0  0  0  0  0  0  0  0  0  0
   -1.6464   -1.5915    0.8133 C   0  0  0  0  0  0  0  0  0  0  0  0
   -0.8206   -2.3523    1.2804 O   0  0  0  0  0  0  0  0  0  0  0  0
   -1.2927   -0.3694    0.2757 N   0  0  0  0  0  0  0  0  0  0  0  0
   -2.0754    0.2269    0.0266 H   0  0  0  0  0  0  0  0  0  0  0  0
    0.0081    0.3184    0.4347 C   0  0  1  0  0  0  0  0  0  0  0  0
    0.6583   -0.0681   -0.3568 H   0  0  0  0  0  0  0  0  0  0  0  0
   -0.1746    1.8303    0.1736 C   0  0  1  0  0  0  0  0  0  0  0  0
    0.8017    2.3151    0.2903 H   0  0  0  0  0  0  0  0  0  0  0  0
   -0.6791    2.1132   -1.2429 C   0  0  0  0  0  0  0  0  0  0  0  0
   -1.6903    1.7214   -1.3869 H   0  0  0  0  0  0  0  0  0  0  0  0
   -0.6955    3.1911   -1.4291 H   0  0  0  0  0  0  0  0  0  0  0  0
   -0.0176    1.6487   -1.9808 H   0  0  0  0  0  0  0  0  0  0  0  0
   -1.0972    2.4127    1.1041 O   0  0  0  0  0  0  0  0  0  0  0  0
   -1.1723    3.3721    0.9507 H   0  0  0  0  0  0  0  0  0  0  0  0
    0.7927    0.0675    1.7467 C   0  0  0  0  0  0  0  0  0  0  0  0
    1.7861   -0.6488    1.7352 O   0  0  0  0  0  0  0  0  0  0  0  0
    0.5916    0.8783    2.8495 N   0  0  0  0  0  0  0  0  0  0  0  0
   -0.1977    1.5202    2.7956 H   0  0  0  0  0  0  0  0  0  0  0  0
    1.3642    0.7866    4.0812 C   0  0  0  0  0  0  0  0  0  0  0  0
    2.4190    1.0088    3.8895 H   0  0  0  0  0  0  0  0  0  0  0  0
    0.9877    1.5031    4.8173 H   0  0  0  0  0  0  0  0  0  0  0  0
    1.2868   -0.2198    4.5061 H   0  0  0  0  0  0  0  0  0  0  0  0
  1  2  1  0  0  0  0
  2  3  1  0  0  0  0
  2  4  1  0  0  0  0
  2  5  1  0  0  0  0
  5  6  2  0  0  0  0
  5  7  1  0  0  0  0
  7  8  1  0  0  0  0
  7  9  1  0  0  0  0
  9 10  1  0  0  0  0
  9 11  1  0  0  0  0
  9 19  1  0  0  0  0
 11 12  1  0  0  0  0
 11 13  1  0  0  0  0
 11 17  1  0  0  0  0
 13 14  1  0  0  0  0
 13 15  1  0  0  0  0
 13 16  1  0  0  0  0
 17 18  1  0  0  0  0
 19 20  2  0  0  0  0
 19 21  1  0  0  0  0
 21 22  1  0  0  0  0
 21 23  1  0  0  0  0
 23 24  1  0  0  0  0
 23 25  1  0  0  0  0
 23 26  1  0  0  0  0
M  END
$$$$

  -OEChem-01062216093D

 26 25  0     1  0  0  0  0  0999 V2000
   -3.2220   -3.0010    1.2535 H   0  0  0  0  0  0  0  0  0  0  0  0
   -3.1100   -2.0170    0.7892 C   0  0  0  0  0  0  0  0  0  0  0  0
   -3.7048   -1.2938    1.3521 H   0  0  0  0  0  0  0  0  0  0  0  0
   -3.4820   -2.0679   -0.2369 H   0  0  0  0  0  0  0  0  0  0  0  0
   -1.6506   -1.6018    0.7916 C   0  0  0  0  0  0  0  0  0  0  0  0
   -0.8156   -2.3642    1.2416 O   0  0  0  0  0  0  0  0  0  0  0  0
   -1.2990   -0.3799    0.2525 N   0  0  0  0  0  0  0  0  0  0  0  0
   -2.0807    0.2221    0.0131 H   0  0  0  0  0  0  0  0  0  0  0  0
    0.0042    0.2997    0.4229 C   0  0  1  0  0  0  0  0  0  0  0  0
    0.6588   -0.0821   -0.3674 H   0  0  0  0  0  0  0  0  0  0  0  0
   -0.1669    1.8154    0.1874 C   0  0  1  0  0  0  0  0  0  0  0  0
    0.8127    2.2903    0.3148 H   0  0  0  0  0  0  0  0  0  0  0  0
   -0.6682    2.1272   -1.2238 C   0  0  0  0  0  0  0  0  0  0  0  0
   -1.6827    1.7465   -1.3743 H   0  0  0  0  0  0  0  0  0  0  0  0
   -0.6756    3.2085   -1.3906 H   0  0  0  0  0  0  0  0  0  0  0  0
   -0.0103    1.6699   -1.9695 H   0  0  0  0  0  0  0  0  0  0  0  0
   -1.0865    2.3856    1.1279 O   0  0  0  0  0  0  0  0  0  0  0  0
   -1.1304    3.3521    1.0129 H   0  0  0  0  0  0  0  0  0  0  0  0
    0.7713    0.0394    1.7408 C   0  0  0  0  0  0  0  0  0  0  0  0
    1.8775   -0.4858    1.7076 O   0  0  0  0  0  0  0  0  0  0  0  0
    0.3543    0.6323    2.9187 N   0  0  0  0  0  0  0  0  0  0  0  0
   -0.4831    1.2087    2.8586 H   0  0  0  0  0  0  0  0  0  0  0  0
    1.1055    0.5806    4.1656 C   0  0  0  0  0  0  0  0  0  0  0  0
    2.0640    1.0982    4.0568 H   0  0  0  0  0  0  0  0  0  0  0  0
    0.5389    1.0619    4.9683 H   0  0  0  0  0  0  0  0  0  0  0  0
    1.2960   -0.4587    4.4535 H   0  0  0  0  0  0  0  0  0  0  0  0
  1  2  1  0  0  0  0
  2  3  1  0  0  0  0
  2  4  1  0  0  0  0
  2  5  1  0  0  0  0
  5  6  2  0  0  0  0
  5  7  1  0  0  0  0
  7  8  1  0  0  0  0
  7  9  1  0  0  0  0
  9 10  1  0  0  0  0
  9 11  1  0  0  0  0
  9 19  1  0  0  0  0
 11 12  1  0  0  0  0
 11 13  1  0  0  0  0
 11 17  1  0  0  0  0
 13 14  1  0  0  0  0
 13 15  1  0  0  0  0
 13 16  1  0  0  0  0
 17 18  1  0  0  0  0
 19 20  2  0  0  0  0
 19 21  1  0  0  0  0
 21 22  1  0  0  0  0
 21 23  1  0  0  0  0
 23 24  1  0  0  0  0
 23 25  1  0  0  0  0
 23 26  1  0  0  0  0
M  END
$$$$

  -OEChem-01062216093D

 26 25  0     1  0  0  0  0  0999 V2000
   -3.2190   -2.9990    1.2620 H   0  0  0  0  0  0  0  0  0  0  0  0
   -3.1087   -2.0193    0.7882 C   0  0  0  0  0  0  0  0  0  0  0  0
   -3.6978   -1.2901    1.3493 H   0  0  0  0  0  0  0  0  0  0  0  0
   -3.4891   -2.0784   -0.2343 H   0  0  0  0  0  0  0  0  0  0  0  0
   -1.6482   -1.6079    0.7743 C   0  0  0  0  0  0  0  0  0  0  0  0
   -0.8081   -2.3726    1.2122 O   0  0  0  0  0  0  0  0  0  0  0  0
   -1.2960   -0.3887    0.2294 N   0  0  0  0  0  0  0  0  0  0  0  0
   -2.0762    0.2183   -0.0025 H   0  0  0  0  0  0  0  0  0  0  0  0
    0.0090    0.2863    0.4046 C   0  0  1  0  0  0  0  0  0  0  0  0
    0.6659   -0.0891   -0.3868 H   0  0  0  0  0  0  0  0  0  0  0  0
   -0.1644    1.8031    0.1921 C   0  0  1  0  0  0  0  0  0  0  0  0
    0.8144    2.2784    0.3254 H   0  0  0  0  0  0  0  0  0  0  0  0
   -0.6704    2.1386   -1.2118 C   0  0  0  0  0  0  0  0  0  0  0  0
   -1.6843    1.7584   -1.3669 H   0  0  0  0  0  0  0  0  0  0  0  0
   -0.6807    3.2226   -1.3589 H   0  0  0  0  0  0  0  0  0  0  0  0
   -0.0130    1.6963   -1.9668 H   0  0  0  0  0  0  0  0  0  0  0  0
   -1.0817    2.3484    1.1489 O   0  0  0  0  0  0  0  0  0  0  0  0
   -1.0989    3.3202    1.0840 H   0  0  0  0  0  0  0  0  0  0  0  0
    0.7711    0.0318    1.7245 C   0  0  0  0  0  0  0  0  0  0  0  0
    1.9568   -0.2752    1.6901 O   0  0  0  0  0  0  0  0  0  0  0  0
    0.1973    0.3666    2.9378 N   0  0  0  0  0  0  0  0  0  0  0  0
   -0.7210    0.8014    2.8953 H   0  0  0  0  0  0  0  0  0  0  0  0
    0.9029    0.3033    4.2100 C   0  0  0  0  0  0  0  0  0  0  0  0
    1.7460    1.0016    4.2160 H   0  0  0  0  0  0  0  0  0  0  0  0
    0.2277    0.5655    5.0297 H   0  0  0  0  0  0  0  0  0  0  0  0
    1.2815   -0.7092    4.3855 H   0  0  0  0  0  0  0  0  0  0  0  0
  1  2  1  0  0  0  0
  2  3  1  0  0  0  0
  2  4  1  0  0  0  0
  2  5  1  0  0  0  0
  5  6  2  0  0  0  0
  5  7  1  0  0  0  0
  7  8  1  0  0  0  0
  7  9  1  0  0  0  0
  9 10  1  0  0  0  0
  9 11  1  0  0  0  0
  9 19  1  0  0  0  0
 11 12  1  0  0  0  0
 11 13  1  0  0  0  0
 11 17  1  0  0  0  0
 13 14  1  0  0  0  0
 13 15  1  0  0  0  0
 13 16  1  0  0  0  0
 17 18  1  0  0  0  0
 19 20  2  0  0  0  0
 19 21  1  0  0  0  0
 21 22  1  0  0  0  0
 21 23  1  0  0  0  0
 23 24  1  0  0  0  0
 23 25  1  0  0  0  0
 23 26  1  0  0  0  0
M  END
$$$$

  -OEChem-01062216093D

 26 25  0     1  0  0  0  0  0999 V2000
   -3.2315   -2.9733    1.2823 H   0  0  0  0  0  0  0  0  0  0  0  0
   -3.1089   -2.0167    0.7661 C   0  0  0  0  0  0  0  0  0  0  0  0
   -3.7265   -1.2665    1.2656 H   0  0  0  0  0  0  0  0  0  0  0  0
   -3.4467   -2.1294   -0.2669 H   0  0  0  0  0  0  0  0  0  0  0  0
   -1.6524   -1.5924    0.7907 C   0  0  0  0  0  0  0  0  0  0  0  0
   -0.8196   -2.3371    1.2751 O   0  0  0  0  0  0  0  0  0  0  0  0
   -1.2930   -0.3815    0.2338 N   0  0  0  0  0  0  0  0  0  0  0  0
   -2.0691    0.2149   -0.0370 H   0  0  0  0  0  0  0  0  0  0  0  0
    0.0080    0.3036    0.4075 C   0  0  1  0  0  0  0  0  0  0  0  0
    0.6700   -0.0764   -0.3771 H   0  0  0  0  0  0  0  0  0  0  0  0
   -0.1797    1.8153    0.1787 C   0  0  1  0  0  0  0  0  0  0  0  0
    0.7926    2.3040    0.3117 H   0  0  0  0  0  0  0  0  0  0  0  0
   -0.6862    2.1349   -1.2294 C   0  0  0  0  0  0  0  0  0  0  0  0
   -1.6906    1.7324   -1.3890 H   0  0  0  0  0  0  0  0  0  0  0  0
   -0.7199    3.2179   -1.3804 H   0  0  0  0  0  0  0  0  0  0  0  0
   -0.0152    1.7048   -1.9794 H   0  0  0  0  0  0  0  0  0  0  0  0
   -1.1059    2.3520    1.1300 O   0  0  0  0  0  0  0  0  0  0  0  0
   -1.0948    3.3253    1.1029 H   0  0  0  0  0  0  0  0  0  0  0  0
    0.7794    0.0892    1.7297 C   0  0  0  0  0  0  0  0  0  0  0  0
    2.0033    0.0298    1.7035 O   0  0  0  0  0  0  0  0  0  0  0  0
    0.1343    0.1453    2.9526 N   0  0  0  0  0  0  0  0  0  0  0  0
   -0.8776    0.2189    2.9292 H   0  0  0  0  0  0  0  0  0  0  0  0
    0.8050   -0.0592    4.2291 C   0  0  0  0  0  0  0  0  0  0  0  0
    1.6157    0.6654    4.3581 H   0  0  0  0  0  0  0  0  0  0  0  0
    0.0954    0.0674    5.0522 H   0  0  0  0  0  0  0  0  0  0  0  0
    1.2222   -1.0702    4.2824 H   0  0  0  0  0  0  0  0  0  0  0  0
  1  2  1  0  0  0  0
  2  3  1  0  0  0  0
  2  4  1  0  0  0  0
  2  5  1  0  0  0  0
  5  6  2  0  0  0  0
  5  7  1  0  0  0  0
  7  8  1  0  0  0  0
  7  9  1  0  0  0  0
  9 10  1  0  0  0  0
  9 11  1  0  0  0  0
  9 19  1  0  0  0  0
 11 12  1  0  0  0  0
 11 13  1  0  0  0  0
 11 17  1  0  0  0  0
 13 14  1  0  0  0  0
 13 15  1  0  0  0  0
 13 16  1  0  0  0  0
 17 18  1  0  0  0  0
 19 20  2  0  0  0  0
 19 21  1  0  0  0  0
 21 22  1  0  0  0  0
 21 23  1  0  0  0  0
 23 24  1  0  0  0  0
 23 25  1  0  0  0  0
 23 26  1  0  0  0  0
M  END
$$$$

  -OEChem-01062216093D

 26 25  0     1  0  0  0  0  0999 V2000
   -3.3256   -2.9630    1.1760 H   0  0  0  0  0  0  0  0  0  0  0  0
   -3.1697   -2.0009    0.6795 C   0  0  0  0  0  0  0  0  0  0  0  0
   -3.8048   -1.2516    1.1584 H   0  0  0  0  0  0  0  0  0  0  0  0
   -3.4581   -2.0968   -0.3700 H   0  0  0  0  0  0  0  0  0  0  0  0
   -1.7127   -1.5896    0.7807 C   0  0  0  0  0  0  0  0  0  0  0  0
   -0.9179   -2.3295    1.3317 O   0  0  0  0  0  0  0  0  0  0  0  0
   -1.3132   -0.3851    0.2400 N   0  0  0  0  0  0  0  0  0  0  0  0
   -2.0710    0.2156   -0.0715 H   0  0  0  0  0  0  0  0  0  0  0  0
   -0.0107    0.2942    0.4371 C   0  0  1  0  0  0  0  0  0  0  0  0
    0.6594   -0.0912   -0.3376 H   0  0  0  0  0  0  0  0  0  0  0  0
   -0.1984    1.8049    0.1933 C   0  0  1  0  0  0  0  0  0  0  0  0
    0.7680    2.3008    0.3411 H   0  0  0  0  0  0  0  0  0  0  0  0
   -0.6779    2.1170   -1.2257 C   0  0  0  0  0  0  0  0  0  0  0  0
   -1.6793    1.7143   -1.4026 H   0  0  0  0  0  0  0  0  0  0  0  0
   -0.7085    3.1993   -1.3821 H   0  0  0  0  0  0  0  0  0  0  0  0
    0.0075    1.6836   -1.9603 H   0  0  0  0  0  0  0  0  0  0  0  0
   -1.1444    2.3414    1.1236 O   0  0  0  0  0  0  0  0  0  0  0  0
   -1.1130    3.3142    1.1179 H   0  0  0  0  0  0  0  0  0  0  0  0
    0.7661    0.1041    1.7629 C   0  0  0  0  0  0  0  0  0  0  0  0
    1.9726    0.3237    1.7667 O   0  0  0  0  0  0  0  0  0  0  0  0
    0.1276   -0.1320    2.9677 N   0  0  0  0  0  0  0  0  0  0  0  0
   -0.8158   -0.4987    2.8884 H   0  0  0  0  0  0  0  0  0  0  0  0
    0.8510   -0.3645    4.2106 C   0  0  0  0  0  0  0  0  0  0  0  0
    1.4973    0.4879    4.4446 H   0  0  0  0  0  0  0  0  0  0  0  0
    0.1466   -0.4979    5.0371 H   0  0  0  0  0  0  0  0  0  0  0  0
    1.4688   -1.2651    4.1304 H   0  0  0  0  0  0  0  0  0  0  0  0
  1  2  1  0  0  0  0
  2  3  1  0  0  0  0
  2  4  1  0  0  0  0
  2  5  1  0  0  0  0
  5  6  2  0  0  0  0
  5  7  1  0  0  0  0
  7  8  1  0  0  0  0
  7  9  1  0  0  0  0
  9 10  1  0  0  0  0
  9 11  1  0  0  0  0
  9 19  1  0  0  0  0
 11 12  1  0  0  0  0
 11 13  1  0  0  0  0
 11 17  1  0  0  0  0
 13 14  1  0  0  0  0
 13 15  1  0  0  0  0
 13 16  1  0  0  0  0
 17 18  1  0  0  0  0
 19 20  2  0  0  0  0
 19 21  1  0  0  0  0
 21 22  1  0  0  0  0
 21 23  1  0  0  0  0
 23 24  1  0  0  0  0
 23 25  1  0  0  0  0
 23 26  1  0  0  0  0
M  END
$$$$

  -OEChem-01062216093D

 26 25  0     1  0  0  0  0  0999 V2000
   -3.4106   -2.9238    1.1164 H   0  0  0  0  0  0  0  0  0  0  0  0
   -3.2225   -1.9643    0.6261 C   0  0  0  0  0  0  0  0  0  0  0  0
   -3.8345   -1.1980    1.1081 H   0  0  0  0  0  0  0  0  0  0  0  0
   -3.5107   -2.0439   -0.4249 H   0  0  0  0  0  0  0  0  0  0  0  0
   -1.7537   -1.6000    0.7334 C   0  0  0  0  0  0  0  0  0  0  0  0
   -0.9790   -2.3815    1.2561 O   0  0  0  0  0  0  0  0  0  0  0  0
   -1.3207   -0.3936    0.2248 N   0  0  0  0  0  0  0  0  0  0  0  0
   -2.0703    0.2320   -0.0569 H   0  0  0  0  0  0  0  0  0  0  0  0
   -0.0170    0.2770    0.4528 C   0  0  1  0  0  0  0  0  0  0  0  0
    0.6622   -0.1025   -0.3164 H   0  0  0  0  0  0  0  0  0  0  0  0
   -0.2147    1.7892    0.2093 C   0  0  1  0  0  0  0  0  0  0  0  0
    0.7419    2.2990    0.3719 H   0  0  0  0  0  0  0  0  0  0  0  0
   -0.6745    2.1029   -1.2164 C   0  0  0  0  0  0  0  0  0  0  0  0
   -1.6707    1.6953   -1.4101 H   0  0  0  0  0  0  0  0  0  0  0  0
   -0.7092    3.1856   -1.3696 H   0  0  0  0  0  0  0  0  0  0  0  0
    0.0247    1.6761   -1.9419 H   0  0  0  0  0  0  0  0  0  0  0  0
   -1.1827    2.3101    1.1254 O   0  0  0  0  0  0  0  0  0  0  0  0
   -1.1502    3.2827    1.1380 H   0  0  0  0  0  0  0  0  0  0  0  0
    0.7601    0.0852    1.7825 C   0  0  0  0  0  0  0  0  0  0  0  0
    1.9040    0.5233    1.8522 O   0  0  0  0  0  0  0  0  0  0  0  0
    0.1899   -0.4455    2.9259 N   0  0  0  0  0  0  0  0  0  0  0  0
   -0.6019   -1.0606    2.7462 H   0  0  0  0  0  0  0  0  0  0  0  0
    0.9483   -0.6683    4.1501 C   0  0  0  0  0  0  0  0  0  0  0  0
    1.3870    0.2694    4.5068 H   0  0  0  0  0  0  0  0  0  0  0  0
    0.2917   -1.0587    4.9333 H   0  0  0  0  0  0  0  0  0  0  0  0
    1.7525   -1.3907    3.9761 H   0  0  0  0  0  0  0  0  0  0  0  0
  1  2  1  0  0  0  0
  2  3  1  0  0  0  0
  2  4  1  0  0  0  0
  2  5  1  0  0  0  0
  5  6  2  0  0  0  0
  5  7  1  0  0  0  0
  7  8  1  0  0  0  0
  7  9  1  0  0  0  0
  9 10  1  0  0  0  0
  9 11  1  0  0  0  0
  9 19  1  0  0  0  0
 11 12  1  0  0  0  0
 11 13  1  0  0  0  0
 11 17  1  0  0  0  0
 13 14  1  0  0  0  0
 13 15  1  0  0  0  0
 13 16  1  0  0  0  0
 17 18  1  0  0  0  0
 19 20  2  0  0  0  0
 19 21  1  0  0  0  0
 21 22  1  0  0  0  0
 21 23  1  0  0  0  0
 23 24  1  0  0  0  0
 23 25  1  0  0  0  0
 23 26  1  0  0  0  0
M  END
$$$$

  -OEChem-01062216093D

 26 25  0     1  0  0  0  0  0999 V2000
   -3.4552   -2.8903    1.0924 H   0  0  0  0  0  0  0  0  0  0  0  0
   -3.2520   -1.9256    0.6187 C   0  0  0  0  0  0  0  0  0  0  0  0
   -3.8213   -1.1523    1.1401 H   0  0  0  0  0  0  0  0  0  0  0  0
   -3.5785   -1.9693   -0.4233 H   0  0  0  0  0  0  0  0  0  0  0  0
   -1.7690   -1.6118    0.6829 C   0  0  0  0  0  0  0  0  0  0  0  0
   -0.9964   -2.4525    1.1097 O   0  0  0  0  0  0  0  0  0  0  0  0
   -1.3177   -0.4010    0.2018 N   0  0  0  0  0  0  0  0  0  0  0  0
   -2.0667    0.2481   -0.0244 H   0  0  0  0  0  0  0  0  0  0  0  0
   -0.0156    0.2646    0.4577 C   0  0  1  0  0  0  0  0  0  0  0  0
    0.6732   -0.1057   -0.3072 H   0  0  0  0  0  0  0  0  0  0  0  0
   -0.2290    1.7774    0.2156 C   0  0  1  0  0  0  0  0  0  0  0  0
    0.7162    2.3030    0.3911 H   0  0  0  0  0  0  0  0  0  0  0  0
   -0.6721    2.0930   -1.2153 C   0  0  0  0  0  0  0  0  0  0  0  0
   -1.6599    1.6742   -1.4266 H   0  0  0  0  0  0  0  0  0  0  0  0
   -0.7186    3.1759   -1.3631 H   0  0  0  0  0  0  0  0  0  0  0  0
    0.0433    1.6794   -1.9326 H   0  0  0  0  0  0  0  0  0  0  0  0
   -1.2183    2.2798    1.1198 O   0  0  0  0  0  0  0  0  0  0  0  0
   -1.1875    3.2522    1.1498 H   0  0  0  0  0  0  0  0  0  0  0  0
    0.7566    0.0659    1.7938 C   0  0  0  0  0  0  0  0  0  0  0  0
    1.8129    0.6703    1.9510 O   0  0  0  0  0  0  0  0  0  0  0  0
    0.3121   -0.7270    2.8364 N   0  0  0  0  0  0  0  0  0  0  0  0
   -0.3738   -1.4333    2.5684 H   0  0  0  0  0  0  0  0  0  0  0  0
    1.0978   -0.9711    4.0395 C   0  0  0  0  0  0  0  0  0  0  0  0
    1.3308   -0.0276    4.5440 H   0  0  0  0  0  0  0  0  0  0  0  0
    0.5349   -1.6015    4.7343 H   0  0  0  0  0  0  0  0  0  0  0  0
    2.0350   -1.4788    3.7891 H   0  0  0  0  0  0  0  0  0  0  0  0
  1  2  1  0  0  0  0
  2  3  1  0  0  0  0
  2  4  1  0  0  0  0
  2  5  1  0  0  0  0
  5  6  2  0  0  0  0
  5  7  1  0  0  0  0
  7  8  1  0  0  0  0
  7  9  1  0  0  0  0
  9 10  1  0  0  0  0
  9 11  1  0  0  0  0
  9 19  1  0  0  0  0
 11 12  1  0  0  0  0
 11 13  1  0  0  0  0
 11 17  1  0  0  0  0
 13 14  1  0  0  0  0
 13 15  1  0  0  0  0
 13 16  1  0  0  0  0
 17 18  1  0  0  0  0
 19 20  2  0  0  0  0
 19 21  1  0  0  0  0
 21 22  1  0  0  0  0
 21 23  1  0  0  0  0
 23 24  1  0  0  0  0
 23 25  1  0  0  0  0
 23 26  1  0  0  0  0
M  END
$$$$

  -OEChem-01062216093D

 26 25  0     1  0  0  0  0  0999 V2000
   -3.5259   -2.7906    1.2687 H   0  0  0  0  0  0  0  0  0  0  0  0
   -3.3110   -1.8415    0.7696 C   0  0  0  0  0  0  0  0  0  0  0  0
   -3.7991   -1.0359    1.3236 H   0  0  0  0  0  0  0  0  0  0  0  0
   -3.7175   -1.8761   -0.2441 H   0  0  0  0  0  0  0  0  0  0  0  0
   -1.8137   -1.6031    0.7182 C   0  0  0  0  0  0  0  0  0  0  0  0
   -1.0521   -2.4989    1.0414 O   0  0  0  0  0  0  0  0  0  0  0  0
   -1.3423   -0.4102    0.2130 N   0  0  0  0  0  0  0  0  0  0  0  0
   -2.0829    0.2655    0.0413 H   0  0  0  0  0  0  0  0  0  0  0  0
   -0.0214    0.2308    0.4345 C   0  0  1  0  0  0  0  0  0  0  0  0
    0.6457   -0.1691   -0.3347 H   0  0  0  0  0  0  0  0  0  0  0  0
   -0.2206    1.7400    0.1521 C   0  0  1  0  0  0  0  0  0  0  0  0
    0.7322    2.2617    0.2947 H   0  0  0  0  0  0  0  0  0  0  0  0
   -0.6822    2.0203   -1.2807 C   0  0  0  0  0  0  0  0  0  0  0  0
   -1.6807    1.6133   -1.4644 H   0  0  0  0  0  0  0  0  0  0  0  0
   -0.7118    3.0991   -1.4602 H   0  0  0  0  0  0  0  0  0  0  0  0
    0.0142    1.5727   -1.9964 H   0  0  0  0  0  0  0  0  0  0  0  0
   -1.1908    2.2768    1.0578 O   0  0  0  0  0  0  0  0  0  0  0  0
   -1.1249    3.2475    1.0874 H   0  0  0  0  0  0  0  0  0  0  0  0
    0.7754    0.0370    1.7609 C   0  0  0  0  0  0  0  0  0  0  0  0
    1.7347    0.7681    1.9866 O   0  0  0  0  0  0  0  0  0  0  0  0
    0.5031   -0.9420    2.6988 N   0  0  0  0  0  0  0  0  0  0  0  0
   -0.1204   -1.6870    2.3845 H   0  0  0  0  0  0  0  0  0  0  0  0
    1.3420   -1.1994    3.8628 C   0  0  0  0  0  0  0  0  0  0  0  0
    1.4352   -0.2978    4.4770 H   0  0  0  0  0  0  0  0  0  0  0  0
    0.8992   -1.9890    4.4773 H   0  0  0  0  0  0  0  0  0  0  0  0
    2.3416   -1.5198    3.5514 H   0  0  0  0  0  0  0  0  0  0  0  0
  1  2  1  0  0  0  0
  2  3  1  0  0  0  0
  2  4  1  0  0  0  0
  2  5  1  0  0  0  0
  5  6  2  0  0  0  0
  5  7  1  0  0  0  0
  7  8  1  0  0  0  0
  7  9  1  0  0  0  0
  9 10  1  0  0  0  0
  9 11  1  0  0  0  0
  9 19  1  0  0  0  0
 11 12  1  0  0  0  0
 11 13  1  0  0  0  0
 11 17  1  0  0  0  0
 13 14  1  0  0  0  0
 13 15  1  0  0  0  0
 13 16  1  0  0  0  0
 17 18  1  0  0  0  0
 19 20  2  0  0  0  0
 19 21  1  0  0  0  0
 21 22  1  0  0  0  0
 21 23  1  0  0  0  0
 23 24  1  0  0  0  0
 23 25  1  0  0  0  0
 23 26  1  0  0  0  0
M  END
$$$$

  -OEChem-01062216093D

 26 25  0     1  0  0  0  0  0999 V2000
   -2.8998   -2.9950    1.7741 H   0  0  0  0  0  0  0  0  0  0  0  0
   -2.8698   -1.9868    1.3515 C   0  0  0  0  0  0  0  0  0  0  0  0
   -3.1285   -1.2701    2.1347 H   0  0  0  0  0  0  0  0  0  0  0  0
   -3.6056   -1.9198    0.5466 H   0  0  0  0  0  0  0  0  0  0  0  0
   -1.4839   -1.6885    0.8115 C   0  0  0  0  0  0  0  0  0  0  0  0
   -0.6702   -2.5891    0.7091 O   0  0  0  0  0  0  0  0  0  0  0  0
   -1.2160   -0.4481    0.2791 N   0  0  0  0  0  0  0  0  0  0  0  0
   -1.9904    0.2004    0.3948 H   0  0  0  0  0  0  0  0  0  0  0  0
    0.0951    0.2421    0.2588 C   0  0  1  0  0  0  0  0  0  0  0  0
    0.5920   -0.0846   -0.6596 H   0  0  0  0  0  0  0  0  0  0  0  0
   -0.2234    1.7511    0.1259 C   0  0  1  0  0  0  0  0  0  0  0  0
    0.7131    2.3188    0.0960 H   0  0  0  0  0  0  0  0  0  0  0  0
   -0.9971    2.0853   -1.1528 C   0  0  0  0  0  0  0  0  0  0  0  0
   -1.9938    1.6346   -1.1448 H   0  0  0  0  0  0  0  0  0  0  0  0
   -1.1102    3.1691   -1.2503 H   0  0  0  0  0  0  0  0  0  0  0  0
   -0.4547    1.7171   -2.0290 H   0  0  0  0  0  0  0  0  0  0  0  0
   -0.9978    2.1782    1.2527 O   0  0  0  0  0  0  0  0  0  0  0  0
   -1.0248    3.1507    1.2922 H   0  0  0  0  0  0  0  0  0  0  0  0
    1.1845    0.0500    1.3623 C   0  0  0  0  0  0  0  0  0  0  0  0
    2.1876    0.7489    1.3072 O   0  0  0  0  0  0  0  0  0  0  0  0
    1.4436   -1.0487    2.1492 N   0  0  0  0  0  0  0  0  0  0  0  0
    2.4252   -1.0636    2.4125 H   0  0  0  0  0  0  0  0  0  0  0  0
    0.5320   -1.4141    3.2261 C   0  0  0  0  0  0  0  0  0  0  0  0
   -0.3927   -0.8297    3.1865 H   0  0  0  0  0  0  0  0  0  0  0  0
    0.2808   -2.4778    3.1676 H   0  0  0  0  0  0  0  0  0  0  0  0
    1.0073   -1.2246    4.1934 H   0  0  0  0  0  0  0  0  0  0  0  0
  1  2  1  0  0  0  0
  2  3  1  0  0  0  0
  2  4  1  0  0  0  0
  2  5  1  0  0  0  0
  5  6  2  0  0  0  0
  5  7  1  0  0  0  0
  7  8  1  0  0  0  0
  7  9  1  0  0  0  0
  9 10  1  0  0  0  0
  9 11  1  0  0  0  0
  9 19  1  0  0  0  0
 11 12  1  0  0  0  0
 11 13  1  0  0  0  0
 11 17  1  0  0  0  0
 13 14  1  0  0  0  0
 13 15  1  0  0  0  0
 13 16  1  0  0  0  0
 17 18  1  0  0  0  0
 19 20  2  0  0  0  0
 19 21  1  0  0  0  0
 21 22  1  0  0  0  0
 21 23  1  0  0  0  0
 23 24  1  0  0  0  0
 23 25  1  0  0  0  0
 23 26  1  0  0  0  0
M  END
$$$$

  -OEChem-01062216093D

 26 25  0     1  0  0  0  0  0999 V2000
   -3.3604   -2.9100    1.1579 H   0  0  0  0  0  0  0  0  0  0  0  0
   -3.1982   -1.8965    0.7798 C   0  0  0  0  0  0  0  0  0  0  0  0
   -3.6288   -1.1845    1.4883 H   0  0  0  0  0  0  0  0  0  0  0  0
   -3.7046   -1.7949   -0.1832 H   0  0  0  0  0  0  0  0  0  0  0  0
   -1.7138   -1.6301    0.6165 C   0  0  0  0  0  0  0  0  0  0  0  0
   -0.9209   -2.5442    0.7696 O   0  0  0  0  0  0  0  0  0  0  0  0
   -1.2956   -0.3961    0.1652 N   0  0  0  0  0  0  0  0  0  0  0  0
   -2.0599    0.2722    0.0952 H   0  0  0  0  0  0  0  0  0  0  0  0
    0.0063    0.2695    0.4149 C   0  0  1  0  0  0  0  0  0  0  0  0
    0.6851   -0.0801   -0.3682 H   0  0  0  0  0  0  0  0  0  0  0  0
   -0.2300    1.7814    0.1816 C   0  0  1  0  0  0  0  0  0  0  0  0
    0.7116    2.3163    0.3481 H   0  0  0  0  0  0  0  0  0  0  0  0
   -0.6919    2.1020   -1.2426 C   0  0  0  0  0  0  0  0  0  0  0  0
   -1.6792    1.6769   -1.4446 H   0  0  0  0  0  0  0  0  0  0  0  0
   -0.7487    3.1856   -1.3825 H   0  0  0  0  0  0  0  0  0  0  0  0
    0.0177    1.6985   -1.9712 H   0  0  0  0  0  0  0  0  0  0  0  0
   -1.2182    2.2634    1.0986 O   0  0  0  0  0  0  0  0  0  0  0  0
   -1.1047    3.2191    1.2444 H   0  0  0  0  0  0  0  0  0  0  0  0
    0.7946    0.0090    1.7365 C   0  0  0  0  0  0  0  0  0  0  0  0
    1.3852    0.9262    2.2982 O   0  0  0  0  0  0  0  0  0  0  0  0
    0.9725   -1.2536    2.2688 N   0  0  0  0  0  0  0  0  0  0  0  0
    0.4846   -2.0198    1.7989 H   0  0  0  0  0  0  0  0  0  0  0  0
    1.7307   -1.5411    3.4795 C   0  0  0  0  0  0  0  0  0  0  0  0
    1.3023   -1.0091    4.3352 H   0  0  0  0  0  0  0  0  0  0  0  0
    1.7058   -2.6143    3.6914 H   0  0  0  0  0  0  0  0  0  0  0  0
    2.7756   -1.2367    3.3595 H   0  0  0  0  0  0  0  0  0  0  0  0
  1  2  1  0  0  0  0
  2  3  1  0  0  0  0
  2  4  1  0  0  0  0
  2  5  1  0  0  0  0
  5  6  2  0  0  0  0
  5  7  1  0  0  0  0
  7  8  1  0  0  0  0
  7  9  1  0  0  0  0
  9 10  1  0  0  0  0
  9 11  1  0  0  0  0
  9 19  1  0  0  0  0
 11 12  1  0  0  0  0
 11 13  1  0  0  0  0
 11 17  1  0  0  0  0
 13 14  1  0  0  0  0
 13 15  1  0  0  0  0
 13 16  1  0  0  0  0
 17 18  1  0  0  0  0
 19 20  2  0  0  0  0
 19 21  1  0  0  0  0
 21 22  1  0  0  0  0
 21 23  1  0  0  0  0
 23 24  1  0  0  0  0
 23 25  1  0  0  0  0
 23 26  1  0  0  0  0
M  END
$$$$

  -OEChem-01062216093D

 26 25  0     1  0  0  0  0  0999 V2000
   -3.2937   -2.8726    1.2725 H   0  0  0  0  0  0  0  0  0  0  0  0
   -3.1500   -1.8786    0.8394 C   0  0  0  0  0  0  0  0  0  0  0  0
   -3.6001   -1.1379    1.5050 H   0  0  0  0  0  0  0  0  0  0  0  0
   -3.6525   -1.8408   -0.1303 H   0  0  0  0  0  0  0  0  0  0  0  0
   -1.6706   -1.5908    0.6674 C   0  0  0  0  0  0  0  0  0  0  0  0
   -0.8588   -2.4783    0.8691 O   0  0  0  0  0  0  0  0  0  0  0  0
   -1.2762   -0.3720    0.1553 N   0  0  0  0  0  0  0  0  0  0  0  0
   -2.0480    0.2822    0.0409 H   0  0  0  0  0  0  0  0  0  0  0  0
    0.0334    0.3032    0.3200 C   0  0  1  0  0  0  0  0  0  0  0  0
    0.6807   -0.0605   -0.4834 H   0  0  0  0  0  0  0  0  0  0  0  0
   -0.1899    1.8158    0.0864 C   0  0  1  0  0  0  0  0  0  0  0  0
    0.7666    2.3412    0.1886 H   0  0  0  0  0  0  0  0  0  0  0  0
   -0.7400    2.1203   -1.3089 C   0  0  0  0  0  0  0  0  0  0  0  0
   -1.7395    1.6973   -1.4435 H   0  0  0  0  0  0  0  0  0  0  0  0
   -0.8038    3.2030   -1.4534 H   0  0  0  0  0  0  0  0  0  0  0  0
   -0.0785    1.7084   -2.0767 H   0  0  0  0  0  0  0  0  0  0  0  0
   -1.1133    2.3152    1.0557 O   0  0  0  0  0  0  0  0  0  0  0  0
   -0.6935    2.2594    1.9393 H   0  0  0  0  0  0  0  0  0  0  0  0
    0.8443    0.0565    1.6269 C   0  0  0  0  0  0  0  0  0  0  0  0
    1.0932    0.9939    2.3804 O   0  0  0  0  0  0  0  0  0  0  0  0
    1.2719   -1.2004    2.0078 N   0  0  0  0  0  0  0  0  0  0  0  0
    0.8388   -1.9796    1.5045 H   0  0  0  0  0  0  0  0  0  0  0  0
    1.9090   -1.4823    3.2880 C   0  0  0  0  0  0  0  0  0  0  0  0
    1.2368   -1.2317    4.1152 H   0  0  0  0  0  0  0  0  0  0  0  0
    2.1607   -2.5450    3.3556 H   0  0  0  0  0  0  0  0  0  0  0  0
    2.8319   -0.9027    3.3932 H   0  0  0  0  0  0  0  0  0  0  0  0
  1  2  1  0  0  0  0
  2  3  1  0  0  0  0
  2  4  1  0  0  0  0
  2  5  1  0  0  0  0
  5  6  2  0  0  0  0
  5  7  1  0  0  0  0
  7  8  1  0  0  0  0
  7  9  1  0  0  0  0
  9 10  1  0  0  0  0
  9 11  1  0  0  0  0
  9 19  1  0  0  0  0
 11 12  1  0  0  0  0
 11 13  1  0  0  0  0
 11 17  1  0  0  0  0
 13 14  1  0  0  0  0
 13 15  1  0  0  0  0
 13 16  1  0  0  0  0
 17 18  1  0  0  0  0
 19 20  2  0  0  0  0
 19 21  1  0  0  0  0
 21 22  1  0  0  0  0
 21 23  1  0  0  0  0
 23 24  1  0  0  0  0
 23 25  1  0  0  0  0
 23 26  1  0  0  0  0
M  END
$$$$

  -OEChem-01062216093D

 26 25  0     1  0  0  0  0  0999 V2000
   -3.2005   -2.8804    1.3621 H   0  0  0  0  0  0  0  0  0  0  0  0
   -3.0919   -1.9002    0.8892 C   0  0  0  0  0  0  0  0  0  0  0  0
   -3.5595   -1.1483    1.5297 H   0  0  0  0  0  0  0  0  0  0  0  0
   -3.6038   -1.9158   -0.0761 H   0  0  0  0  0  0  0  0  0  0  0  0
   -1.6237   -1.5733    0.6922 C   0  0  0  0  0  0  0  0  0  0  0  0
   -0.7786   -2.4249    0.9147 O   0  0  0  0  0  0  0  0  0  0  0  0
   -1.2670   -0.3568    0.1479 N   0  0  0  0  0  0  0  0  0  0  0  0
   -2.0484    0.2871    0.0410 H   0  0  0  0  0  0  0  0  0  0  0  0
    0.0397    0.3213    0.3006 C   0  0  1  0  0  0  0  0  0  0  0  0
    0.6896   -0.0424   -0.5006 H   0  0  0  0  0  0  0  0  0  0  0  0
   -0.1797    1.8338    0.0705 C   0  0  1  0  0  0  0  0  0  0  0  0
    0.7811    2.3510    0.1750 H   0  0  0  0  0  0  0  0  0  0  0  0
   -0.7322    2.1449   -1.3219 C   0  0  0  0  0  0  0  0  0  0  0  0
   -1.7307    1.7195   -1.4566 H   0  0  0  0  0  0  0  0  0  0  0  0
   -0.7992    3.2282   -1.4604 H   0  0  0  0  0  0  0  0  0  0  0  0
   -0.0712    1.7388   -2.0932 H   0  0  0  0  0  0  0  0  0  0  0  0
   -1.0941    2.3371    1.0463 O   0  0  0  0  0  0  0  0  0  0  0  0
   -0.6892    2.2232    1.9330 H   0  0  0  0  0  0  0  0  0  0  0  0
    0.8275    0.0713    1.6175 C   0  0  0  0  0  0  0  0  0  0  0  0
    0.8997    0.9508    2.4726 O   0  0  0  0  0  0  0  0  0  0  0  0
    1.4875   -1.1218    1.8404 N   0  0  0  0  0  0  0  0  0  0  0  0
    1.1263   -1.9069    1.2930 H   0  0  0  0  0  0  0  0  0  0  0  0
    2.1506   -1.4327    3.1006 C   0  0  0  0  0  0  0  0  0  0  0  0
    1.4290   -1.4336    3.9240 H   0  0  0  0  0  0  0  0  0  0  0  0
    2.6170   -2.4210    3.0455 H   0  0  0  0  0  0  0  0  0  0  0  0
    2.9316   -0.6959    3.3155 H   0  0  0  0  0  0  0  0  0  0  0  0
  1  2  1  0  0  0  0
  2  3  1  0  0  0  0
  2  4  1  0  0  0  0
  2  5  1  0  0  0  0
  5  6  2  0  0  0  0
  5  7  1  0  0  0  0
  7  8  1  0  0  0  0
  7  9  1  0  0  0  0
  9 10  1  0  0  0  0
  9 11  1  0  0  0  0
  9 19  1  0  0  0  0
 11 12  1  0  0  0  0
 11 13  1  0  0  0  0
 11 17  1  0  0  0  0
 13 14  1  0  0  0  0
 13 15  1  0  0  0  0
 13 16  1  0  0  0  0
 17 18  1  0  0  0  0
 19 20  2  0  0  0  0
 19 21  1  0  0  0  0
 21 22  1  0  0  0  0
 21 23  1  0  0  0  0
 23 24  1  0  0  0  0
 23 25  1  0  0  0  0
 23 26  1  0  0  0  0
M  END
$$$$

  -OEChem-01062216093D

 26 25  0     1  0  0  0  0  0999 V2000
   -3.1064   -2.8989    1.4239 H   0  0  0  0  0  0  0  0  0  0  0  0
   -3.0348   -1.9222    0.9371 C   0  0  0  0  0  0  0  0  0  0  0  0
   -3.5123   -1.1759    1.5768 H   0  0  0  0  0  0  0  0  0  0  0  0
   -3.5625   -1.9648   -0.0188 H   0  0  0  0  0  0  0  0  0  0  0  0
   -1.5803   -1.5563    0.7099 C   0  0  0  0  0  0  0  0  0  0  0  0
   -0.7026   -2.3721    0.9442 O   0  0  0  0  0  0  0  0  0  0  0  0
   -1.2623   -0.3417    0.1370 N   0  0  0  0  0  0  0  0  0  0  0  0
   -2.0537    0.2918    0.0425 H   0  0  0  0  0  0  0  0  0  0  0  0
    0.0411    0.3398    0.2813 C   0  0  1  0  0  0  0  0  0  0  0  0
    0.6936   -0.0236   -0.5182 H   0  0  0  0  0  0  0  0  0  0  0  0
   -0.1744    1.8527    0.0567 C   0  0  1  0  0  0  0  0  0  0  0  0
    0.7896    2.3631    0.1634 H   0  0  0  0  0  0  0  0  0  0  0  0
   -0.7292    2.1711   -1.3330 C   0  0  0  0  0  0  0  0  0  0  0  0
   -1.7304    1.7513   -1.4642 H   0  0  0  0  0  0  0  0  0  0  0  0
   -0.7909    3.2551   -1.4686 H   0  0  0  0  0  0  0  0  0  0  0  0
   -0.0735    1.7633   -2.1081 H   0  0  0  0  0  0  0  0  0  0  0  0
   -1.0816    2.3588    1.0377 O   0  0  0  0  0  0  0  0  0  0  0  0
   -0.7038    2.1790    1.9270 H   0  0  0  0  0  0  0  0  0  0  0  0
    0.8060    0.0856    1.6075 C   0  0  0  0  0  0  0  0  0  0  0  0
    0.6904    0.8652    2.5507 O   0  0  0  0  0  0  0  0  0  0  0  0
    1.6946   -0.9684    1.7082 N   0  0  0  0  0  0  0  0  0  0  0  0
    1.4918   -1.7415    1.0740 H   0  0  0  0  0  0  0  0  0  0  0  0
    2.3755   -1.2946    2.9550 C   0  0  0  0  0  0  0  0  0  0  0  0
    1.6487   -1.5514    3.7327 H   0  0  0  0  0  0  0  0  0  0  0  0
    3.0425   -2.1491    2.8067 H   0  0  0  0  0  0  0  0  0  0  0  0
    2.9762   -0.4463    3.2990 H   0  0  0  0  0  0  0  0  0  0  0  0
  1  2  1  0  0  0  0
  2  3  1  0  0  0  0
  2  4  1  0  0  0  0
  2  5  1  0  0  0  0
  5  6  2  0  0  0  0
  5  7  1  0  0  0  0
  7  8  1  0  0  0  0
  7  9  1  0  0  0  0
  9 10  1  0  0  0  0
  9 11  1  0  0  0  0
  9 19  1  0  0  0  0
 11 12  1  0  0  0  0
 11 13  1  0  0  0  0
 11 17  1  0  0  0  0
 13 14  1  0  0  0  0
 13 15  1  0  0  0  0
 13 16  1  0  0  0  0
 17 18  1  0  0  0  0
 19 20  2  0  0  0  0
 19 21  1  0  0  0  0
 21 22  1  0  0  0  0
 21 23  1  0  0  0  0
 23 24  1  0  0  0  0
 23 25  1  0  0  0  0
 23 26  1  0  0  0  0
M  END
$$$$

  -OEChem-01062216093D

 26 25  0     1  0  0  0  0  0999 V2000
   -3.0541   -2.9139    1.4480 H   0  0  0  0  0  0  0  0  0  0  0  0
   -3.0041   -1.9311    0.9710 C   0  0  0  0  0  0  0  0  0  0  0  0
   -3.4761   -1.1973    1.6290 H   0  0  0  0  0  0  0  0  0  0  0  0
   -3.5510   -1.9695    0.0260 H   0  0  0  0  0  0  0  0  0  0  0  0
   -1.5589   -1.5463    0.7183 C   0  0  0  0  0  0  0  0  0  0  0  0
   -0.6640   -2.3419    0.9580 O   0  0  0  0  0  0  0  0  0  0  0  0
   -1.2644   -0.3349    0.1259 N   0  0  0  0  0  0  0  0  0  0  0  0
   -2.0610    0.2934    0.0435 H   0  0  0  0  0  0  0  0  0  0  0  0
    0.0380    0.3474    0.2639 C   0  0  1  0  0  0  0  0  0  0  0  0
    0.6884   -0.0156   -0.5371 H   0  0  0  0  0  0  0  0  0  0  0  0
   -0.1723    1.8612    0.0493 C   0  0  1  0  0  0  0  0  0  0  0  0
    0.7949    2.3651    0.1573 H   0  0  0  0  0  0  0  0  0  0  0  0
   -0.7290    2.1901   -1.3365 C   0  0  0  0  0  0  0  0  0  0  0  0
   -1.7303    1.7707   -1.4693 H   0  0  0  0  0  0  0  0  0  0  0  0
   -0.7908    3.2751   -1.4635 H   0  0  0  0  0  0  0  0  0  0  0  0
   -0.0742    1.7881   -2.1153 H   0  0  0  0  0  0  0  0  0  0  0  0
   -1.0716    2.3666    1.0382 O   0  0  0  0  0  0  0  0  0  0  0  0
   -0.7290    2.1193    1.9267 H   0  0  0  0  0  0  0  0  0  0  0  0
    0.7929    0.0956    1.5939 C   0  0  0  0  0  0  0  0  0  0  0  0
    0.4910    0.7306    2.6022 O   0  0  0  0  0  0  0  0  0  0  0  0
    1.8886   -0.7474    1.6228 N   0  0  0  0  0  0  0  0  0  0  0  0
    1.9213   -1.4340    0.8723 H   0  0  0  0  0  0  0  0  0  0  0  0
    2.5833   -1.0746    2.8619 C   0  0  0  0  0  0  0  0  0  0  0  0
    1.9020   -1.5662    3.5644 H   0  0  0  0  0  0  0  0  0  0  0  0
    3.4191   -1.7506    2.6577 H   0  0  0  0  0  0  0  0  0  0  0  0
    2.9814   -0.1687    3.3308 H   0  0  0  0  0  0  0  0  0  0  0  0
  1  2  1  0  0  0  0
  2  3  1  0  0  0  0
  2  4  1  0  0  0  0
  2  5  1  0  0  0  0
  5  6  2  0  0  0  0
  5  7  1  0  0  0  0
  7  8  1  0  0  0  0
  7  9  1  0  0  0  0
  9 10  1  0  0  0  0
  9 11  1  0  0  0  0
  9 19  1  0  0  0  0
 11 12  1  0  0  0  0
 11 13  1  0  0  0  0
 11 17  1  0  0  0  0
 13 14  1  0  0  0  0
 13 15  1  0  0  0  0
 13 16  1  0  0  0  0
 17 18  1  0  0  0  0
 19 20  2  0  0  0  0
 19 21  1  0  0  0  0
 21 22  1  0  0  0  0
 21 23  1  0  0  0  0
 23 24  1  0  0  0  0
 23 25  1  0  0  0  0
 23 26  1  0  0  0  0
M  END
$$$$

  -OEChem-01062216093D

 26 25  0     1  0  0  0  0  0999 V2000
   -2.9083   -3.0150    1.4788 H   0  0  0  0  0  0  0  0  0  0  0  0
   -2.9130   -2.0023    1.0663 C   0  0  0  0  0  0  0  0  0  0  0  0
   -3.2986   -1.3165    1.8249 H   0  0  0  0  0  0  0  0  0  0  0  0
   -3.5699   -1.9791    0.1937 H   0  0  0  0  0  0  0  0  0  0  0  0
   -1.5069   -1.5940    0.6710 C   0  0  0  0  0  0  0  0  0  0  0  0
   -0.5904   -2.3993    0.7447 O   0  0  0  0  0  0  0  0  0  0  0  0
   -1.2778   -0.3444    0.1318 N   0  0  0  0  0  0  0  0  0  0  0  0
   -2.0831    0.2731    0.2022 H   0  0  0  0  0  0  0  0  0  0  0  0
    0.0071    0.3529    0.3250 C   0  0  1  0  0  0  0  0  0  0  0  0
    0.6679    0.0051   -0.4739 H   0  0  0  0  0  0  0  0  0  0  0  0
   -0.1921    1.8683    0.1129 C   0  0  1  0  0  0  0  0  0  0  0  0
    0.7754    2.3583    0.2691 H   0  0  0  0  0  0  0  0  0  0  0  0
   -0.6769    2.2035   -1.2985 C   0  0  0  0  0  0  0  0  0  0  0  0
   -1.6742    1.7911   -1.4786 H   0  0  0  0  0  0  0  0  0  0  0  0
   -0.7215    3.2884   -1.4334 H   0  0  0  0  0  0  0  0  0  0  0  0
    0.0102    1.7922   -2.0442 H   0  0  0  0  0  0  0  0  0  0  0  0
   -1.1303    2.3985    1.0517 O   0  0  0  0  0  0  0  0  0  0  0  0
   -1.0798    3.3688    1.0863 H   0  0  0  0  0  0  0  0  0  0  0  0
    0.7594    0.0477    1.6453 C   0  0  0  0  0  0  0  0  0  0  0  0
    0.2670    0.3161    2.7354 O   0  0  0  0  0  0  0  0  0  0  0  0
    2.0302   -0.5003    1.6010 N   0  0  0  0  0  0  0  0  0  0  0  0
    2.2992   -0.9218    0.7168 H   0  0  0  0  0  0  0  0  0  0  0  0
    2.7301   -0.9398    2.8021 C   0  0  0  0  0  0  0  0  0  0  0  0
    2.1795   -1.7521    3.2886 H   0  0  0  0  0  0  0  0  0  0  0  0
    3.7300   -1.3019    2.5451 H   0  0  0  0  0  0  0  0  0  0  0  0
    2.8368   -0.1117    3.5108 H   0  0  0  0  0  0  0  0  0  0  0  0
  1  2  1  0  0  0  0
  2  3  1  0  0  0  0
  2  4  1  0  0  0  0
  2  5  1  0  0  0  0
  5  6  2  0  0  0  0
  5  7  1  0  0  0  0
  7  8  1  0  0  0  0
  7  9  1  0  0  0  0
  9 10  1  0  0  0  0
  9 11  1  0  0  0  0
  9 19  1  0  0  0  0
 11 12  1  0  0  0  0
 11 13  1  0  0  0  0
 11 17  1  0  0  0  0
 13 14  1  0  0  0  0
 13 15  1  0  0  0  0
 13 16  1  0  0  0  0
 17 18  1  0  0  0  0
 19 20  2  0  0  0  0
 19 21  1  0  0  0  0
 21 22  1  0  0  0  0
 21 23  1  0  0  0  0
 23 24  1  0  0  0  0
 23 25  1  0  0  0  0
 23 26  1  0  0  0  0
M  END
$$$$

  -OEChem-01062216093D

 26 25  0     1  0  0  0  0  0999 V2000
   -2.9028   -3.0023    1.5065 H   0  0  0  0  0  0  0  0  0  0  0  0
   -2.9113   -1.9956    1.0799 C   0  0  0  0  0  0  0  0  0  0  0  0
   -3.2828   -1.2980    1.8347 H   0  0  0  0  0  0  0  0  0  0  0  0
   -3.5804   -1.9820    0.2166 H   0  0  0  0  0  0  0  0  0  0  0  0
   -1.5103   -1.5977    0.6577 C   0  0  0  0  0  0  0  0  0  0  0  0
   -0.6008   -2.4131    0.6988 O   0  0  0  0  0  0  0  0  0  0  0  0
   -1.2809   -0.3507    0.1123 N   0  0  0  0  0  0  0  0  0  0  0  0
   -2.0831    0.2686    0.1970 H   0  0  0  0  0  0  0  0  0  0  0  0
    0.0054    0.3430    0.3118 C   0  0  1  0  0  0  0  0  0  0  0  0
    0.6689   -0.0085   -0.4834 H   0  0  0  0  0  0  0  0  0  0  0  0
   -0.1866    1.8597    0.1125 C   0  0  1  0  0  0  0  0  0  0  0  0
    0.7819    2.3473    0.2701 H   0  0  0  0  0  0  0  0  0  0  0  0
   -0.6740    2.2044   -1.2957 C   0  0  0  0  0  0  0  0  0  0  0  0
   -1.6718    1.7939   -1.4766 H   0  0  0  0  0  0  0  0  0  0  0  0
   -0.7180    3.2899   -1.4238 H   0  0  0  0  0  0  0  0  0  0  0  0
    0.0110    1.7968   -2.0452 H   0  0  0  0  0  0  0  0  0  0  0  0
   -1.1232    2.3806    1.0578 O   0  0  0  0  0  0  0  0  0  0  0  0
   -1.0983    3.3525    1.0761 H   0  0  0  0  0  0  0  0  0  0  0  0
    0.7498    0.0431    1.6371 C   0  0  0  0  0  0  0  0  0  0  0  0
    0.1687    0.0908    2.7163 O   0  0  0  0  0  0  0  0  0  0  0  0
    2.1115   -0.2090    1.6199 N   0  0  0  0  0  0  0  0  0  0  0  0
    2.5241   -0.4117    0.7146 H   0  0  0  0  0  0  0  0  0  0  0  0
    2.8486   -0.6034    2.8141 C   0  0  0  0  0  0  0  0  0  0  0  0
    2.4606   -1.5492    3.2071 H   0  0  0  0  0  0  0  0  0  0  0  0
    3.9089   -0.7336    2.5777 H   0  0  0  0  0  0  0  0  0  0  0  0
    2.7613    0.1635    3.5909 H   0  0  0  0  0  0  0  0  0  0  0  0
  1  2  1  0  0  0  0
  2  3  1  0  0  0  0
  2  4  1  0  0  0  0
  2  5  1  0  0  0  0
  5  6  2  0  0  0  0
  5  7  1  0  0  0  0
  7  8  1  0  0  0  0
  7  9  1  0  0  0  0
  9 10  1  0  0  0  0
  9 11  1  0  0  0  0
  9 19  1  0  0  0  0
 11 12  1  0  0  0  0
 11 13  1  0  0  0  0
 11 17  1  0  0  0  0
 13 14  1  0  0  0  0
 13 15  1  0  0  0  0
 13 16  1  0  0  0  0
 17 18  1  0  0  0  0
 19 20  2  0  0  0  0
 19 21  1  0  0  0  0
 21 22  1  0  0  0  0
 21 23  1  0  0  0  0
 23 24  1  0  0  0  0
 23 25  1  0  0  0  0
 23 26  1  0  0  0  0
M  END
$$$$

  -OEChem-01062216093D

 26 25  0     1  0  0  0  0  0999 V2000
   -2.9321   -3.0162    1.4501 H   0  0  0  0  0  0  0  0  0  0  0  0
   -2.9191   -1.9834    1.0911 C   0  0  0  0  0  0  0  0  0  0  0  0
   -3.2265   -1.3246    1.9071 H   0  0  0  0  0  0  0  0  0  0  0  0
   -3.6264   -1.8865    0.2644 H   0  0  0  0  0  0  0  0  0  0  0  0
   -1.5237   -1.6099    0.6296 C   0  0  0  0  0  0  0  0  0  0  0  0
   -0.6300   -2.4436    0.6303 O   0  0  0  0  0  0  0  0  0  0  0  0
   -1.2832   -0.3635    0.0875 N   0  0  0  0  0  0  0  0  0  0  0  0
   -2.0796    0.2612    0.1846 H   0  0  0  0  0  0  0  0  0  0  0  0
    0.0074    0.3203    0.3010 C   0  0  1  0  0  0  0  0  0  0  0  0
    0.6750   -0.0311   -0.4908 H   0  0  0  0  0  0  0  0  0  0  0  0
   -0.1795    1.8396    0.1157 C   0  0  1  0  0  0  0  0  0  0  0  0
    0.7886    2.3257    0.2808 H   0  0  0  0  0  0  0  0  0  0  0  0
   -0.6633    2.2009   -1.2896 C   0  0  0  0  0  0  0  0  0  0  0  0
   -1.6601    1.7913   -1.4787 H   0  0  0  0  0  0  0  0  0  0  0  0
   -0.7084    3.2879   -1.4044 H   0  0  0  0  0  0  0  0  0  0  0  0
    0.0246    1.8036   -2.0420 H   0  0  0  0  0  0  0  0  0  0  0  0
   -1.1193    2.3494    1.0639 O   0  0  0  0  0  0  0  0  0  0  0  0
   -1.1224    3.3220    1.0646 H   0  0  0  0  0  0  0  0  0  0  0  0
    0.7469    0.0213    1.6300 C   0  0  0  0  0  0  0  0  0  0  0  0
    0.1343   -0.1207    2.6836 O   0  0  0  0  0  0  0  0  0  0  0  0
    2.1308    0.0715    1.6694 N   0  0  0  0  0  0  0  0  0  0  0  0
    2.6181    0.0831    0.7790 H   0  0  0  0  0  0  0  0  0  0  0  0
    2.8956   -0.2260    2.8746 C   0  0  0  0  0  0  0  0  0  0  0  0
    2.7195   -1.2588    3.1933 H   0  0  0  0  0  0  0  0  0  0  0  0
    3.9655   -0.0986    2.6846 H   0  0  0  0  0  0  0  0  0  0  0  0
    2.6085    0.4482    3.6886 H   0  0  0  0  0  0  0  0  0  0  0  0
  1  2  1  0  0  0  0
  2  3  1  0  0  0  0
  2  4  1  0  0  0  0
  2  5  1  0  0  0  0
  5  6  2  0  0  0  0
  5  7  1  0  0  0  0
  7  8  1  0  0  0  0
  7  9  1  0  0  0  0
  9 10  1  0  0  0  0
  9 11  1  0  0  0  0
  9 19  1  0  0  0  0
 11 12  1  0  0  0  0
 11 13  1  0  0  0  0
 11 17  1  0  0  0  0
 13 14  1  0  0  0  0
 13 15  1  0  0  0  0
 13 16  1  0  0  0  0
 17 18  1  0  0  0  0
 19 20  2  0  0  0  0
 19 21  1  0  0  0  0
 21 22  1  0  0  0  0
 21 23  1  0  0  0  0
 23 24  1  0  0  0  0
 23 25  1  0  0  0  0
 23 26  1  0  0  0  0
M  END
$$$$

  -OEChem-01062216093D

 26 25  0     1  0  0  0  0  0999 V2000
   -2.9654   -3.0085    1.4290 H   0  0  0  0  0  0  0  0  0  0  0  0
   -2.9372   -1.9727    1.0796 C   0  0  0  0  0  0  0  0  0  0  0  0
   -3.2287   -1.3169    1.9038 H   0  0  0  0  0  0  0  0  0  0  0  0
   -3.6473   -1.8568    0.2578 H   0  0  0  0  0  0  0  0  0  0  0  0
   -1.5384   -1.6183    0.6131 C   0  0  0  0  0  0  0  0  0  0  0  0
   -0.6649   -2.4723    0.5760 O   0  0  0  0  0  0  0  0  0  0  0  0
   -1.2792   -0.3716    0.0805 N   0  0  0  0  0  0  0  0  0  0  0  0
   -2.0685    0.2608    0.1839 H   0  0  0  0  0  0  0  0  0  0  0  0
    0.0174    0.3007    0.3018 C   0  0  1  0  0  0  0  0  0  0  0  0
    0.6853   -0.0480   -0.4911 H   0  0  0  0  0  0  0  0  0  0  0  0
   -0.1754    1.8216    0.1257 C   0  0  1  0  0  0  0  0  0  0  0  0
    0.7886    2.3152    0.2907 H   0  0  0  0  0  0  0  0  0  0  0  0
   -0.6629    2.1891   -1.2773 C   0  0  0  0  0  0  0  0  0  0  0  0
   -1.6604    1.7812   -1.4664 H   0  0  0  0  0  0  0  0  0  0  0  0
   -0.7074    3.2766   -1.3882 H   0  0  0  0  0  0  0  0  0  0  0  0
    0.0227    1.7937   -2.0329 H   0  0  0  0  0  0  0  0  0  0  0  0
   -1.1177    2.3175    1.0792 O   0  0  0  0  0  0  0  0  0  0  0  0
   -1.1378    3.2900    1.0775 H   0  0  0  0  0  0  0  0  0  0  0  0
    0.7653    0.0023    1.6292 C   0  0  0  0  0  0  0  0  0  0  0  0
    0.1660   -0.3231    2.6492 O   0  0  0  0  0  0  0  0  0  0  0  0
    2.1032    0.3455    1.7471 N   0  0  0  0  0  0  0  0  0  0  0  0
    2.6042    0.5680    0.8931 H   0  0  0  0  0  0  0  0  0  0  0  0
    2.8693    0.1452    2.9718 C   0  0  0  0  0  0  0  0  0  0  0  0
    2.8820   -0.9150    3.2457 H   0  0  0  0  0  0  0  0  0  0  0  0
    3.9015    0.4796    2.8314 H   0  0  0  0  0  0  0  0  0  0  0  0
    2.4313    0.7172    3.7965 H   0  0  0  0  0  0  0  0  0  0  0  0
  1  2  1  0  0  0  0
  2  3  1  0  0  0  0
  2  4  1  0  0  0  0
  2  5  1  0  0  0  0
  5  6  2  0  0  0  0
  5  7  1  0  0  0  0
  7  8  1  0  0  0  0
  7  9  1  0  0  0  0
  9 10  1  0  0  0  0
  9 11  1  0  0  0  0
  9 19  1  0  0  0  0
 11 12  1  0  0  0  0
 11 13  1  0  0  0  0
 11 17  1  0  0  0  0
 13 14  1  0  0  0  0
 13 15  1  0  0  0  0
 13 16  1  0  0  0  0
 17 18  1  0  0  0  0
 19 20  2  0  0  0  0
 19 21  1  0  0  0  0
 21 22  1  0  0  0  0
 21 23  1  0  0  0  0
 23 24  1  0  0  0  0
 23 25  1  0  0  0  0
 23 26  1  0  0  0  0
M  END
$$$$

  -OEChem-01062216093D

 26 25  0     1  0  0  0  0  0999 V2000
   -3.0329   -2.9364    1.4319 H   0  0  0  0  0  0  0  0  0  0  0  0
   -2.9401   -1.8846    1.1477 C   0  0  0  0  0  0  0  0  0  0  0  0
   -3.0412   -1.2691    2.0450 H   0  0  0  0  0  0  0  0  0  0  0  0
   -3.7391   -1.6341    0.4466 H   0  0  0  0  0  0  0  0  0  0  0  0
   -1.5874   -1.6373    0.5087 C   0  0  0  0  0  0  0  0  0  0  0  0
   -0.8591   -2.5750    0.2229 O   0  0  0  0  0  0  0  0  0  0  0  0
   -1.2634   -0.3851    0.0304 N   0  0  0  0  0  0  0  0  0  0  0  0
   -2.0224    0.2673    0.2046 H   0  0  0  0  0  0  0  0  0  0  0  0
    0.0497    0.2477    0.2918 C   0  0  1  0  0  0  0  0  0  0  0  0
    0.6286    0.1298   -0.6285 H   0  0  0  0  0  0  0  0  0  0  0  0
   -0.2021    1.7589    0.5059 C   0  0  1  0  0  0  0  0  0  0  0  0
    0.7545    2.2565    0.6964 H   0  0  0  0  0  0  0  0  0  0  0  0
   -0.8367    2.4268   -0.7164 C   0  0  0  0  0  0  0  0  0  0  0  0
   -1.8386    2.0315   -0.9085 H   0  0  0  0  0  0  0  0  0  0  0  0
   -0.9176    3.5059   -0.5558 H   0  0  0  0  0  0  0  0  0  0  0  0
   -0.2201    2.2568   -1.6043 H   0  0  0  0  0  0  0  0  0  0  0  0
   -1.0620    1.9605    1.6299 O   0  0  0  0  0  0  0  0  0  0  0  0
   -1.1184    2.9036    1.8627 H   0  0  0  0  0  0  0  0  0  0  0  0
    0.9814   -0.3105    1.4094 C   0  0  0  0  0  0  0  0  0  0  0  0
    0.5790   -1.0464    2.3027 O   0  0  0  0  0  0  0  0  0  0  0  0
    2.2091    0.2988    1.6270 N   0  0  0  0  0  0  0  0  0  0  0  0
    2.5526    0.9311    0.9119 H   0  0  0  0  0  0  0  0  0  0  0  0
    3.0870   -0.0338    2.7439 C   0  0  0  0  0  0  0  0  0  0  0  0
    3.3574   -1.0947    2.7162 H   0  0  0  0  0  0  0  0  0  0  0  0
    4.0050    0.5590    2.6926 H   0  0  0  0  0  0  0  0  0  0  0  0
    2.5920    0.1788    3.6973 H   0  0  0  0  0  0  0  0  0  0  0  0
  1  2  1  0  0  0  0
  2  3  1  0  0  0  0
  2  4  1  0  0  0  0
  2  5  1  0  0  0  0
  5  6  2  0  0  0  0
  5  7  1  0  0  0  0
  7  8  1  0  0  0  0
  7  9  1  0  0  0  0
  9 10  1  0  0  0  0
  9 11  1  0  0  0  0
  9 19  1  0  0  0  0
 11 12  1  0  0  0  0
 11 13  1  0  0  0  0
 11 17  1  0  0  0  0
 13 14  1  0  0  0  0
 13 15  1  0  0  0  0
 13 16  1  0  0  0  0
 17 18  1  0  0  0  0
 19 20  2  0  0  0  0
 19 21  1  0  0  0  0
 21 22  1  0  0  0  0
 21 23  1  0  0  0  0
 23 24  1  0  0  0  0
 23 25  1  0  0  0  0
 23 26  1  0  0  0  0
M  END
$$$$

  -OEChem-01062216093D

 26 25  0     1  0  0  0  0  0999 V2000
   -2.9836   -2.9081    1.5043 H   0  0  0  0  0  0  0  0  0  0  0  0
   -2.8957   -1.8619    1.1982 C   0  0  0  0  0  0  0  0  0  0  0  0
   -2.9473   -1.2317    2.0895 H   0  0  0  0  0  0  0  0  0  0  0  0
   -3.7261   -1.6153    0.5330 H   0  0  0  0  0  0  0  0  0  0  0  0
   -1.5744   -1.6389    0.4878 C   0  0  0  0  0  0  0  0  0  0  0  0
   -0.9164   -2.5925    0.1042 O   0  0  0  0  0  0  0  0  0  0  0  0
   -1.2400   -0.3847    0.0231 N   0  0  0  0  0  0  0  0  0  0  0  0
   -1.9981    0.2652    0.2096 H   0  0  0  0  0  0  0  0  0  0  0  0
    0.0675    0.2595    0.2940 C   0  0  1  0  0  0  0  0  0  0  0  0
    0.6544    0.1456   -0.6220 H   0  0  0  0  0  0  0  0  0  0  0  0
   -0.2168    1.7698    0.4879 C   0  0  1  0  0  0  0  0  0  0  0  0
    0.7233    2.2964    0.6785 H   0  0  0  0  0  0  0  0  0  0  0  0
   -0.8524    2.4123   -0.7481 C   0  0  0  0  0  0  0  0  0  0  0  0
   -1.8487    2.0038   -0.9421 H   0  0  0  0  0  0  0  0  0  0  0  0
   -0.9459    3.4928   -0.6035 H   0  0  0  0  0  0  0  0  0  0  0  0
   -0.2280    2.2370   -1.6296 H   0  0  0  0  0  0  0  0  0  0  0  0
   -1.0956    1.9605    1.5994 O   0  0  0  0  0  0  0  0  0  0  0  0
   -1.2114    2.9068    1.7958 H   0  0  0  0  0  0  0  0  0  0  0  0
    1.0107   -0.2834    1.4157 C   0  0  0  0  0  0  0  0  0  0  0  0
    0.7599   -1.2706    2.0933 O   0  0  0  0  0  0  0  0  0  0  0  0
    2.0699    0.4955    1.8617 N   0  0  0  0  0  0  0  0  0  0  0  0
    2.2721    1.3502    1.3549 H   0  0  0  0  0  0  0  0  0  0  0  0
    2.9152    0.1412    2.9972 C   0  0  0  0  0  0  0  0  0  0  0  0
    3.3939   -0.8296    2.8306 H   0  0  0  0  0  0  0  0  0  0  0  0
    3.6981    0.8928    3.1352 H   0  0  0  0  0  0  0  0  0  0  0  0
    2.3205    0.0887    3.9152 H   0  0  0  0  0  0  0  0  0  0  0  0
  1  2  1  0  0  0  0
  2  3  1  0  0  0  0
  2  4  1  0  0  0  0
  2  5  1  0  0  0  0
  5  6  2  0  0  0  0
  5  7  1  0  0  0  0
  7  8  1  0  0  0  0
  7  9  1  0  0  0  0
  9 10  1  0  0  0  0
  9 11  1  0  0  0  0
  9 19  1  0  0  0  0
 11 12  1  0  0  0  0
 11 13  1  0  0  0  0
 11 17  1  0  0  0  0
 13 14  1  0  0  0  0
 13 15  1  0  0  0  0
 13 16  1  0  0  0  0
 17 18  1  0  0  0  0
 19 20  2  0  0  0  0
 19 21  1  0  0  0  0
 21 22  1  0  0  0  0
 21 23  1  0  0  0  0
 23 24  1  0  0  0  0
 23 25  1  0  0  0  0
 23 26  1  0  0  0  0
M  END
$$$$

  -OEChem-01062216093D

 26 25  0     1  0  0  0  0  0999 V2000
   -3.3351   -3.0118    1.1356 H   0  0  0  0  0  0  0  0  0  0  0  0
   -3.1155   -2.0873    0.5934 C   0  0  0  0  0  0  0  0  0  0  0  0
   -3.9596   -1.4031    0.7074 H   0  0  0  0  0  0  0  0  0  0  0  0
   -2.9847   -2.3257   -0.4648 H   0  0  0  0  0  0  0  0  0  0  0  0
   -1.8525   -1.4488    1.1423 C   0  0  0  0  0  0  0  0  0  0  0  0
   -1.3970   -1.8810    2.1839 O   0  0  0  0  0  0  0  0  0  0  0  0
   -1.3902   -0.2923    0.5393 N   0  0  0  0  0  0  0  0  0  0  0  0
   -1.9791    0.0243   -0.2218 H   0  0  0  0  0  0  0  0  0  0  0  0
   -0.0305    0.3126    0.5756 C   0  0  1  0  0  0  0  0  0  0  0  0
    0.4461    0.0543   -0.3745 H   0  0  0  0  0  0  0  0  0  0  0  0
   -0.1634    1.8576    0.6132 C   0  0  1  0  0  0  0  0  0  0  0  0
    0.8322    2.3128    0.5948 H   0  0  0  0  0  0  0  0  0  0  0  0
   -0.9254    2.3885   -0.6037 C   0  0  0  0  0  0  0  0  0  0  0  0
   -1.9688    2.0597   -0.5889 H   0  0  0  0  0  0  0  0  0  0  0  0
   -0.9098    3.4825   -0.6088 H   0  0  0  0  0  0  0  0  0  0  0  0
   -0.4591    2.0357   -1.5287 H   0  0  0  0  0  0  0  0  0  0  0  0
   -0.8673    2.2835    1.7814 O   0  0  0  0  0  0  0  0  0  0  0  0
   -1.0244    3.2431    1.7683 H   0  0  0  0  0  0  0  0  0  0  0  0
    0.9869   -0.1846    1.6430 C   0  0  0  0  0  0  0  0  0  0  0  0
    1.3236   -1.3626    1.6121 O   0  0  0  0  0  0  0  0  0  0  0  0
    1.9529    0.6734    2.1509 N   0  0  0  0  0  0  0  0  0  0  0  0
    1.6537    1.6380    2.2587 H   0  0  0  0  0  0  0  0  0  0  0  0
    3.0661    0.2156    2.9768 C   0  0  0  0  0  0  0  0  0  0  0  0
    3.7153   -0.4590    2.4088 H   0  0  0  0  0  0  0  0  0  0  0  0
    3.6651    1.0689    3.3085 H   0  0  0  0  0  0  0  0  0  0  0  0
    2.6947   -0.3135    3.8610 H   0  0  0  0  0  0  0  0  0  0  0  0
  1  2  1  0  0  0  0
  2  3  1  0  0  0  0
  2  4  1  0  0  0  0
  2  5  1  0  0  0  0
  5  6  2  0  0  0  0
  5  7  1  0  0  0  0
  7  8  1  0  0  0  0
  7  9  1  0  0  0  0
  9 10  1  0  0  0  0
  9 11  1  0  0  0  0
  9 19  1  0  0  0  0
 11 12  1  0  0  0  0
 11 13  1  0  0  0  0
 11 17  1  0  0  0  0
 13 14  1  0  0  0  0
 13 15  1  0  0  0  0
 13 16  1  0  0  0  0
 17 18  1  0  0  0  0
 19 20  2  0  0  0  0
 19 21  1  0  0  0  0
 21 22  1  0  0  0  0
 21 23  1  0  0  0  0
 23 24  1  0  0  0  0
 23 25  1  0  0  0  0
 23 26  1  0  0  0  0
M  END
$$$$

  -OEChem-01062216093D

 26 25  0     1  0  0  0  0  0999 V2000
   -3.3580   -2.9939    1.1349 H   0  0  0  0  0  0  0  0  0  0  0  0
   -3.1594   -2.0378    0.6416 C   0  0  0  0  0  0  0  0  0  0  0  0
   -3.9435   -1.3293    0.9189 H   0  0  0  0  0  0  0  0  0  0  0  0
   -3.1793   -2.1922   -0.4397 H   0  0  0  0  0  0  0  0  0  0  0  0
   -1.8040   -1.5027    1.0665 C   0  0  0  0  0  0  0  0  0  0  0  0
   -1.2229   -2.0662    1.9737 O   0  0  0  0  0  0  0  0  0  0  0  0
   -1.3546   -0.3298    0.4856 N   0  0  0  0  0  0  0  0  0  0  0  0
   -2.0053    0.0805   -0.1738 H   0  0  0  0  0  0  0  0  0  0  0  0
   -0.0101    0.3028    0.5434 C   0  0  1  0  0  0  0  0  0  0  0  0
    0.4829    0.0611   -0.4029 H   0  0  0  0  0  0  0  0  0  0  0  0
   -0.1637    1.8450    0.5894 C   0  0  1  0  0  0  0  0  0  0  0  0
    0.8300    2.3064    0.5928 H   0  0  0  0  0  0  0  0  0  0  0  0
   -0.9104    2.3762   -0.6369 C   0  0  0  0  0  0  0  0  0  0  0  0
   -1.9505    2.0367   -0.6430 H   0  0  0  0  0  0  0  0  0  0  0  0
   -0.9057    3.4703   -0.6353 H   0  0  0  0  0  0  0  0  0  0  0  0
   -0.4245    2.0340   -1.5559 H   0  0  0  0  0  0  0  0  0  0  0  0
   -0.8889    2.2570    1.7509 O   0  0  0  0  0  0  0  0  0  0  0  0
   -1.0479    3.2169    1.7407 H   0  0  0  0  0  0  0  0  0  0  0  0
    0.9946   -0.1941    1.6203 C   0  0  0  0  0  0  0  0  0  0  0  0
    1.5114   -1.2944    1.4620 O   0  0  0  0  0  0  0  0  0  0  0  0
    1.7256    0.7056    2.3814 N   0  0  0  0  0  0  0  0  0  0  0  0
    1.2446    1.5789    2.5824 H   0  0  0  0  0  0  0  0  0  0  0  0
    2.8000    0.2939    3.2786 C   0  0  0  0  0  0  0  0  0  0  0  0
    3.6320   -0.1344    2.7097 H   0  0  0  0  0  0  0  0  0  0  0  0
    3.1747    1.1554    3.8390 H   0  0  0  0  0  0  0  0  0  0  0  0
    2.4384   -0.4541    3.9925 H   0  0  0  0  0  0  0  0  0  0  0  0
  1  2  1  0  0  0  0
  2  3  1  0  0  0  0
  2  4  1  0  0  0  0
  2  5  1  0  0  0  0
  5  6  2  0  0  0  0
  5  7  1  0  0  0  0
  7  8  1  0  0  0  0
  7  9  1  0  0  0  0
  9 10  1  0  0  0  0
  9 11  1  0  0  0  0
  9 19  1  0  0  0  0
 11 12  1  0  0  0  0
 11 13  1  0  0  0  0
 11 17  1  0  0  0  0
 13 14  1  0  0  0  0
 13 15  1  0  0  0  0
 13 16  1  0  0  0  0
 17 18  1  0  0  0  0
 19 20  2  0  0  0  0
 19 21  1  0  0  0  0
 21 22  1  0  0  0  0
 21 23  1  0  0  0  0
 23 24  1  0  0  0  0
 23 25  1  0  0  0  0
 23 26  1  0  0  0  0
M  END
$$$$

  -OEChem-01062216093D

 26 25  0     1  0  0  0  0  0999 V2000
   -3.3497   -2.9795    1.1752 H   0  0  0  0  0  0  0  0  0  0  0  0
   -3.1603   -2.0226    0.6803 C   0  0  0  0  0  0  0  0  0  0  0  0
   -3.8984   -1.2955    1.0269 H   0  0  0  0  0  0  0  0  0  0  0  0
   -3.2683   -2.1594   -0.3982 H   0  0  0  0  0  0  0  0  0  0  0  0
   -1.7601   -1.5349    1.0046 C   0  0  0  0  0  0  0  0  0  0  0  0
   -1.0957   -2.1720    1.7991 O   0  0  0  0  0  0  0  0  0  0  0  0
   -1.3332   -0.3478    0.4365 N   0  0  0  0  0  0  0  0  0  0  0  0
   -2.0293    0.1234   -0.1298 H   0  0  0  0  0  0  0  0  0  0  0  0
    0.0004    0.3019    0.5089 C   0  0  1  0  0  0  0  0  0  0  0  0
    0.5003    0.0786   -0.4386 H   0  0  0  0  0  0  0  0  0  0  0  0
   -0.1691    1.8405    0.5764 C   0  0  1  0  0  0  0  0  0  0  0  0
    0.8245    2.3024    0.6006 H   0  0  0  0  0  0  0  0  0  0  0  0
   -0.9056    2.3870   -0.6486 C   0  0  0  0  0  0  0  0  0  0  0  0
   -1.9429    2.0404   -0.6723 H   0  0  0  0  0  0  0  0  0  0  0  0
   -0.9081    3.4809   -0.6281 H   0  0  0  0  0  0  0  0  0  0  0  0
   -0.4070    2.0637   -1.5676 H   0  0  0  0  0  0  0  0  0  0  0  0
   -0.9046    2.2340    1.7400 O   0  0  0  0  0  0  0  0  0  0  0  0
   -1.0471    3.1970    1.7495 H   0  0  0  0  0  0  0  0  0  0  0  0
    1.0003   -0.1961    1.5870 C   0  0  0  0  0  0  0  0  0  0  0  0
    1.6745   -1.1906    1.3439 O   0  0  0  0  0  0  0  0  0  0  0  0
    1.4805    0.6621    2.5628 N   0  0  0  0  0  0  0  0  0  0  0  0
    0.8542    1.4304    2.7962 H   0  0  0  0  0  0  0  0  0  0  0  0
    2.4883    0.2677    3.5392 C   0  0  0  0  0  0  0  0  0  0  0  0
    3.4296    0.0162    3.0394 H   0  0  0  0  0  0  0  0  0  0  0  0
    2.6781    1.0883    4.2374 H   0  0  0  0  0  0  0  0  0  0  0  0
    2.1479   -0.6031    4.1095 H   0  0  0  0  0  0  0  0  0  0  0  0
  1  2  1  0  0  0  0
  2  3  1  0  0  0  0
  2  4  1  0  0  0  0
  2  5  1  0  0  0  0
  5  6  2  0  0  0  0
  5  7  1  0  0  0  0
  7  8  1  0  0  0  0
  7  9  1  0  0  0  0
  9 10  1  0  0  0  0
  9 11  1  0  0  0  0
  9 19  1  0  0  0  0
 11 12  1  0  0  0  0
 11 13  1  0  0  0  0
 11 17  1  0  0  0  0
 13 14  1  0  0  0  0
 13 15  1  0  0  0  0
 13 16  1  0  0  0  0
 17 18  1  0  0  0  0
 19 20  2  0  0  0  0
 19 21  1  0  0  0  0
 21 22  1  0  0  0  0
 21 23  1  0  0  0  0
 23 24  1  0  0  0  0
 23 25  1  0  0  0  0
 23 26  1  0  0  0  0
M  END
$$$$

  -OEChem-01062216093D

 26 25  0     1  0  0  0  0  0999 V2000
   -3.3277   -2.9701    1.2136 H   0  0  0  0  0  0  0  0  0  0  0  0
   -3.1516   -2.0131    0.7140 C   0  0  0  0  0  0  0  0  0  0  0  0
   -3.8504   -1.2747    1.1144 H   0  0  0  0  0  0  0  0  0  0  0  0
   -3.3334   -2.1380   -0.3561 H   0  0  0  0  0  0  0  0  0  0  0  0
   -1.7231   -1.5565    0.9475 C   0  0  0  0  0  0  0  0  0  0  0  0
   -0.9990   -2.2441    1.6417 O   0  0  0  0  0  0  0  0  0  0  0  0
   -1.3160   -0.3582    0.3896 N   0  0  0  0  0  0  0  0  0  0  0  0
   -2.0461    0.1612   -0.0846 H   0  0  0  0  0  0  0  0  0  0  0  0
    0.0085    0.3046    0.4831 C   0  0  1  0  0  0  0  0  0  0  0  0
    0.5192    0.0984   -0.4628 H   0  0  0  0  0  0  0  0  0  0  0  0
   -0.1800    1.8388    0.5683 C   0  0  1  0  0  0  0  0  0  0  0  0
    0.8113    2.3041    0.6188 H   0  0  0  0  0  0  0  0  0  0  0  0
   -0.8991    2.3967   -0.6616 C   0  0  0  0  0  0  0  0  0  0  0  0
   -1.9326    2.0416   -0.7086 H   0  0  0  0  0  0  0  0  0  0  0  0
   -0.9112    3.4901   -0.6258 H   0  0  0  0  0  0  0  0  0  0  0  0
   -0.3819    2.0902   -1.5762 H   0  0  0  0  0  0  0  0  0  0  0  0
   -0.9333    2.2130    1.7284 O   0  0  0  0  0  0  0  0  0  0  0  0
   -1.0517    3.1789    1.7630 H   0  0  0  0  0  0  0  0  0  0  0  0
    1.0011   -0.1895    1.5668 C   0  0  0  0  0  0  0  0  0  0  0  0
    1.8219   -1.0499    1.2693 O   0  0  0  0  0  0  0  0  0  0  0  0
    1.2263    0.5483    2.7159 N   0  0  0  0  0  0  0  0  0  0  0  0
    0.4932    1.2162    2.9505 H   0  0  0  0  0  0  0  0  0  0  0  0
    2.1705    0.1447    3.7496 C   0  0  0  0  0  0  0  0  0  0  0  0
    3.1858    0.0908    3.3429 H   0  0  0  0  0  0  0  0  0  0  0  0
    2.1661    0.8695    4.5691 H   0  0  0  0  0  0  0  0  0  0  0  0
    1.8988   -0.8372    4.1515 H   0  0  0  0  0  0  0  0  0  0  0  0
  1  2  1  0  0  0  0
  2  3  1  0  0  0  0
  2  4  1  0  0  0  0
  2  5  1  0  0  0  0
  5  6  2  0  0  0  0
  5  7  1  0  0  0  0
  7  8  1  0  0  0  0
  7  9  1  0  0  0  0
  9 10  1  0  0  0  0
  9 11  1  0  0  0  0
  9 19  1  0  0  0  0
 11 12  1  0  0  0  0
 11 13  1  0  0  0  0
 11 17  1  0  0  0  0
 13 14  1  0  0  0  0
 13 15  1  0  0  0  0
 13 16  1  0  0  0  0
 17 18  1  0  0  0  0
 19 20  2  0  0  0  0
 19 21  1  0  0  0  0
 21 22  1  0  0  0  0
 21 23  1  0  0  0  0
 23 24  1  0  0  0  0
 23 25  1  0  0  0  0
 23 26  1  0  0  0  0
M  END
$$$$

  -OEChem-01062216093D

 26 25  0     1  0  0  0  0  0999 V2000
   -3.3025   -2.9622    1.2477 H   0  0  0  0  0  0  0  0  0  0  0  0
   -3.1395   -2.0067    0.7409 C   0  0  0  0  0  0  0  0  0  0  0  0
   -3.8064   -1.2596    1.1777 H   0  0  0  0  0  0  0  0  0  0  0  0
   -3.3779   -2.1264   -0.3186 H   0  0  0  0  0  0  0  0  0  0  0  0
   -1.6946   -1.5706    0.9006 C   0  0  0  0  0  0  0  0  0  0  0  0
   -0.9314   -2.2910    1.5162 O   0  0  0  0  0  0  0  0  0  0  0  0
   -1.3024   -0.3655    0.3473 N   0  0  0  0  0  0  0  0  0  0  0  0
   -2.0536    0.1857   -0.0526 H   0  0  0  0  0  0  0  0  0  0  0  0
    0.0150    0.3062    0.4609 C   0  0  1  0  0  0  0  0  0  0  0  0
    0.5371    0.1123   -0.4815 H   0  0  0  0  0  0  0  0  0  0  0  0
   -0.1874    1.8361    0.5620 C   0  0  1  0  0  0  0  0  0  0  0  0
    0.8011    2.3045    0.6349 H   0  0  0  0  0  0  0  0  0  0  0  0
   -0.8935    2.4067   -0.6694 C   0  0  0  0  0  0  0  0  0  0  0  0
   -1.9235    2.0446   -0.7360 H   0  0  0  0  0  0  0  0  0  0  0  0
   -0.9143    3.4993   -0.6180 H   0  0  0  0  0  0  0  0  0  0  0  0
   -0.3615    2.1174   -1.5809 H   0  0  0  0  0  0  0  0  0  0  0  0
   -0.9561    2.1910    1.7186 O   0  0  0  0  0  0  0  0  0  0  0  0
   -1.0368    3.1588    1.7900 H   0  0  0  0  0  0  0  0  0  0  0  0
    0.9963   -0.1830    1.5545 C   0  0  0  0  0  0  0  0  0  0  0  0
    1.9519   -0.8798    1.2326 O   0  0  0  0  0  0  0  0  0  0  0  0
    0.9796    0.3702    2.8220 N   0  0  0  0  0  0  0  0  0  0  0  0
    0.1623    0.9369    3.0438 H   0  0  0  0  0  0  0  0  0  0  0  0
    1.8653   -0.0570    3.8962 C   0  0  0  0  0  0  0  0  0  0  0  0
    2.9127    0.0800    3.6079 H   0  0  0  0  0  0  0  0  0  0  0  0
    1.6765    0.5322    4.7984 H   0  0  0  0  0  0  0  0  0  0  0  0
    1.6985   -1.1139    4.1290 H   0  0  0  0  0  0  0  0  0  0  0  0
  1  2  1  0  0  0  0
  2  3  1  0  0  0  0
  2  4  1  0  0  0  0
  2  5  1  0  0  0  0
  5  6  2  0  0  0  0
  5  7  1  0  0  0  0
  7  8  1  0  0  0  0
  7  9  1  0  0  0  0
  9 10  1  0  0  0  0
  9 11  1  0  0  0  0
  9 19  1  0  0  0  0
 11 12  1  0  0  0  0
 11 13  1  0  0  0  0
 11 17  1  0  0  0  0
 13 14  1  0  0  0  0
 13 15  1  0  0  0  0
 13 16  1  0  0  0  0
 17 18  1  0  0  0  0
 19 20  2  0  0  0  0
 19 21  1  0  0  0  0
 21 22  1  0  0  0  0
 21 23  1  0  0  0  0
 23 24  1  0  0  0  0
 23 25  1  0  0  0  0
 23 26  1  0  0  0  0
M  END
$$$$

  -OEChem-01062216093D

 26 25  0     1  0  0  0  0  0999 V2000
   -3.2970   -2.9553    1.2519 H   0  0  0  0  0  0  0  0  0  0  0  0
   -3.1413   -1.9923    0.7571 C   0  0  0  0  0  0  0  0  0  0  0  0
   -3.7718   -1.2429    1.2414 H   0  0  0  0  0  0  0  0  0  0  0  0
   -3.4337   -2.0852   -0.2916 H   0  0  0  0  0  0  0  0  0  0  0  0
   -1.6829   -1.5844    0.8549 C   0  0  0  0  0  0  0  0  0  0  0  0
   -0.8983   -2.3338    1.4065 O   0  0  0  0  0  0  0  0  0  0  0  0
   -1.2946   -0.3765    0.3059 N   0  0  0  0  0  0  0  0  0  0  0  0
   -2.0569    0.2009   -0.0321 H   0  0  0  0  0  0  0  0  0  0  0  0
    0.0190    0.2970    0.4434 C   0  0  1  0  0  0  0  0  0  0  0  0
    0.5553    0.1131   -0.4930 H   0  0  0  0  0  0  0  0  0  0  0  0
   -0.1906    1.8228    0.5616 C   0  0  1  0  0  0  0  0  0  0  0  0
    0.7950    2.2932    0.6567 H   0  0  0  0  0  0  0  0  0  0  0  0
   -0.8806    2.4096   -0.6712 C   0  0  0  0  0  0  0  0  0  0  0  0
   -1.9068    2.0423   -0.7606 H   0  0  0  0  0  0  0  0  0  0  0  0
   -0.9093    3.5010   -0.6023 H   0  0  0  0  0  0  0  0  0  0  0  0
   -0.3319    2.1384   -1.5785 H   0  0  0  0  0  0  0  0  0  0  0  0
   -0.9753    2.1531    1.7146 O   0  0  0  0  0  0  0  0  0  0  0  0
   -1.0263    3.1192    1.8253 H   0  0  0  0  0  0  0  0  0  0  0  0
    0.9845   -0.1876    1.5511 C   0  0  0  0  0  0  0  0  0  0  0  0
    2.0615   -0.6808    1.2364 O   0  0  0  0  0  0  0  0  0  0  0  0
    0.7552    0.1301    2.8771 N   0  0  0  0  0  0  0  0  0  0  0  0
   -0.1376    0.5740    3.0822 H   0  0  0  0  0  0  0  0  0  0  0  0
    1.6128   -0.3007    3.9721 C   0  0  0  0  0  0  0  0  0  0  0  0
    2.6307    0.0787    3.8346 H   0  0  0  0  0  0  0  0  0  0  0  0
    1.2286    0.0782    4.9238 H   0  0  0  0  0  0  0  0  0  0  0  0
    1.6463   -1.3942    4.0216 H   0  0  0  0  0  0  0  0  0  0  0  0
  1  2  1  0  0  0  0
  2  3  1  0  0  0  0
  2  4  1  0  0  0  0
  2  5  1  0  0  0  0
  5  6  2  0  0  0  0
  5  7  1  0  0  0  0
  7  8  1  0  0  0  0
  7  9  1  0  0  0  0
  9 10  1  0  0  0  0
  9 11  1  0  0  0  0
  9 19  1  0  0  0  0
 11 12  1  0  0  0  0
 11 13  1  0  0  0  0
 11 17  1  0  0  0  0
 13 14  1  0  0  0  0
 13 15  1  0  0  0  0
 13 16  1  0  0  0  0
 17 18  1  0  0  0  0
 19 20  2  0  0  0  0
 19 21  1  0  0  0  0
 21 22  1  0  0  0  0
 21 23  1  0  0  0  0
 23 24  1  0  0  0  0
 23 25  1  0  0  0  0
 23 26  1  0  0  0  0
M  END
$$$$

  -OEChem-01062216093D

 26 25  0     1  0  0  0  0  0999 V2000
   -3.3098   -2.9356    1.2609 H   0  0  0  0  0  0  0  0  0  0  0  0
   -3.1498   -1.9779    0.7572 C   0  0  0  0  0  0  0  0  0  0  0  0
   -3.7631   -1.2177    1.2469 H   0  0  0  0  0  0  0  0  0  0  0  0
   -3.4610   -2.0735   -0.2858 H   0  0  0  0  0  0  0  0  0  0  0  0
   -1.6850   -1.5879    0.8268 C   0  0  0  0  0  0  0  0  0  0  0  0
   -0.8934   -2.3544    1.3441 O   0  0  0  0  0  0  0  0  0  0  0  0
   -1.2907   -0.3828    0.2775 N   0  0  0  0  0  0  0  0  0  0  0  0
   -2.0536    0.2070   -0.0381 H   0  0  0  0  0  0  0  0  0  0  0  0
    0.0202    0.2923    0.4365 C   0  0  1  0  0  0  0  0  0  0  0  0
    0.5702    0.1118   -0.4926 H   0  0  0  0  0  0  0  0  0  0  0  0
   -0.1991    1.8140    0.5610 C   0  0  1  0  0  0  0  0  0  0  0  0
    0.7818    2.2896    0.6761 H   0  0  0  0  0  0  0  0  0  0  0  0
   -0.8745    2.4095   -0.6758 C   0  0  0  0  0  0  0  0  0  0  0  0
   -1.8961    2.0350   -0.7864 H   0  0  0  0  0  0  0  0  0  0  0  0
   -0.9132    3.4999   -0.5943 H   0  0  0  0  0  0  0  0  0  0  0  0
   -0.3087    2.1536   -1.5770 H   0  0  0  0  0  0  0  0  0  0  0  0
   -1.0013    2.1209    1.7073 O   0  0  0  0  0  0  0  0  0  0  0  0
   -1.0218    3.0820    1.8608 H   0  0  0  0  0  0  0  0  0  0  0  0
    0.9771   -0.1717    1.5596 C   0  0  0  0  0  0  0  0  0  0  0  0
    2.1435   -0.4266    1.2820 O   0  0  0  0  0  0  0  0  0  0  0  0
    0.5978   -0.1193    2.8887 N   0  0  0  0  0  0  0  0  0  0  0  0
   -0.3795    0.0947    3.0667 H   0  0  0  0  0  0  0  0  0  0  0  0
    1.4337   -0.5953    3.9817 C   0  0  0  0  0  0  0  0  0  0  0  0
    2.3934   -0.0683    3.9902 H   0  0  0  0  0  0  0  0  0  0  0  0
    0.9366   -0.4208    4.9405 H   0  0  0  0  0  0  0  0  0  0  0  0
    1.6207   -1.6692    3.8767 H   0  0  0  0  0  0  0  0  0  0  0  0
  1  2  1  0  0  0  0
  2  3  1  0  0  0  0
  2  4  1  0  0  0  0
  2  5  1  0  0  0  0
  5  6  2  0  0  0  0
  5  7  1  0  0  0  0
  7  8  1  0  0  0  0
  7  9  1  0  0  0  0
  9 10  1  0  0  0  0
  9 11  1  0  0  0  0
  9 19  1  0  0  0  0
 11 12  1  0  0  0  0
 11 13  1  0  0  0  0
 11 17  1  0  0  0  0
 13 14  1  0  0  0  0
 13 15  1  0  0  0  0
 13 16  1  0  0  0  0
 17 18  1  0  0  0  0
 19 20  2  0  0  0  0
 19 21  1  0  0  0  0
 21 22  1  0  0  0  0
 21 23  1  0  0  0  0
 23 24  1  0  0  0  0
 23 25  1  0  0  0  0
 23 26  1  0  0  0  0
M  END
$$$$

  -OEChem-01062216093D

 26 25  0     1  0  0  0  0  0999 V2000
   -3.3946   -2.9128    1.1886 H   0  0  0  0  0  0  0  0  0  0  0  0
   -3.2074   -1.9510    0.7027 C   0  0  0  0  0  0  0  0  0  0  0  0
   -3.8174   -1.1868    1.1903 H   0  0  0  0  0  0  0  0  0  0  0  0
   -3.4983   -2.0261   -0.3478 H   0  0  0  0  0  0  0  0  0  0  0  0
   -1.7381   -1.5876    0.8084 C   0  0  0  0  0  0  0  0  0  0  0  0
   -0.9719   -2.3668    1.3447 O   0  0  0  0  0  0  0  0  0  0  0  0
   -1.3087   -0.3904    0.2710 N   0  0  0  0  0  0  0  0  0  0  0  0
   -2.0567    0.2126   -0.0558 H   0  0  0  0  0  0  0  0  0  0  0  0
    0.0052    0.2745    0.4547 C   0  0  1  0  0  0  0  0  0  0  0  0
    0.5671    0.0878   -0.4658 H   0  0  0  0  0  0  0  0  0  0  0  0
   -0.2096    1.7971    0.5727 C   0  0  1  0  0  0  0  0  0  0  0  0
    0.7697    2.2714    0.7063 H   0  0  0  0  0  0  0  0  0  0  0  0
   -0.8602    2.3959   -0.6756 C   0  0  0  0  0  0  0  0  0  0  0  0
   -1.8822    2.0279   -0.8031 H   0  0  0  0  0  0  0  0  0  0  0  0
   -0.8935    3.4864   -0.5948 H   0  0  0  0  0  0  0  0  0  0  0  0
   -0.2809    2.1364   -1.5670 H   0  0  0  0  0  0  0  0  0  0  0  0
   -1.0324    2.1015    1.7033 O   0  0  0  0  0  0  0  0  0  0  0  0
   -1.0225    3.0574    1.8857 H   0  0  0  0  0  0  0  0  0  0  0  0
    0.9607   -0.1676    1.5895 C   0  0  0  0  0  0  0  0  0  0  0  0
    2.1678   -0.1438    1.3752 O   0  0  0  0  0  0  0  0  0  0  0  0
    0.5148   -0.3984    2.8787 N   0  0  0  0  0  0  0  0  0  0  0  0
   -0.4842   -0.5607    2.9657 H   0  0  0  0  0  0  0  0  0  0  0  0
    1.3867   -0.8806    3.9410 C   0  0  0  0  0  0  0  0  0  0  0  0
    2.2182   -0.1865    4.1017 H   0  0  0  0  0  0  0  0  0  0  0  0
    0.8268   -0.9681    4.8769 H   0  0  0  0  0  0  0  0  0  0  0  0
    1.7921   -1.8647    3.6841 H   0  0  0  0  0  0  0  0  0  0  0  0
  1  2  1  0  0  0  0
  2  3  1  0  0  0  0
  2  4  1  0  0  0  0
  2  5  1  0  0  0  0
  5  6  2  0  0  0  0
  5  7  1  0  0  0  0
  7  8  1  0  0  0  0
  7  9  1  0  0  0  0
  9 10  1  0  0  0  0
  9 11  1  0  0  0  0
  9 19  1  0  0  0  0
 11 12  1  0  0  0  0
 11 13  1  0  0  0  0
 11 17  1  0  0  0  0
 13 14  1  0  0  0  0
 13 15  1  0  0  0  0
 13 16  1  0  0  0  0
 17 18  1  0  0  0  0
 19 20  2  0  0  0  0
 19 21  1  0  0  0  0
 21 22  1  0  0  0  0
 21 23  1  0  0  0  0
 23 24  1  0  0  0  0
 23 25  1  0  0  0  0
 23 26  1  0  0  0  0
M  END
$$$$

  -OEChem-01062216093D

 26 25  0     1  0  0  0  0  0999 V2000
   -3.5119   -2.8543    1.1294 H   0  0  0  0  0  0  0  0  0  0  0  0
   -3.2841   -1.8999    0.6459 C   0  0  0  0  0  0  0  0  0  0  0  0
   -3.8670   -1.1132    1.1314 H   0  0  0  0  0  0  0  0  0  0  0  0
   -3.5715   -1.9615   -0.4066 H   0  0  0  0  0  0  0  0  0  0  0  0
   -1.8023   -1.5945    0.7604 C   0  0  0  0  0  0  0  0  0  0  0  0
   -1.0659   -2.4178    1.2727 O   0  0  0  0  0  0  0  0  0  0  0  0
   -1.3278   -0.4027    0.2515 N   0  0  0  0  0  0  0  0  0  0  0  0
   -2.0608    0.2306   -0.0518 H   0  0  0  0  0  0  0  0  0  0  0  0
   -0.0070    0.2429    0.4667 C   0  0  1  0  0  0  0  0  0  0  0  0
    0.5659    0.0589   -0.4474 H   0  0  0  0  0  0  0  0  0  0  0  0
   -0.2228    1.7665    0.5907 C   0  0  1  0  0  0  0  0  0  0  0  0
    0.7519    2.2432    0.7471 H   0  0  0  0  0  0  0  0  0  0  0  0
   -0.8483    2.3773   -0.6652 C   0  0  0  0  0  0  0  0  0  0  0  0
   -1.8663    2.0088   -0.8201 H   0  0  0  0  0  0  0  0  0  0  0  0
   -0.8868    3.4667   -0.5720 H   0  0  0  0  0  0  0  0  0  0  0  0
   -0.2483    2.1295   -1.5463 H   0  0  0  0  0  0  0  0  0  0  0  0
   -1.0688    2.0582    1.7070 O   0  0  0  0  0  0  0  0  0  0  0  0
   -1.0385    3.0071    1.9201 H   0  0  0  0  0  0  0  0  0  0  0  0
    0.9490   -0.1932    1.6074 C   0  0  0  0  0  0  0  0  0  0  0  0
    2.1394    0.0789    1.4892 O   0  0  0  0  0  0  0  0  0  0  0  0
    0.5084   -0.7124    2.8111 N   0  0  0  0  0  0  0  0  0  0  0  0
   -0.3989   -1.1722    2.7552 H   0  0  0  0  0  0  0  0  0  0  0  0
    1.4214   -1.1531    3.8574 C   0  0  0  0  0  0  0  0  0  0  0  0
    2.0725   -0.3310    4.1723 H   0  0  0  0  0  0  0  0  0  0  0  0
    0.8562   -1.4958    4.7292 H   0  0  0  0  0  0  0  0  0  0  0  0
    2.0435   -1.9794    3.4979 H   0  0  0  0  0  0  0  0  0  0  0  0
  1  2  1  0  0  0  0
  2  3  1  0  0  0  0
  2  4  1  0  0  0  0
  2  5  1  0  0  0  0
  5  6  2  0  0  0  0
  5  7  1  0  0  0  0
  7  8  1  0  0  0  0
  7  9  1  0  0  0  0
  9 10  1  0  0  0  0
  9 11  1  0  0  0  0
  9 19  1  0  0  0  0
 11 12  1  0  0  0  0
 11 13  1  0  0  0  0
 11 17  1  0  0  0  0
 13 14  1  0  0  0  0
 13 15  1  0  0  0  0
 13 16  1  0  0  0  0
 17 18  1  0  0  0  0
 19 20  2  0  0  0  0
 19 21  1  0  0  0  0
 21 22  1  0  0  0  0
 21 23  1  0  0  0  0
 23 24  1  0  0  0  0
 23 25  1  0  0  0  0
 23 26  1  0  0  0  0
M  END
$$$$

  -OEChem-01062216093D

 26 25  0     1  0  0  0  0  0999 V2000
   -3.5796   -2.8045    1.0968 H   0  0  0  0  0  0  0  0  0  0  0  0
   -3.3317   -1.8419    0.6402 C   0  0  0  0  0  0  0  0  0  0  0  0
   -3.8593   -1.0519    1.1805 H   0  0  0  0  0  0  0  0  0  0  0  0
   -3.6656   -1.8499   -0.4003 H   0  0  0  0  0  0  0  0  0  0  0  0
   -1.8346   -1.6028    0.7014 C   0  0  0  0  0  0  0  0  0  0  0  0
   -1.1106   -2.4921    1.1120 O   0  0  0  0  0  0  0  0  0  0  0  0
   -1.3314   -0.4113    0.2207 N   0  0  0  0  0  0  0  0  0  0  0  0
   -2.0597    0.2537   -0.0210 H   0  0  0  0  0  0  0  0  0  0  0  0
   -0.0088    0.2214    0.4686 C   0  0  1  0  0  0  0  0  0  0  0  0
    0.5783    0.0444   -0.4374 H   0  0  0  0  0  0  0  0  0  0  0  0
   -0.2393    1.7450    0.5967 C   0  0  1  0  0  0  0  0  0  0  0  0
    0.7249    2.2341    0.7763 H   0  0  0  0  0  0  0  0  0  0  0  0
   -0.8424    2.3621   -0.6675 C   0  0  0  0  0  0  0  0  0  0  0  0
   -1.8551    1.9905   -0.8474 H   0  0  0  0  0  0  0  0  0  0  0  0
   -0.8878    3.4506   -0.5667 H   0  0  0  0  0  0  0  0  0  0  0  0
   -0.2224    2.1244   -1.5374 H   0  0  0  0  0  0  0  0  0  0  0  0
   -1.1125    2.0186    1.6966 O   0  0  0  0  0  0  0  0  0  0  0  0
   -1.0838    2.9635    1.9278 H   0  0  0  0  0  0  0  0  0  0  0  0
    0.9422   -0.2158    1.6183 C   0  0  0  0  0  0  0  0  0  0  0  0
    2.0861    0.2284    1.6094 O   0  0  0  0  0  0  0  0  0  0  0  0
    0.5649   -1.0016    2.6917 N   0  0  0  0  0  0  0  0  0  0  0  0
   -0.2646   -1.5722    2.5264 H   0  0  0  0  0  0  0  0  0  0  0  0
    1.5015   -1.4522    3.7131 C   0  0  0  0  0  0  0  0  0  0  0  0
    1.9701   -0.5956    4.2085 H   0  0  0  0  0  0  0  0  0  0  0  0
    0.9762   -2.0421    4.4701 H   0  0  0  0  0  0  0  0  0  0  0  0
    2.2838   -2.0752    3.2675 H   0  0  0  0  0  0  0  0  0  0  0  0
  1  2  1  0  0  0  0
  2  3  1  0  0  0  0
  2  4  1  0  0  0  0
  2  5  1  0  0  0  0
  5  6  2  0  0  0  0
  5  7  1  0  0  0  0
  7  8  1  0  0  0  0
  7  9  1  0  0  0  0
  9 10  1  0  0  0  0
  9 11  1  0  0  0  0
  9 19  1  0  0  0  0
 11 12  1  0  0  0  0
 11 13  1  0  0  0  0
 11 17  1  0  0  0  0
 13 14  1  0  0  0  0
 13 15  1  0  0  0  0
 13 16  1  0  0  0  0
 17 18  1  0  0  0  0
 19 20  2  0  0  0  0
 19 21  1  0  0  0  0
 21 22  1  0  0  0  0
 21 23  1  0  0  0  0
 23 24  1  0  0  0  0
 23 25  1  0  0  0  0
 23 26  1  0  0  0  0
M  END
$$$$

  -OEChem-01062216093D

 26 25  0     1  0  0  0  0  0999 V2000
   -3.0847   -2.9278    1.5598 H   0  0  0  0  0  0  0  0  0  0  0  0
   -2.9572   -1.9721    1.0438 C   0  0  0  0  0  0  0  0  0  0  0  0
   -3.3880   -1.1801    1.6615 H   0  0  0  0  0  0  0  0  0  0  0  0
   -3.4874   -2.0116    0.0893 H   0  0  0  0  0  0  0  0  0  0  0  0
   -1.4839   -1.6996    0.8087 C   0  0  0  0  0  0  0  0  0  0  0  0
   -0.6781   -2.6052    0.9281 O   0  0  0  0  0  0  0  0  0  0  0  0
   -1.0981   -0.5220    0.2102 N   0  0  0  0  0  0  0  0  0  0  0  0
   -1.9106    0.0525    0.0030 H   0  0  0  0  0  0  0  0  0  0  0  0
    0.0449    0.3279    0.6215 C   0  0  1  0  0  0  0  0  0  0  0  0
    0.8413    0.1275   -0.1007 H   0  0  0  0  0  0  0  0  0  0  0  0
   -0.4155    1.7933    0.4272 C   0  0  1  0  0  0  0  0  0  0  0  0
    0.4000    2.4682    0.7091 H   0  0  0  0  0  0  0  0  0  0  0  0
   -0.7874    2.1109   -1.0242 C   0  0  0  0  0  0  0  0  0  0  0  0
   -1.6661    1.5435   -1.3442 H   0  0  0  0  0  0  0  0  0  0  0  0
   -1.0095    3.1770   -1.1297 H   0  0  0  0  0  0  0  0  0  0  0  0
    0.0462    1.8667   -1.6898 H   0  0  0  0  0  0  0  0  0  0  0  0
   -1.5529    2.0565    1.2560 O   0  0  0  0  0  0  0  0  0  0  0  0
   -1.7082    3.0154    1.3220 H   0  0  0  0  0  0  0  0  0  0  0  0
    0.7531    0.1769    2.0041 C   0  0  0  0  0  0  0  0  0  0  0  0
    1.5345    1.0390    2.3836 O   0  0  0  0  0  0  0  0  0  0  0  0
    0.4551   -0.7129    3.0110 N   0  0  0  0  0  0  0  0  0  0  0  0
    0.5221   -0.2268    3.9010 H   0  0  0  0  0  0  0  0  0  0  0  0
    1.2219   -1.9544    3.0368 C   0  0  0  0  0  0  0  0  0  0  0  0
    2.0615   -1.8621    3.7328 H   0  0  0  0  0  0  0  0  0  0  0  0
    0.5860   -2.7831    3.3638 H   0  0  0  0  0  0  0  0  0  0  0  0
    1.6268   -2.1994    2.0486 H   0  0  0  0  0  0  0  0  0  0  0  0
  1  2  1  0  0  0  0
  2  3  1  0  0  0  0
  2  4  1  0  0  0  0
  2  5  1  0  0  0  0
  5  6  2  0  0  0  0
  5  7  1  0  0  0  0
  7  8  1  0  0  0  0
  7  9  1  0  0  0  0
  9 10  1  0  0  0  0
  9 11  1  0  0  0  0
  9 19  1  0  0  0  0
 11 12  1  0  0  0  0
 11 13  1  0  0  0  0
 11 17  1  0  0  0  0
 13 14  1  0  0  0  0
 13 15  1  0  0  0  0
 13 16  1  0  0  0  0
 17 18  1  0  0  0  0
 19 20  2  0  0  0  0
 19 21  1  0  0  0  0
 21 22  1  0  0  0  0
 21 23  1  0  0  0  0
 23 24  1  0  0  0  0
 23 25  1  0  0  0  0
 23 26  1  0  0  0  0
M  END
$$$$

  -OEChem-01062216093D

 26 25  0     1  0  0  0  0  0999 V2000
   -2.8578   -3.0914    1.7105 H   0  0  0  0  0  0  0  0  0  0  0  0
   -2.8370   -2.0748    1.3078 C   0  0  0  0  0  0  0  0  0  0  0  0
   -3.0575   -1.3726    2.1155 H   0  0  0  0  0  0  0  0  0  0  0  0
   -3.6042   -1.9855    0.5351 H   0  0  0  0  0  0  0  0  0  0  0  0
   -1.4714   -1.7750    0.7196 C   0  0  0  0  0  0  0  0  0  0  0  0
   -0.6831   -2.6858    0.5412 O   0  0  0  0  0  0  0  0  0  0  0  0
   -1.2168   -0.5224    0.2087 N   0  0  0  0  0  0  0  0  0  0  0  0
   -2.0073    0.1002    0.3464 H   0  0  0  0  0  0  0  0  0  0  0  0
    0.0723    0.2129    0.2357 C   0  0  1  0  0  0  0  0  0  0  0  0
    0.4760    0.1298   -0.7779 H   0  0  0  0  0  0  0  0  0  0  0  0
   -0.2794    1.6968    0.4960 C   0  0  1  0  0  0  0  0  0  0  0  0
    0.6441    2.2863    0.5188 H   0  0  0  0  0  0  0  0  0  0  0  0
   -1.1761    2.2952   -0.5915 C   0  0  0  0  0  0  0  0  0  0  0  0
   -2.1616    1.8208   -0.6024 H   0  0  0  0  0  0  0  0  0  0  0  0
   -1.3119    3.3669   -0.4177 H   0  0  0  0  0  0  0  0  0  0  0  0
   -0.7149    2.1638   -1.5753 H   0  0  0  0  0  0  0  0  0  0  0  0
   -0.9460    1.8216    1.7572 O   0  0  0  0  0  0  0  0  0  0  0  0
   -1.0081    2.7587    2.0147 H   0  0  0  0  0  0  0  0  0  0  0  0
    1.2873   -0.1514    1.1451 C   0  0  0  0  0  0  0  0  0  0  0  0
    2.3254    0.4745    0.9764 O   0  0  0  0  0  0  0  0  0  0  0  0
    1.5436   -1.2983    1.8596 N   0  0  0  0  0  0  0  0  0  0  0  0
    2.5424   -1.4051    2.0130 H   0  0  0  0  0  0  0  0  0  0  0  0
    0.7136   -1.6463    3.0061 C   0  0  0  0  0  0  0  0  0  0  0  0
    1.2731   -1.4826    3.9323 H   0  0  0  0  0  0  0  0  0  0  0  0
   -0.1922   -1.0330    3.0480 H   0  0  0  0  0  0  0  0  0  0  0  0
    0.4232   -2.7005    2.9587 H   0  0  0  0  0  0  0  0  0  0  0  0
  1  2  1  0  0  0  0
  2  3  1  0  0  0  0
  2  4  1  0  0  0  0
  2  5  1  0  0  0  0
  5  6  2  0  0  0  0
  5  7  1  0  0  0  0
  7  8  1  0  0  0  0
  7  9  1  0  0  0  0
  9 10  1  0  0  0  0
  9 11  1  0  0  0  0
  9 19  1  0  0  0  0
 11 12  1  0  0  0  0
 11 13  1  0  0  0  0
 11 17  1  0  0  0  0
 13 14  1  0  0  0  0
 13 15  1  0  0  0  0
 13 16  1  0  0  0  0
 17 18  1  0  0  0  0
 19 20  2  0  0  0  0
 19 21  1  0  0  0  0
 21 22  1  0  0  0  0
 21 23  1  0  0  0  0
 23 24  1  0  0  0  0
 23 25  1  0  0  0  0
 23 26  1  0  0  0  0
M  END
$$$$

  -OEChem-01062216093D

 26 25  0     1  0  0  0  0  0999 V2000
   -3.4971   -2.8177    1.1353 H   0  0  0  0  0  0  0  0  0  0  0  0
   -3.2807   -1.8203    0.7419 C   0  0  0  0  0  0  0  0  0  0  0  0
   -3.6839   -1.0761    1.4334 H   0  0  0  0  0  0  0  0  0  0  0  0
   -3.7708   -1.7100   -0.2285 H   0  0  0  0  0  0  0  0  0  0  0  0
   -1.7833   -1.6294    0.5910 C   0  0  0  0  0  0  0  0  0  0  0  0
   -1.0485   -2.5922    0.7219 O   0  0  0  0  0  0  0  0  0  0  0  0
   -1.3120   -0.4086    0.1534 N   0  0  0  0  0  0  0  0  0  0  0  0
   -2.0669    0.2660    0.0534 H   0  0  0  0  0  0  0  0  0  0  0  0
   -0.0051    0.2612    0.3933 C   0  0  1  0  0  0  0  0  0  0  0  0
    0.5747    0.1216   -0.5235 H   0  0  0  0  0  0  0  0  0  0  0  0
   -0.3086    1.7771    0.5239 C   0  0  1  0  0  0  0  0  0  0  0  0
    0.6227    2.3347    0.6729 H   0  0  0  0  0  0  0  0  0  0  0  0
   -0.9751    2.3522   -0.7298 C   0  0  0  0  0  0  0  0  0  0  0  0
   -1.9696    1.9259   -0.8874 H   0  0  0  0  0  0  0  0  0  0  0  0
   -1.0821    3.4363   -0.6265 H   0  0  0  0  0  0  0  0  0  0  0  0
   -0.3625    2.1500   -1.6134 H   0  0  0  0  0  0  0  0  0  0  0  0
   -1.1844    1.9992    1.6318 O   0  0  0  0  0  0  0  0  0  0  0  0
   -0.6916    1.8631    2.4639 H   0  0  0  0  0  0  0  0  0  0  0  0
    0.9757   -0.2036    1.5177 C   0  0  0  0  0  0  0  0  0  0  0  0
    1.6681    0.6316    2.0899 O   0  0  0  0  0  0  0  0  0  0  0  0
    1.0908   -1.5002    1.9777 N   0  0  0  0  0  0  0  0  0  0  0  0
    0.4949   -2.2003    1.5304 H   0  0  0  0  0  0  0  0  0  0  0  0
    1.9777   -1.9235    3.0542 C   0  0  0  0  0  0  0  0  0  0  0  0
    1.7200   -1.4123    3.9875 H   0  0  0  0  0  0  0  0  0  0  0  0
    1.8850   -3.0021    3.2140 H   0  0  0  0  0  0  0  0  0  0  0  0
    3.0196   -1.6995    2.8031 H   0  0  0  0  0  0  0  0  0  0  0  0
  1  2  1  0  0  0  0
  2  3  1  0  0  0  0
  2  4  1  0  0  0  0
  2  5  1  0  0  0  0
  5  6  2  0  0  0  0
  5  7  1  0  0  0  0
  7  8  1  0  0  0  0
  7  9  1  0  0  0  0
  9 10  1  0  0  0  0
  9 11  1  0  0  0  0
  9 19  1  0  0  0  0
 11 12  1  0  0  0  0
 11 13  1  0  0  0  0
 11 17  1  0  0  0  0
 13 14  1  0  0  0  0
 13 15  1  0  0  0  0
 13 16  1  0  0  0  0
 17 18  1  0  0  0  0
 19 20  2  0  0  0  0
 19 21  1  0  0  0  0
 21 22  1  0  0  0  0
 21 23  1  0  0  0  0
 23 24  1  0  0  0  0
 23 25  1  0  0  0  0
 23 26  1  0  0  0  0
M  END
$$$$

  -OEChem-01062216093D

 26 25  0     1  0  0  0  0  0999 V2000
   -3.4953   -2.7557    1.2373 H   0  0  0  0  0  0  0  0  0  0  0  0
   -3.2781   -1.7625    0.8340 C   0  0  0  0  0  0  0  0  0  0  0  0
   -3.6509   -1.0113    1.5348 H   0  0  0  0  0  0  0  0  0  0  0  0
   -3.7958   -1.6491   -0.1217 H   0  0  0  0  0  0  0  0  0  0  0  0
   -1.7835   -1.5914    0.6377 C   0  0  0  0  0  0  0  0  0  0  0  0
   -1.0551   -2.5584    0.7718 O   0  0  0  0  0  0  0  0  0  0  0  0
   -1.3112   -0.3828    0.1669 N   0  0  0  0  0  0  0  0  0  0  0  0
   -2.0568    0.3047    0.0851 H   0  0  0  0  0  0  0  0  0  0  0  0
    0.0181    0.2572    0.3520 C   0  0  1  0  0  0  0  0  0  0  0  0
    0.5627    0.0969   -0.5831 H   0  0  0  0  0  0  0  0  0  0  0  0
   -0.2295    1.7812    0.4848 C   0  0  1  0  0  0  0  0  0  0  0  0
    0.7284    2.3020    0.5976 H   0  0  0  0  0  0  0  0  0  0  0  0
   -0.9241    2.3731   -0.7448 C   0  0  0  0  0  0  0  0  0  0  0  0
   -1.9391    1.9823   -0.8580 H   0  0  0  0  0  0  0  0  0  0  0  0
   -0.9864    3.4610   -0.6450 H   0  0  0  0  0  0  0  0  0  0  0  0
   -0.3559    2.1428   -1.6510 H   0  0  0  0  0  0  0  0  0  0  0  0
   -1.0527    2.0350    1.6247 O   0  0  0  0  0  0  0  0  0  0  0  0
   -0.5374    1.8446    2.4338 H   0  0  0  0  0  0  0  0  0  0  0  0
    1.0126   -0.2398    1.4485 C   0  0  0  0  0  0  0  0  0  0  0  0
    1.5526    0.5749    2.1910 O   0  0  0  0  0  0  0  0  0  0  0  0
    1.2941   -1.5711    1.6830 N   0  0  0  0  0  0  0  0  0  0  0  0
    0.6876   -2.2436    1.2068 H   0  0  0  0  0  0  0  0  0  0  0  0
    2.1082   -2.0482    2.7941 C   0  0  0  0  0  0  0  0  0  0  0  0
    1.6419   -1.7887    3.7500 H   0  0  0  0  0  0  0  0  0  0  0  0
    2.2128   -3.1361    2.7423 H   0  0  0  0  0  0  0  0  0  0  0  0
    3.1086   -1.6047    2.7564 H   0  0  0  0  0  0  0  0  0  0  0  0
  1  2  1  0  0  0  0
  2  3  1  0  0  0  0
  2  4  1  0  0  0  0
  2  5  1  0  0  0  0
  5  6  2  0  0  0  0
  5  7  1  0  0  0  0
  7  8  1  0  0  0  0
  7  9  1  0  0  0  0
  9 10  1  0  0  0  0
  9 11  1  0  0  0  0
  9 19  1  0  0  0  0
 11 12  1  0  0  0  0
 11 13  1  0  0  0  0
 11 17  1  0  0  0  0
 13 14  1  0  0  0  0
 13 15  1  0  0  0  0
 13 16  1  0  0  0  0
 17 18  1  0  0  0  0
 19 20  2  0  0  0  0
 19 21  1  0  0  0  0
 21 22  1  0  0  0  0
 21 23  1  0  0  0  0
 23 24  1  0  0  0  0
 23 25  1  0  0  0  0
 23 26  1  0  0  0  0
M  END
$$$$

  -OEChem-01062216093D

 26 25  0     1  0  0  0  0  0999 V2000
   -3.3829   -2.7877    1.3256 H   0  0  0  0  0  0  0  0  0  0  0  0
   -3.2086   -1.8021    0.8847 C   0  0  0  0  0  0  0  0  0  0  0  0
   -3.6026   -1.0408    1.5626 H   0  0  0  0  0  0  0  0  0  0  0  0
   -3.7405   -1.7428   -0.0681 H   0  0  0  0  0  0  0  0  0  0  0  0
   -1.7238   -1.5822    0.6642 C   0  0  0  0  0  0  0  0  0  0  0  0
   -0.9554   -2.5162    0.8121 O   0  0  0  0  0  0  0  0  0  0  0  0
   -1.2954   -0.3692    0.1640 N   0  0  0  0  0  0  0  0  0  0  0  0
   -2.0546    0.3043    0.0918 H   0  0  0  0  0  0  0  0  0  0  0  0
    0.0277    0.2832    0.3323 C   0  0  1  0  0  0  0  0  0  0  0  0
    0.5708    0.1255   -0.6038 H   0  0  0  0  0  0  0  0  0  0  0  0
   -0.2176    1.8050    0.4707 C   0  0  1  0  0  0  0  0  0  0  0  0
    0.7449    2.3178    0.5799 H   0  0  0  0  0  0  0  0  0  0  0  0
   -0.9222    2.4008   -0.7506 C   0  0  0  0  0  0  0  0  0  0  0  0
   -1.9357    2.0046   -0.8583 H   0  0  0  0  0  0  0  0  0  0  0  0
   -0.9897    3.4878   -0.6447 H   0  0  0  0  0  0  0  0  0  0  0  0
   -0.3591    2.1779   -1.6617 H   0  0  0  0  0  0  0  0  0  0  0  0
   -1.0253    2.0559    1.6220 O   0  0  0  0  0  0  0  0  0  0  0  0
   -0.5099    1.8171    2.4199 H   0  0  0  0  0  0  0  0  0  0  0  0
    1.0086   -0.2194    1.4336 C   0  0  0  0  0  0  0  0  0  0  0  0
    1.3771    0.5443    2.3222 O   0  0  0  0  0  0  0  0  0  0  0  0
    1.4916   -1.5133    1.4562 N   0  0  0  0  0  0  0  0  0  0  0  0
    0.9268   -2.1824    0.9267 H   0  0  0  0  0  0  0  0  0  0  0  0
    2.3044   -2.0388    2.5462 C   0  0  0  0  0  0  0  0  0  0  0  0
    1.7424   -2.0217    3.4856 H   0  0  0  0  0  0  0  0  0  0  0  0
    2.5947   -3.0720    2.3333 H   0  0  0  0  0  0  0  0  0  0  0  0
    3.2159   -1.4445    2.6682 H   0  0  0  0  0  0  0  0  0  0  0  0
  1  2  1  0  0  0  0
  2  3  1  0  0  0  0
  2  4  1  0  0  0  0
  2  5  1  0  0  0  0
  5  6  2  0  0  0  0
  5  7  1  0  0  0  0
  7  8  1  0  0  0  0
  7  9  1  0  0  0  0
  9 10  1  0  0  0  0
  9 11  1  0  0  0  0
  9 19  1  0  0  0  0
 11 12  1  0  0  0  0
 11 13  1  0  0  0  0
 11 17  1  0  0  0  0
 13 14  1  0  0  0  0
 13 15  1  0  0  0  0
 13 16  1  0  0  0  0
 17 18  1  0  0  0  0
 19 20  2  0  0  0  0
 19 21  1  0  0  0  0
 21 22  1  0  0  0  0
 21 23  1  0  0  0  0
 23 24  1  0  0  0  0
 23 25  1  0  0  0  0
 23 26  1  0  0  0  0
M  END
$$$$

  -OEChem-01062216093D

 26 25  0     1  0  0  0  0  0999 V2000
   -3.2560   -2.8240    1.3966 H   0  0  0  0  0  0  0  0  0  0  0  0
   -3.1297   -1.8396    0.9371 C   0  0  0  0  0  0  0  0  0  0  0  0
   -3.5314   -1.0826    1.6153 H   0  0  0  0  0  0  0  0  0  0  0  0
   -3.6896   -1.8134   -0.0009 H   0  0  0  0  0  0  0  0  0  0  0  0
   -1.6605   -1.5705    0.6727 C   0  0  0  0  0  0  0  0  0  0  0  0
   -0.8488   -2.4682    0.8220 O   0  0  0  0  0  0  0  0  0  0  0  0
   -1.2808   -0.3540    0.1424 N   0  0  0  0  0  0  0  0  0  0  0  0
   -2.0539    0.3049    0.0853 H   0  0  0  0  0  0  0  0  0  0  0  0
    0.0342    0.3092    0.3103 C   0  0  1  0  0  0  0  0  0  0  0  0
    0.5880    0.1577   -0.6208 H   0  0  0  0  0  0  0  0  0  0  0  0
   -0.2131    1.8282    0.4578 C   0  0  1  0  0  0  0  0  0  0  0  0
    0.7516    2.3348    0.5762 H   0  0  0  0  0  0  0  0  0  0  0  0
   -0.9142    2.4336   -0.7604 C   0  0  0  0  0  0  0  0  0  0  0  0
   -1.9237    2.0303   -0.8795 H   0  0  0  0  0  0  0  0  0  0  0  0
   -0.9910    3.5187   -0.6413 H   0  0  0  0  0  0  0  0  0  0  0  0
   -0.3437    2.2262   -1.6706 H   0  0  0  0  0  0  0  0  0  0  0  0
   -1.0182    2.0721    1.6122 O   0  0  0  0  0  0  0  0  0  0  0  0
   -0.5189    1.7749    2.4028 H   0  0  0  0  0  0  0  0  0  0  0  0
    0.9828   -0.2033    1.4308 C   0  0  0  0  0  0  0  0  0  0  0  0
    1.1725    0.4734    2.4388 O   0  0  0  0  0  0  0  0  0  0  0  0
    1.6769   -1.3900    1.2869 N   0  0  0  0  0  0  0  0  0  0  0  0
    1.2173   -2.0582    0.6656 H   0  0  0  0  0  0  0  0  0  0  0  0
    2.5032   -1.9427    2.3534 C   0  0  0  0  0  0  0  0  0  0  0  0
    1.8915   -2.1717    3.2321 H   0  0  0  0  0  0  0  0  0  0  0  0
    2.9857   -2.8649    2.0158 H   0  0  0  0  0  0  0  0  0  0  0  0
    3.2852   -1.2328    2.6425 H   0  0  0  0  0  0  0  0  0  0  0  0
  1  2  1  0  0  0  0
  2  3  1  0  0  0  0
  2  4  1  0  0  0  0
  2  5  1  0  0  0  0
  5  6  2  0  0  0  0
  5  7  1  0  0  0  0
  7  8  1  0  0  0  0
  7  9  1  0  0  0  0
  9 10  1  0  0  0  0
  9 11  1  0  0  0  0
  9 19  1  0  0  0  0
 11 12  1  0  0  0  0
 11 13  1  0  0  0  0
 11 17  1  0  0  0  0
 13 14  1  0  0  0  0
 13 15  1  0  0  0  0
 13 16  1  0  0  0  0
 17 18  1  0  0  0  0
 19 20  2  0  0  0  0
 19 21  1  0  0  0  0
 21 22  1  0  0  0  0
 21 23  1  0  0  0  0
 23 24  1  0  0  0  0
 23 25  1  0  0  0  0
 23 26  1  0  0  0  0
M  END
$$$$

  -OEChem-01062216093D

 26 25  0     1  0  0  0  0  0999 V2000
   -3.1697   -2.8525    1.4361 H   0  0  0  0  0  0  0  0  0  0  0  0
   -3.0749   -1.8655    0.9745 C   0  0  0  0  0  0  0  0  0  0  0  0
   -3.4884   -1.1184    1.6566 H   0  0  0  0  0  0  0  0  0  0  0  0
   -3.6465   -1.8553    0.0433 H   0  0  0  0  0  0  0  0  0  0  0  0
   -1.6165   -1.5580    0.6925 C   0  0  0  0  0  0  0  0  0  0  0  0
   -0.7735   -2.4250    0.8537 O   0  0  0  0  0  0  0  0  0  0  0  0
   -1.2739   -0.3418    0.1358 N   0  0  0  0  0  0  0  0  0  0  0  0
   -2.0571    0.3055    0.0873 H   0  0  0  0  0  0  0  0  0  0  0  0
    0.0360    0.3288    0.2945 C   0  0  1  0  0  0  0  0  0  0  0  0
    0.5901    0.1791   -0.6365 H   0  0  0  0  0  0  0  0  0  0  0  0
   -0.2096    1.8464    0.4480 C   0  0  1  0  0  0  0  0  0  0  0  0
    0.7584    2.3469    0.5647 H   0  0  0  0  0  0  0  0  0  0  0  0
   -0.9158    2.4574   -0.7636 C   0  0  0  0  0  0  0  0  0  0  0  0
   -1.9275    2.0579   -0.8757 H   0  0  0  0  0  0  0  0  0  0  0  0
   -0.9876    3.5425   -0.6417 H   0  0  0  0  0  0  0  0  0  0  0  0
   -0.3527    2.2497   -1.6783 H   0  0  0  0  0  0  0  0  0  0  0  0
   -1.0052    2.0906    1.6090 O   0  0  0  0  0  0  0  0  0  0  0  0
   -0.5312    1.7258    2.3886 H   0  0  0  0  0  0  0  0  0  0  0  0
    0.9688   -0.1860    1.4237 C   0  0  0  0  0  0  0  0  0  0  0  0
    0.9717    0.3642    2.5229 O   0  0  0  0  0  0  0  0  0  0  0  0
    1.8783   -1.1966    1.1706 N   0  0  0  0  0  0  0  0  0  0  0  0
    1.6196   -1.8083    0.3987 H   0  0  0  0  0  0  0  0  0  0  0  0
    2.7049   -1.7729    2.2241 C   0  0  0  0  0  0  0  0  0  0  0  0
    2.0763   -2.2395    2.9899 H   0  0  0  0  0  0  0  0  0  0  0  0
    3.3693   -2.5356    1.8070 H   0  0  0  0  0  0  0  0  0  0  0  0
    3.3227   -1.0014    2.6955 H   0  0  0  0  0  0  0  0  0  0  0  0
  1  2  1  0  0  0  0
  2  3  1  0  0  0  0
  2  4  1  0  0  0  0
  2  5  1  0  0  0  0
  5  6  2  0  0  0  0
  5  7  1  0  0  0  0
  7  8  1  0  0  0  0
  7  9  1  0  0  0  0
  9 10  1  0  0  0  0
  9 11  1  0  0  0  0
  9 19  1  0  0  0  0
 11 12  1  0  0  0  0
 11 13  1  0  0  0  0
 11 17  1  0  0  0  0
 13 14  1  0  0  0  0
 13 15  1  0  0  0  0
 13 16  1  0  0  0  0
 17 18  1  0  0  0  0
 19 20  2  0  0  0  0
 19 21  1  0  0  0  0
 21 22  1  0  0  0  0
 21 23  1  0  0  0  0
 23 24  1  0  0  0  0
 23 25  1  0  0  0  0
 23 26  1  0  0  0  0
M  END
$$$$

  -OEChem-01062216093D

 26 25  0     1  0  0  0  0  0999 V2000
   -3.1158   -2.8632    1.4692 H   0  0  0  0  0  0  0  0  0  0  0  0
   -3.0402   -1.8729    1.0114 C   0  0  0  0  0  0  0  0  0  0  0  0
   -3.4407   -1.1329    1.7087 H   0  0  0  0  0  0  0  0  0  0  0  0
   -3.6357   -1.8613    0.0954 H   0  0  0  0  0  0  0  0  0  0  0  0
   -1.5916   -1.5533    0.6943 C   0  0  0  0  0  0  0  0  0  0  0  0
   -0.7348   -2.4088    0.8476 O   0  0  0  0  0  0  0  0  0  0  0  0
   -1.2708   -0.3390    0.1196 N   0  0  0  0  0  0  0  0  0  0  0  0
   -2.0594    0.3024    0.0819 H   0  0  0  0  0  0  0  0  0  0  0  0
    0.0361    0.3364    0.2772 C   0  0  1  0  0  0  0  0  0  0  0  0
    0.5920    0.1885   -0.6530 H   0  0  0  0  0  0  0  0  0  0  0  0
   -0.2094    1.8518    0.4392 C   0  0  1  0  0  0  0  0  0  0  0  0
    0.7592    2.3501    0.5593 H   0  0  0  0  0  0  0  0  0  0  0  0
   -0.9163    2.4702   -0.7680 C   0  0  0  0  0  0  0  0  0  0  0  0
   -1.9257    2.0663   -0.8847 H   0  0  0  0  0  0  0  0  0  0  0  0
   -0.9938    3.5537   -0.6364 H   0  0  0  0  0  0  0  0  0  0  0  0
   -0.3510    2.2731   -1.6837 H   0  0  0  0  0  0  0  0  0  0  0  0
   -1.0016    2.0892    1.6040 O   0  0  0  0  0  0  0  0  0  0  0  0
   -0.5610    1.6607    2.3720 H   0  0  0  0  0  0  0  0  0  0  0  0
    0.9565   -0.1743    1.4155 C   0  0  0  0  0  0  0  0  0  0  0  0
    0.7822    0.2181    2.5674 O   0  0  0  0  0  0  0  0  0  0  0  0
    2.0614   -0.9524    1.1213 N   0  0  0  0  0  0  0  0  0  0  0  0
    2.0265   -1.4357    0.2275 H   0  0  0  0  0  0  0  0  0  0  0  0
    2.8994   -1.5306    2.1646 C   0  0  0  0  0  0  0  0  0  0  0  0
    2.3149   -2.2169    2.7864 H   0  0  0  0  0  0  0  0  0  0  0  0
    3.7285   -2.0871    1.7171 H   0  0  0  0  0  0  0  0  0  0  0  0
    3.3181   -0.7455    2.8030 H   0  0  0  0  0  0  0  0  0  0  0  0
  1  2  1  0  0  0  0
  2  3  1  0  0  0  0
  2  4  1  0  0  0  0
  2  5  1  0  0  0  0
  5  6  2  0  0  0  0
  5  7  1  0  0  0  0
  7  8  1  0  0  0  0
  7  9  1  0  0  0  0
  9 10  1  0  0  0  0
  9 11  1  0  0  0  0
  9 19  1  0  0  0  0
 11 12  1  0  0  0  0
 11 13  1  0  0  0  0
 11 17  1  0  0  0  0
 13 14  1  0  0  0  0
 13 15  1  0  0  0  0
 13 16  1  0  0  0  0
 17 18  1  0  0  0  0
 19 20  2  0  0  0  0
 19 21  1  0  0  0  0
 21 22  1  0  0  0  0
 21 23  1  0  0  0  0
 23 24  1  0  0  0  0
 23 25  1  0  0  0  0
 23 26  1  0  0  0  0
M  END
$$$$

  -OEChem-01062216093D

 26 25  0     1  0  0  0  0  0999 V2000
   -3.0010   -2.9955    1.4134 H   0  0  0  0  0  0  0  0  0  0  0  0
   -2.9612   -1.9589    1.0669 C   0  0  0  0  0  0  0  0  0  0  0  0
   -3.2586   -1.3029    1.8890 H   0  0  0  0  0  0  0  0  0  0  0  0
   -3.6614   -1.8361    0.2373 H   0  0  0  0  0  0  0  0  0  0  0  0
   -1.5545   -1.6134    0.6172 C   0  0  0  0  0  0  0  0  0  0  0  0
   -0.6959   -2.4814    0.5747 O   0  0  0  0  0  0  0  0  0  0  0  0
   -1.2841   -0.3575    0.1121 N   0  0  0  0  0  0  0  0  0  0  0  0
   -2.0742    0.2726    0.2215 H   0  0  0  0  0  0  0  0  0  0  0  0
    0.0104    0.3149    0.3428 C   0  0  1  0  0  0  0  0  0  0  0  0
    0.5809    0.1869   -0.5808 H   0  0  0  0  0  0  0  0  0  0  0  0
   -0.2254    1.8311    0.5104 C   0  0  1  0  0  0  0  0  0  0  0  0
    0.7477    2.3035    0.6854 H   0  0  0  0  0  0  0  0  0  0  0  0
   -0.8515    2.4693   -0.7310 C   0  0  0  0  0  0  0  0  0  0  0  0
   -1.8565    2.0756   -0.9098 H   0  0  0  0  0  0  0  0  0  0  0  0
   -0.9233    3.5532   -0.6010 H   0  0  0  0  0  0  0  0  0  0  0  0
   -0.2363    2.2691   -1.6135 H   0  0  0  0  0  0  0  0  0  0  0  0
   -1.0729    2.0976    1.6298 O   0  0  0  0  0  0  0  0  0  0  0  0
   -0.9892    3.0220    1.9196 H   0  0  0  0  0  0  0  0  0  0  0  0
    0.9266   -0.2510    1.4593 C   0  0  0  0  0  0  0  0  0  0  0  0
    0.5955   -0.2040    2.6387 O   0  0  0  0  0  0  0  0  0  0  0  0
    2.1932   -0.7119    1.1404 N   0  0  0  0  0  0  0  0  0  0  0  0
    2.3588   -0.9199    0.1604 H   0  0  0  0  0  0  0  0  0  0  0  0
    3.0627   -1.3432    2.1259 C   0  0  0  0  0  0  0  0  0  0  0  0
    2.6008   -2.2584    2.5112 H   0  0  0  0  0  0  0  0  0  0  0  0
    4.0230   -1.6028    1.6706 H   0  0  0  0  0  0  0  0  0  0  0  0
    3.2525   -0.6640    2.9638 H   0  0  0  0  0  0  0  0  0  0  0  0
  1  2  1  0  0  0  0
  2  3  1  0  0  0  0
  2  4  1  0  0  0  0
  2  5  1  0  0  0  0
  5  6  2  0  0  0  0
  5  7  1  0  0  0  0
  7  8  1  0  0  0  0
  7  9  1  0  0  0  0
  9 10  1  0  0  0  0
  9 11  1  0  0  0  0
  9 19  1  0  0  0  0
 11 12  1  0  0  0  0
 11 13  1  0  0  0  0
 11 17  1  0  0  0  0
 13 14  1  0  0  0  0
 13 15  1  0  0  0  0
 13 16  1  0  0  0  0
 17 18  1  0  0  0  0
 19 20  2  0  0  0  0
 19 21  1  0  0  0  0
 21 22  1  0  0  0  0
 21 23  1  0  0  0  0
 23 24  1  0  0  0  0
 23 25  1  0  0  0  0
 23 26  1  0  0  0  0
M  END
$$$$

  -OEChem-01062216093D

 26 25  0     1  0  0  0  0  0999 V2000
   -2.9829   -2.9794    1.4606 H   0  0  0  0  0  0  0  0  0  0  0  0
   -2.9526   -1.9519    1.0878 C   0  0  0  0  0  0  0  0  0  0  0  0
   -3.2235   -1.2757    1.9025 H   0  0  0  0  0  0  0  0  0  0  0  0
   -3.6771   -1.8476    0.2771 H   0  0  0  0  0  0  0  0  0  0  0  0
   -1.5595   -1.6205    0.5881 C   0  0  0  0  0  0  0  0  0  0  0  0
   -0.7165   -2.4998    0.4939 O   0  0  0  0  0  0  0  0  0  0  0  0
   -1.2878   -0.3646    0.0837 N   0  0  0  0  0  0  0  0  0  0  0  0
   -2.0742    0.2666    0.2109 H   0  0  0  0  0  0  0  0  0  0  0  0
    0.0088    0.3016    0.3251 C   0  0  1  0  0  0  0  0  0  0  0  0
    0.5827    0.1733   -0.5967 H   0  0  0  0  0  0  0  0  0  0  0  0
   -0.2184    1.8162    0.5105 C   0  0  1  0  0  0  0  0  0  0  0  0
    0.7558    2.2838    0.6921 H   0  0  0  0  0  0  0  0  0  0  0  0
   -0.8410    2.4702   -0.7242 C   0  0  0  0  0  0  0  0  0  0  0  0
   -1.8476    2.0831   -0.9079 H   0  0  0  0  0  0  0  0  0  0  0  0
   -0.9075    3.5531   -0.5834 H   0  0  0  0  0  0  0  0  0  0  0  0
   -0.2262    2.2758   -1.6082 H   0  0  0  0  0  0  0  0  0  0  0  0
   -1.0658    2.0693    1.6328 O   0  0  0  0  0  0  0  0  0  0  0  0
   -1.0191    3.0020    1.9039 H   0  0  0  0  0  0  0  0  0  0  0  0
    0.9188   -0.2645    1.4459 C   0  0  0  0  0  0  0  0  0  0  0  0
    0.4975   -0.4249    2.5865 O   0  0  0  0  0  0  0  0  0  0  0  0
    2.2729   -0.4358    1.2087 N   0  0  0  0  0  0  0  0  0  0  0  0
    2.5712   -0.4283    0.2385 H   0  0  0  0  0  0  0  0  0  0  0  0
    3.1768   -1.0028    2.2025 C   0  0  0  0  0  0  0  0  0  0  0  0
    2.8722   -2.0235    2.4571 H   0  0  0  0  0  0  0  0  0  0  0  0
    4.1983   -1.0319    1.8117 H   0  0  0  0  0  0  0  0  0  0  0  0
    3.1751   -0.3964    3.1145 H   0  0  0  0  0  0  0  0  0  0  0  0
  1  2  1  0  0  0  0
  2  3  1  0  0  0  0
  2  4  1  0  0  0  0
  2  5  1  0  0  0  0
  5  6  2  0  0  0  0
  5  7  1  0  0  0  0
  7  8  1  0  0  0  0
  7  9  1  0  0  0  0
  9 10  1  0  0  0  0
  9 11  1  0  0  0  0
  9 19  1  0  0  0  0
 11 12  1  0  0  0  0
 11 13  1  0  0  0  0
 11 17  1  0  0  0  0
 13 14  1  0  0  0  0
 13 15  1  0  0  0  0
 13 16  1  0  0  0  0
 17 18  1  0  0  0  0
 19 20  2  0  0  0  0
 19 21  1  0  0  0  0
 21 22  1  0  0  0  0
 21 23  1  0  0  0  0
 23 24  1  0  0  0  0
 23 25  1  0  0  0  0
 23 26  1  0  0  0  0
M  END
$$$$

  -OEChem-01062216093D

 26 25  0     1  0  0  0  0  0999 V2000
   -3.0052   -2.9704    1.4527 H   0  0  0  0  0  0  0  0  0  0  0  0
   -2.9640   -1.9390    1.0915 C   0  0  0  0  0  0  0  0  0  0  0  0
   -3.2042   -1.2681    1.9201 H   0  0  0  0  0  0  0  0  0  0  0  0
   -3.7036   -1.8111    0.2980 H   0  0  0  0  0  0  0  0  0  0  0  0
   -1.5760   -1.6281    0.5654 C   0  0  0  0  0  0  0  0  0  0  0  0
   -0.7572   -2.5240    0.4250 O   0  0  0  0  0  0  0  0  0  0  0  0
   -1.2894   -0.3738    0.0659 N   0  0  0  0  0  0  0  0  0  0  0  0
   -2.0669    0.2651    0.2066 H   0  0  0  0  0  0  0  0  0  0  0  0
    0.0140    0.2783    0.3136 C   0  0  1  0  0  0  0  0  0  0  0  0
    0.5886    0.1505   -0.6078 H   0  0  0  0  0  0  0  0  0  0  0  0
   -0.2073    1.7919    0.5150 C   0  0  1  0  0  0  0  0  0  0  0  0
    0.7672    2.2575    0.7006 H   0  0  0  0  0  0  0  0  0  0  0  0
   -0.8300    2.4616   -0.7116 C   0  0  0  0  0  0  0  0  0  0  0  0
   -1.8374    2.0789   -0.9000 H   0  0  0  0  0  0  0  0  0  0  0  0
   -0.8947    3.5428   -0.5575 H   0  0  0  0  0  0  0  0  0  0  0  0
   -0.2160    2.2769   -1.5983 H   0  0  0  0  0  0  0  0  0  0  0  0
   -1.0536    2.0311    1.6411 O   0  0  0  0  0  0  0  0  0  0  0  0
   -1.0329    2.9677    1.9024 H   0  0  0  0  0  0  0  0  0  0  0  0
    0.9260   -0.2883    1.4336 C   0  0  0  0  0  0  0  0  0  0  0  0
    0.4707   -0.6246    2.5218 O   0  0  0  0  0  0  0  0  0  0  0  0
    2.3018   -0.1747    1.3095 N   0  0  0  0  0  0  0  0  0  0  0  0
    2.6684    0.0401    0.3877 H   0  0  0  0  0  0  0  0  0  0  0  0
    3.2293   -0.6403    2.3341 C   0  0  0  0  0  0  0  0  0  0  0  0
    3.1094   -1.7165    2.4982 H   0  0  0  0  0  0  0  0  0  0  0  0
    4.2612   -0.4490    2.0249 H   0  0  0  0  0  0  0  0  0  0  0  0
    3.0512   -0.1175    3.2797 H   0  0  0  0  0  0  0  0  0  0  0  0
  1  2  1  0  0  0  0
  2  3  1  0  0  0  0
  2  4  1  0  0  0  0
  2  5  1  0  0  0  0
  5  6  2  0  0  0  0
  5  7  1  0  0  0  0
  7  8  1  0  0  0  0
  7  9  1  0  0  0  0
  9 10  1  0  0  0  0
  9 11  1  0  0  0  0
  9 19  1  0  0  0  0
 11 12  1  0  0  0  0
 11 13  1  0  0  0  0
 11 17  1  0  0  0  0
 13 14  1  0  0  0  0
 13 15  1  0  0  0  0
 13 16  1  0  0  0  0
 17 18  1  0  0  0  0
 19 20  2  0  0  0  0
 19 21  1  0  0  0  0
 21 22  1  0  0  0  0
 21 23  1  0  0  0  0
 23 24  1  0  0  0  0
 23 25  1  0  0  0  0
 23 26  1  0  0  0  0
M  END
$$$$

  -OEChem-01062216093D

 26 25  0     1  0  0  0  0  0999 V2000
   -3.0289   -2.9599    1.4215 H   0  0  0  0  0  0  0  0  0  0  0  0
   -2.9563   -1.9112    1.1202 C   0  0  0  0  0  0  0  0  0  0  0  0
   -3.1160   -1.2820    1.9994 H   0  0  0  0  0  0  0  0  0  0  0  0
   -3.7317   -1.7003    0.3804 H   0  0  0  0  0  0  0  0  0  0  0  0
   -1.5852   -1.6330    0.5352 C   0  0  0  0  0  0  0  0  0  0  0  0
   -0.8051   -2.5500    0.3279 O   0  0  0  0  0  0  0  0  0  0  0  0
   -1.2809   -0.3805    0.0435 N   0  0  0  0  0  0  0  0  0  0  0  0
   -2.0483    0.2662    0.2021 H   0  0  0  0  0  0  0  0  0  0  0  0
    0.0285    0.2587    0.2992 C   0  0  1  0  0  0  0  0  0  0  0  0
    0.6057    0.1343   -0.6212 H   0  0  0  0  0  0  0  0  0  0  0  0
   -0.2013    1.7709    0.5115 C   0  0  1  0  0  0  0  0  0  0  0  0
    0.7672    2.2461    0.7017 H   0  0  0  0  0  0  0  0  0  0  0  0
   -0.8273    2.4454   -0.7111 C   0  0  0  0  0  0  0  0  0  0  0  0
   -1.8327    2.0589   -0.9028 H   0  0  0  0  0  0  0  0  0  0  0  0
   -0.8977    3.5253   -0.5505 H   0  0  0  0  0  0  0  0  0  0  0  0
   -0.2119    2.2694   -1.5985 H   0  0  0  0  0  0  0  0  0  0  0  0
   -1.0525    1.9921    1.6379 O   0  0  0  0  0  0  0  0  0  0  0  0
   -1.0661    2.9322    1.8875 H   0  0  0  0  0  0  0  0  0  0  0  0
    0.9461   -0.3059    1.4192 C   0  0  0  0  0  0  0  0  0  0  0  0
    0.4905   -0.8278    2.4312 O   0  0  0  0  0  0  0  0  0  0  0  0
    2.2795    0.0740    1.4491 N   0  0  0  0  0  0  0  0  0  0  0  0
    2.6650    0.4922    0.6086 H   0  0  0  0  0  0  0  0  0  0  0  0
    3.1945   -0.3103    2.5181 C   0  0  0  0  0  0  0  0  0  0  0  0
    3.2668   -1.4009    2.5865 H   0  0  0  0  0  0  0  0  0  0  0  0
    4.1933    0.0919    2.3239 H   0  0  0  0  0  0  0  0  0  0  0  0
    2.8470    0.0806    3.4802 H   0  0  0  0  0  0  0  0  0  0  0  0
  1  2  1  0  0  0  0
  2  3  1  0  0  0  0
  2  4  1  0  0  0  0
  2  5  1  0  0  0  0
  5  6  2  0  0  0  0
  5  7  1  0  0  0  0
  7  8  1  0  0  0  0
  7  9  1  0  0  0  0
  9 10  1  0  0  0  0
  9 11  1  0  0  0  0
  9 19  1  0  0  0  0
 11 12  1  0  0  0  0
 11 13  1  0  0  0  0
 11 17  1  0  0  0  0
 13 14  1  0  0  0  0
 13 15  1  0  0  0  0
 13 16  1  0  0  0  0
 17 18  1  0  0  0  0
 19 20  2  0  0  0  0
 19 21  1  0  0  0  0
 21 22  1  0  0  0  0
 21 23  1  0  0  0  0
 23 24  1  0  0  0  0
 23 25  1  0  0  0  0
 23 26  1  0  0  0  0
M  END
$$$$

  -OEChem-01062216093D

 26 25  0     1  0  0  0  0  0999 V2000
   -3.0135   -2.8552    1.5692 H   0  0  0  0  0  0  0  0  0  0  0  0
   -2.8958   -1.8101    1.2697 C   0  0  0  0  0  0  0  0  0  0  0  0
   -2.8409   -1.1921    2.1694 H   0  0  0  0  0  0  0  0  0  0  0  0
   -3.7631   -1.5098    0.6775 H   0  0  0  0  0  0  0  0  0  0  0  0
   -1.6259   -1.6446    0.4577 C   0  0  0  0  0  0  0  0  0  0  0  0
   -1.0620   -2.6232   -0.0046 O   0  0  0  0  0  0  0  0  0  0  0  0
   -1.2630   -0.4020   -0.0156 N   0  0  0  0  0  0  0  0  0  0  0  0
   -2.0015    0.2626    0.1915 H   0  0  0  0  0  0  0  0  0  0  0  0
    0.0613    0.2047    0.2609 C   0  0  1  0  0  0  0  0  0  0  0  0
    0.5423    0.3170   -0.7145 H   0  0  0  0  0  0  0  0  0  0  0  0
   -0.1957    1.6223    0.8285 C   0  0  1  0  0  0  0  0  0  0  0  0
    0.7650    2.1031    1.0389 H   0  0  0  0  0  0  0  0  0  0  0  0
   -0.9560    2.5207   -0.1508 C   0  0  0  0  0  0  0  0  0  0  0  0
   -1.9698    2.1487   -0.3263 H   0  0  0  0  0  0  0  0  0  0  0  0
   -1.0275    3.5363    0.2499 H   0  0  0  0  0  0  0  0  0  0  0  0
   -0.4313    2.5667   -1.1101 H   0  0  0  0  0  0  0  0  0  0  0  0
   -0.9474    1.5385    2.0411 O   0  0  0  0  0  0  0  0  0  0  0  0
   -0.9839    2.4004    2.4914 H   0  0  0  0  0  0  0  0  0  0  0  0
    1.1311   -0.5320    1.1243 C   0  0  0  0  0  0  0  0  0  0  0  0
    0.8717   -1.4752    1.8598 O   0  0  0  0  0  0  0  0  0  0  0  0
    2.3553    0.0849    1.3423 N   0  0  0  0  0  0  0  0  0  0  0  0
    2.5884    0.8843    0.7628 H   0  0  0  0  0  0  0  0  0  0  0  0
    3.3683   -0.4325    2.2564 C   0  0  0  0  0  0  0  0  0  0  0  0
    3.6556   -1.4509    1.9739 H   0  0  0  0  0  0  0  0  0  0  0  0
    4.2614    0.1988    2.2279 H   0  0  0  0  0  0  0  0  0  0  0  0
    2.9872   -0.4455    3.2830 H   0  0  0  0  0  0  0  0  0  0  0  0
  1  2  1  0  0  0  0
  2  3  1  0  0  0  0
  2  4  1  0  0  0  0
  2  5  1  0  0  0  0
  5  6  2  0  0  0  0
  5  7  1  0  0  0  0
  7  8  1  0  0  0  0
  7  9  1  0  0  0  0
  9 10  1  0  0  0  0
  9 11  1  0  0  0  0
  9 19  1  0  0  0  0
 11 12  1  0  0  0  0
 11 13  1  0  0  0  0
 11 17  1  0  0  0  0
 13 14  1  0  0  0  0
 13 15  1  0  0  0  0
 13 16  1  0  0  0  0
 17 18  1  0  0  0  0
 19 20  2  0  0  0  0
 19 21  1  0  0  0  0
 21 22  1  0  0  0  0
 21 23  1  0  0  0  0
 23 24  1  0  0  0  0
 23 25  1  0  0  0  0
 23 26  1  0  0  0  0
M  END
$$$$

  -OEChem-01062216093D

 26 25  0     1  0  0  0  0  0999 V2000
   -3.2030   -3.0568    1.2724 H   0  0  0  0  0  0  0  0  0  0  0  0
   -3.0061   -2.1745    0.6567 C   0  0  0  0  0  0  0  0  0  0  0  0
   -3.9067   -1.5570    0.6262 H   0  0  0  0  0  0  0  0  0  0  0  0
   -2.7590   -2.5034   -0.3555 H   0  0  0  0  0  0  0  0  0  0  0  0
   -1.8516   -1.3810    1.2395 C   0  0  0  0  0  0  0  0  0  0  0  0
   -1.4687   -1.6463    2.3659 O   0  0  0  0  0  0  0  0  0  0  0  0
   -1.4273   -0.2401    0.5817 N   0  0  0  0  0  0  0  0  0  0  0  0
   -1.9705   -0.0436   -0.2503 H   0  0  0  0  0  0  0  0  0  0  0  0
   -0.0479    0.3194    0.5678 C   0  0  1  0  0  0  0  0  0  0  0  0
    0.2946    0.2797   -0.4699 H   0  0  0  0  0  0  0  0  0  0  0  0
   -0.0965    1.8143    0.9792 C   0  0  1  0  0  0  0  0  0  0  0  0
    0.9096    2.2425    0.9326 H   0  0  0  0  0  0  0  0  0  0  0  0
   -0.9821    2.6296    0.0338 C   0  0  0  0  0  0  0  0  0  0  0  0
   -2.0286    2.3192    0.1118 H   0  0  0  0  0  0  0  0  0  0  0  0
   -0.9194    3.6932    0.2827 H   0  0  0  0  0  0  0  0  0  0  0  0
   -0.6546    2.5006   -1.0023 H   0  0  0  0  0  0  0  0  0  0  0  0
   -0.6173    1.9684    2.2994 O   0  0  0  0  0  0  0  0  0  0  0  0
   -0.7418    2.9050    2.5262 H   0  0  0  0  0  0  0  0  0  0  0  0
    1.0653   -0.4309    1.3546 C   0  0  0  0  0  0  0  0  0  0  0  0
    1.1555   -1.6470    1.2216 O   0  0  0  0  0  0  0  0  0  0  0  0
    2.2673    0.2048    1.6358 N   0  0  0  0  0  0  0  0  0  0  0  0
    2.2049    1.2024    1.8105 H   0  0  0  0  0  0  0  0  0  0  0  0
    3.4361   -0.4997    2.1541 C   0  0  0  0  0  0  0  0  0  0  0  0
    3.8075   -1.2218    1.4193 H   0  0  0  0  0  0  0  0  0  0  0  0
    4.2387    0.2109    2.3727 H   0  0  0  0  0  0  0  0  0  0  0  0
    3.1842   -1.0335    3.0766 H   0  0  0  0  0  0  0  0  0  0  0  0
  1  2  1  0  0  0  0
  2  3  1  0  0  0  0
  2  4  1  0  0  0  0
  2  5  1  0  0  0  0
  5  6  2  0  0  0  0
  5  7  1  0  0  0  0
  7  8  1  0  0  0  0
  7  9  1  0  0  0  0
  9 10  1  0  0  0  0
  9 11  1  0  0  0  0
  9 19  1  0  0  0  0
 11 12  1  0  0  0  0
 11 13  1  0  0  0  0
 11 17  1  0  0  0  0
 13 14  1  0  0  0  0
 13 15  1  0  0  0  0
 13 16  1  0  0  0  0
 17 18  1  0  0  0  0
 19 20  2  0  0  0  0
 19 21  1  0  0  0  0
 21 22  1  0  0  0  0
 21 23  1  0  0  0  0
 23 24  1  0  0  0  0
 23 25  1  0  0  0  0
 23 26  1  0  0  0  0
M  END
$$$$

  -OEChem-01062216093D

 26 25  0     1  0  0  0  0  0999 V2000
   -3.2253   -3.0404    1.2805 H   0  0  0  0  0  0  0  0  0  0  0  0
   -3.0347   -2.1498    0.6748 C   0  0  0  0  0  0  0  0  0  0  0  0
   -3.9145   -1.5031    0.7113 H   0  0  0  0  0  0  0  0  0  0  0  0
   -2.8586   -2.4608   -0.3575 H   0  0  0  0  0  0  0  0  0  0  0  0
   -1.8223   -1.4082    1.2069 C   0  0  0  0  0  0  0  0  0  0  0  0
   -1.3520   -1.7489    2.2785 O   0  0  0  0  0  0  0  0  0  0  0  0
   -1.4124   -0.2556    0.5596 N   0  0  0  0  0  0  0  0  0  0  0  0
   -1.9853   -0.0228   -0.2430 H   0  0  0  0  0  0  0  0  0  0  0  0
   -0.0432    0.3263    0.5493 C   0  0  1  0  0  0  0  0  0  0  0  0
    0.3037    0.2911   -0.4872 H   0  0  0  0  0  0  0  0  0  0  0  0
   -0.0990    1.8208    0.9582 C   0  0  1  0  0  0  0  0  0  0  0  0
    0.9061    2.2520    0.9058 H   0  0  0  0  0  0  0  0  0  0  0  0
   -0.9918    2.6269    0.0123 C   0  0  0  0  0  0  0  0  0  0  0  0
   -2.0357    2.3086    0.0930 H   0  0  0  0  0  0  0  0  0  0  0  0
   -0.9357    3.6916    0.2577 H   0  0  0  0  0  0  0  0  0  0  0  0
   -0.6645    2.4968   -1.0237 H   0  0  0  0  0  0  0  0  0  0  0  0
   -0.6197    1.9769    2.2789 O   0  0  0  0  0  0  0  0  0  0  0  0
   -0.7626    2.9139    2.4943 H   0  0  0  0  0  0  0  0  0  0  0  0
    1.0629   -0.4295    1.3373 C   0  0  0  0  0  0  0  0  0  0  0  0
    1.2846   -1.5957    1.0260 O   0  0  0  0  0  0  0  0  0  0  0  0
    2.1244    0.2528    1.9135 N   0  0  0  0  0  0  0  0  0  0  0  0
    1.8913    1.1726    2.2766 H   0  0  0  0  0  0  0  0  0  0  0  0
    3.2778   -0.4292    2.4911 C   0  0  0  0  0  0  0  0  0  0  0  0
    3.8178   -0.9908    1.7214 H   0  0  0  0  0  0  0  0  0  0  0  0
    3.9662    0.2993    2.9298 H   0  0  0  0  0  0  0  0  0  0  0  0
    2.9594   -1.1233    3.2761 H   0  0  0  0  0  0  0  0  0  0  0  0
  1  2  1  0  0  0  0
  2  3  1  0  0  0  0
  2  4  1  0  0  0  0
  2  5  1  0  0  0  0
  5  6  2  0  0  0  0
  5  7  1  0  0  0  0
  7  8  1  0  0  0  0
  7  9  1  0  0  0  0
  9 10  1  0  0  0  0
  9 11  1  0  0  0  0
  9 19  1  0  0  0  0
 11 12  1  0  0  0  0
 11 13  1  0  0  0  0
 11 17  1  0  0  0  0
 13 14  1  0  0  0  0
 13 15  1  0  0  0  0
 13 16  1  0  0  0  0
 17 18  1  0  0  0  0
 19 20  2  0  0  0  0
 19 21  1  0  0  0  0
 21 22  1  0  0  0  0
 21 23  1  0  0  0  0
 23 24  1  0  0  0  0
 23 25  1  0  0  0  0
 23 26  1  0  0  0  0
M  END
$$$$

  -OEChem-01062216093D

 26 25  0     1  0  0  0  0  0999 V2000
   -3.2253   -3.0498    1.2448 H   0  0  0  0  0  0  0  0  0  0  0  0
   -3.0745   -2.1116    0.7029 C   0  0  0  0  0  0  0  0  0  0  0  0
   -3.9253   -1.4533    0.8942 H   0  0  0  0  0  0  0  0  0  0  0  0
   -3.0211   -2.3305   -0.3662 H   0  0  0  0  0  0  0  0  0  0  0  0
   -1.7901   -1.4456    1.1611 C   0  0  0  0  0  0  0  0  0  0  0  0
   -1.2332   -1.8779    2.1548 O   0  0  0  0  0  0  0  0  0  0  0  0
   -1.3863   -0.2828    0.5276 N   0  0  0  0  0  0  0  0  0  0  0  0
   -2.0018    0.0117   -0.2216 H   0  0  0  0  0  0  0  0  0  0  0  0
   -0.0280    0.3220    0.5228 C   0  0  1  0  0  0  0  0  0  0  0  0
    0.3208    0.2968   -0.5137 H   0  0  0  0  0  0  0  0  0  0  0  0
   -0.1009    1.8132    0.9384 C   0  0  1  0  0  0  0  0  0  0  0  0
    0.9029    2.2495    0.8903 H   0  0  0  0  0  0  0  0  0  0  0  0
   -0.9992    2.6151   -0.0056 C   0  0  0  0  0  0  0  0  0  0  0  0
   -2.0395    2.2844    0.0693 H   0  0  0  0  0  0  0  0  0  0  0  0
   -0.9563    3.6787    0.2472 H   0  0  0  0  0  0  0  0  0  0  0  0
   -0.6669    2.4958   -1.0414 H   0  0  0  0  0  0  0  0  0  0  0  0
   -0.6243    1.9596    2.2607 O   0  0  0  0  0  0  0  0  0  0  0  0
   -0.7741    2.8958    2.4768 H   0  0  0  0  0  0  0  0  0  0  0  0
    1.0817   -0.4263    1.3089 C   0  0  0  0  0  0  0  0  0  0  0  0
    1.4508   -1.5127    0.8743 O   0  0  0  0  0  0  0  0  0  0  0  0
    1.9553    0.2471    2.1479 N   0  0  0  0  0  0  0  0  0  0  0  0
    1.5538    1.0667    2.5976 H   0  0  0  0  0  0  0  0  0  0  0  0
    3.0636   -0.4220    2.8187 C   0  0  0  0  0  0  0  0  0  0  0  0
    3.7813   -0.8046    2.0855 H   0  0  0  0  0  0  0  0  0  0  0  0
    3.5853    0.2791    3.4770 H   0  0  0  0  0  0  0  0  0  0  0  0
    2.6961   -1.2585    3.4228 H   0  0  0  0  0  0  0  0  0  0  0  0
  1  2  1  0  0  0  0
  2  3  1  0  0  0  0
  2  4  1  0  0  0  0
  2  5  1  0  0  0  0
  5  6  2  0  0  0  0
  5  7  1  0  0  0  0
  7  8  1  0  0  0  0
  7  9  1  0  0  0  0
  9 10  1  0  0  0  0
  9 11  1  0  0  0  0
  9 19  1  0  0  0  0
 11 12  1  0  0  0  0
 11 13  1  0  0  0  0
 11 17  1  0  0  0  0
 13 14  1  0  0  0  0
 13 15  1  0  0  0  0
 13 16  1  0  0  0  0
 17 18  1  0  0  0  0
 19 20  2  0  0  0  0
 19 21  1  0  0  0  0
 21 22  1  0  0  0  0
 21 23  1  0  0  0  0
 23 24  1  0  0  0  0
 23 25  1  0  0  0  0
 23 26  1  0  0  0  0
M  END
$$$$

  -OEChem-01062216093D

 26 25  0     1  0  0  0  0  0999 V2000
   -3.2592   -3.0263    1.2444 H   0  0  0  0  0  0  0  0  0  0  0  0
   -3.1001   -2.0834    0.7128 C   0  0  0  0  0  0  0  0  0  0  0  0
   -3.9104   -1.3953    0.9656 H   0  0  0  0  0  0  0  0  0  0  0  0
   -3.1171   -2.2809   -0.3617 H   0  0  0  0  0  0  0  0  0  0  0  0
   -1.7651   -1.4795    1.1086 C   0  0  0  0  0  0  0  0  0  0  0  0
   -1.1420   -1.9929    2.0208 O   0  0  0  0  0  0  0  0  0  0  0  0
   -1.3647   -0.3057    0.4937 N   0  0  0  0  0  0  0  0  0  0  0  0
   -2.0153    0.0483   -0.1981 H   0  0  0  0  0  0  0  0  0  0  0  0
   -0.0158    0.3168    0.5044 C   0  0  1  0  0  0  0  0  0  0  0  0
    0.3373    0.3073   -0.5310 H   0  0  0  0  0  0  0  0  0  0  0  0
   -0.1105    1.8020    0.9355 C   0  0  1  0  0  0  0  0  0  0  0  0
    0.8929    2.2419    0.9050 H   0  0  0  0  0  0  0  0  0  0  0  0
   -1.0038    2.6067   -0.0111 C   0  0  0  0  0  0  0  0  0  0  0  0
   -2.0429    2.2692    0.0498 H   0  0  0  0  0  0  0  0  0  0  0  0
   -0.9695    3.6685    0.2506 H   0  0  0  0  0  0  0  0  0  0  0  0
   -0.6601    2.4982   -1.0444 H   0  0  0  0  0  0  0  0  0  0  0  0
   -0.6453    1.9338    2.2565 O   0  0  0  0  0  0  0  0  0  0  0  0
   -0.7781    2.8701    2.4855 H   0  0  0  0  0  0  0  0  0  0  0  0
    1.1008   -0.4193    1.2890 C   0  0  0  0  0  0  0  0  0  0  0  0
    1.6247   -1.3964    0.7640 O   0  0  0  0  0  0  0  0  0  0  0  0
    1.7546    0.1794    2.3524 N   0  0  0  0  0  0  0  0  0  0  0  0
    1.2025    0.8872    2.8345 H   0  0  0  0  0  0  0  0  0  0  0  0
    2.8125   -0.4922    3.0960 C   0  0  0  0  0  0  0  0  0  0  0  0
    3.6646   -0.7065    2.4425 H   0  0  0  0  0  0  0  0  0  0  0  0
    3.1593    0.1436    3.9159 H   0  0  0  0  0  0  0  0  0  0  0  0
    2.4448   -1.4341    3.5169 H   0  0  0  0  0  0  0  0  0  0  0  0
  1  2  1  0  0  0  0
  2  3  1  0  0  0  0
  2  4  1  0  0  0  0
  2  5  1  0  0  0  0
  5  6  2  0  0  0  0
  5  7  1  0  0  0  0
  7  8  1  0  0  0  0
  7  9  1  0  0  0  0
  9 10  1  0  0  0  0
  9 11  1  0  0  0  0
  9 19  1  0  0  0  0
 11 12  1  0  0  0  0
 11 13  1  0  0  0  0
 11 17  1  0  0  0  0
 13 14  1  0  0  0  0
 13 15  1  0  0  0  0
 13 16  1  0  0  0  0
 17 18  1  0  0  0  0
 19 20  2  0  0  0  0
 19 21  1  0  0  0  0
 21 22  1  0  0  0  0
 21 23  1  0  0  0  0
 23 24  1  0  0  0  0
 23 25  1  0  0  0  0
 23 26  1  0  0  0  0
M  END
$$$$

  -OEChem-01062216093D

 26 25  0     1  0  0  0  0  0999 V2000
   -3.2792   -3.0088    1.2301 H   0  0  0  0  0  0  0  0  0  0  0  0
   -3.1218   -2.0508    0.7261 C   0  0  0  0  0  0  0  0  0  0  0  0
   -3.8863   -1.3465    1.0627 H   0  0  0  0  0  0  0  0  0  0  0  0
   -3.2212   -2.2020   -0.3514 H   0  0  0  0  0  0  0  0  0  0  0  0
   -1.7411   -1.5104    1.0500 C   0  0  0  0  0  0  0  0  0  0  0  0
   -1.0656   -2.0970    1.8763 O   0  0  0  0  0  0  0  0  0  0  0  0
   -1.3396   -0.3287    0.4521 N   0  0  0  0  0  0  0  0  0  0  0  0
   -2.0227    0.0870   -0.1708 H   0  0  0  0  0  0  0  0  0  0  0  0
    0.0009    0.3090    0.4871 C   0  0  1  0  0  0  0  0  0  0  0  0
    0.3653    0.3160   -0.5448 H   0  0  0  0  0  0  0  0  0  0  0  0
   -0.1254    1.7866    0.9332 C   0  0  1  0  0  0  0  0  0  0  0  0
    0.8751    2.2342    0.9310 H   0  0  0  0  0  0  0  0  0  0  0  0
   -1.0072    2.5954   -0.0201 C   0  0  0  0  0  0  0  0  0  0  0  0
   -2.0424    2.2428    0.0094 H   0  0  0  0  0  0  0  0  0  0  0  0
   -0.9944    3.6524    0.2621 H   0  0  0  0  0  0  0  0  0  0  0  0
   -0.6364    2.5103   -1.0462 H   0  0  0  0  0  0  0  0  0  0  0  0
   -0.6838    1.8976    2.2480 O   0  0  0  0  0  0  0  0  0  0  0  0
   -0.7912    2.8317    2.4988 H   0  0  0  0  0  0  0  0  0  0  0  0
    1.1226   -0.4079    1.2798 C   0  0  0  0  0  0  0  0  0  0  0  0
    1.8058   -1.2442    0.6985 O   0  0  0  0  0  0  0  0  0  0  0  0
    1.5405    0.0518    2.5159 N   0  0  0  0  0  0  0  0  0  0  0  0
    0.8620    0.6432    2.9948 H   0  0  0  0  0  0  0  0  0  0  0  0
    2.5455   -0.6395    3.3119 C   0  0  0  0  0  0  0  0  0  0  0  0
    3.4893   -0.7125    2.7615 H   0  0  0  0  0  0  0  0  0  0  0  0
    2.7316   -0.0937    4.2416 H   0  0  0  0  0  0  0  0  0  0  0  0
    2.2038   -1.6494    3.5622 H   0  0  0  0  0  0  0  0  0  0  0  0
  1  2  1  0  0  0  0
  2  3  1  0  0  0  0
  2  4  1  0  0  0  0
  2  5  1  0  0  0  0
  5  6  2  0  0  0  0
  5  7  1  0  0  0  0
  7  8  1  0  0  0  0
  7  9  1  0  0  0  0
  9 10  1  0  0  0  0
  9 11  1  0  0  0  0
  9 19  1  0  0  0  0
 11 12  1  0  0  0  0
 11 13  1  0  0  0  0
 11 17  1  0  0  0  0
 13 14  1  0  0  0  0
 13 15  1  0  0  0  0
 13 16  1  0  0  0  0
 17 18  1  0  0  0  0
 19 20  2  0  0  0  0
 19 21  1  0  0  0  0
 21 22  1  0  0  0  0
 21 23  1  0  0  0  0
 23 24  1  0  0  0  0
 23 25  1  0  0  0  0
 23 26  1  0  0  0  0
M  END
$$$$

  -OEChem-01062216093D

 26 25  0     1  0  0  0  0  0999 V2000
   -3.3021   -2.9769    1.2491 H   0  0  0  0  0  0  0  0  0  0  0  0
   -3.1339   -2.0243    0.7384 C   0  0  0  0  0  0  0  0  0  0  0  0
   -3.8587   -1.2950    1.1079 H   0  0  0  0  0  0  0  0  0  0  0  0
   -3.2848   -2.1704   -0.3338 H   0  0  0  0  0  0  0  0  0  0  0  0
   -1.7226   -1.5319    1.0010 C   0  0  0  0  0  0  0  0  0  0  0  0
   -1.0110   -2.1755    1.7507 O   0  0  0  0  0  0  0  0  0  0  0  0
   -1.3193   -0.3454    0.4148 N   0  0  0  0  0  0  0  0  0  0  0  0
   -2.0283    0.1223   -0.1386 H   0  0  0  0  0  0  0  0  0  0  0  0
    0.0138    0.3051    0.4743 C   0  0  1  0  0  0  0  0  0  0  0  0
    0.3904    0.3242   -0.5530 H   0  0  0  0  0  0  0  0  0  0  0  0
   -0.1391    1.7755    0.9312 C   0  0  1  0  0  0  0  0  0  0  0  0
    0.8578    2.2305    0.9529 H   0  0  0  0  0  0  0  0  0  0  0  0
   -1.0110    2.5862   -0.0295 C   0  0  0  0  0  0  0  0  0  0  0  0
   -2.0430    2.2237   -0.0227 H   0  0  0  0  0  0  0  0  0  0  0  0
   -1.0137    3.6401    0.2641 H   0  0  0  0  0  0  0  0  0  0  0  0
   -0.6212    2.5162   -1.0496 H   0  0  0  0  0  0  0  0  0  0  0  0
   -0.7200    1.8669    2.2381 O   0  0  0  0  0  0  0  0  0  0  0  0
   -0.7871    2.7964    2.5186 H   0  0  0  0  0  0  0  0  0  0  0  0
    1.1370   -0.3914    1.2814 C   0  0  0  0  0  0  0  0  0  0  0  0
    1.9743   -1.0536    0.6782 O   0  0  0  0  0  0  0  0  0  0  0  0
    1.3266   -0.1281    2.6254 N   0  0  0  0  0  0  0  0  0  0  0  0
    0.5422    0.3361    3.0815 H   0  0  0  0  0  0  0  0  0  0  0  0
    2.2811   -0.8603    3.4459 C   0  0  0  0  0  0  0  0  0  0  0  0
    3.2935   -0.7609    3.0407 H   0  0  0  0  0  0  0  0  0  0  0  0
    2.2794   -0.4678    4.4670 H   0  0  0  0  0  0  0  0  0  0  0  0
    2.0163   -1.9224    3.4793 H   0  0  0  0  0  0  0  0  0  0  0  0
  1  2  1  0  0  0  0
  2  3  1  0  0  0  0
  2  4  1  0  0  0  0
  2  5  1  0  0  0  0
  5  6  2  0  0  0  0
  5  7  1  0  0  0  0
  7  8  1  0  0  0  0
  7  9  1  0  0  0  0
  9 10  1  0  0  0  0
  9 11  1  0  0  0  0
  9 19  1  0  0  0  0
 11 12  1  0  0  0  0
 11 13  1  0  0  0  0
 11 17  1  0  0  0  0
 13 14  1  0  0  0  0
 13 15  1  0  0  0  0
 13 16  1  0  0  0  0
 17 18  1  0  0  0  0
 19 20  2  0  0  0  0
 19 21  1  0  0  0  0
 21 22  1  0  0  0  0
 21 23  1  0  0  0  0
 23 24  1  0  0  0  0
 23 25  1  0  0  0  0
 23 26  1  0  0  0  0
M  END
$$$$

  -OEChem-01062216093D

 26 25  0     1  0  0  0  0  0999 V2000
   -3.3520   -2.9327    1.2550 H   0  0  0  0  0  0  0  0  0  0  0  0
   -3.1667   -1.9846    0.7419 C   0  0  0  0  0  0  0  0  0  0  0  0
   -3.8420   -1.2280    1.1487 H   0  0  0  0  0  0  0  0  0  0  0  0
   -3.3734   -2.1160   -0.3229 H   0  0  0  0  0  0  0  0  0  0  0  0
   -1.7250   -1.5549    0.9411 C   0  0  0  0  0  0  0  0  0  0  0  0
   -0.9917   -2.2631    1.6062 O   0  0  0  0  0  0  0  0  0  0  0  0
   -1.3067   -0.3671    0.3693 N   0  0  0  0  0  0  0  0  0  0  0  0
   -2.0336    0.1572   -0.1047 H   0  0  0  0  0  0  0  0  0  0  0  0
    0.0220    0.2883    0.4661 C   0  0  1  0  0  0  0  0  0  0  0  0
    0.4192    0.3169   -0.5535 H   0  0  0  0  0  0  0  0  0  0  0  0
   -0.1526    1.7512    0.9329 C   0  0  1  0  0  0  0  0  0  0  0  0
    0.8412    2.2110    0.9874 H   0  0  0  0  0  0  0  0  0  0  0  0
   -1.0036    2.5699   -0.0393 C   0  0  0  0  0  0  0  0  0  0  0  0
   -2.0352    2.2065   -0.0601 H   0  0  0  0  0  0  0  0  0  0  0  0
   -1.0143    3.6209    0.2646 H   0  0  0  0  0  0  0  0  0  0  0  0
   -0.5899    2.5102   -1.0507 H   0  0  0  0  0  0  0  0  0  0  0  0
   -0.7665    1.8172    2.2258 O   0  0  0  0  0  0  0  0  0  0  0  0
   -0.7903    2.7355    2.5468 H   0  0  0  0  0  0  0  0  0  0  0  0
    1.1398   -0.3853    1.2987 C   0  0  0  0  0  0  0  0  0  0  0  0
    2.1284   -0.8216    0.7194 O   0  0  0  0  0  0  0  0  0  0  0  0
    1.1225   -0.3616    2.6812 N   0  0  0  0  0  0  0  0  0  0  0  0
    0.2385   -0.0719    3.0950 H   0  0  0  0  0  0  0  0  0  0  0  0
    2.0711   -1.1037    3.4995 C   0  0  0  0  0  0  0  0  0  0  0  0
    3.0983   -0.8062    3.2643 H   0  0  0  0  0  0  0  0  0  0  0  0
    1.8898   -0.9052    4.5599 H   0  0  0  0  0  0  0  0  0  0  0  0
    1.9652   -2.1792    3.3228 H   0  0  0  0  0  0  0  0  0  0  0  0
  1  2  1  0  0  0  0
  2  3  1  0  0  0  0
  2  4  1  0  0  0  0
  2  5  1  0  0  0  0
  5  6  2  0  0  0  0
  5  7  1  0  0  0  0
  7  8  1  0  0  0  0
  7  9  1  0  0  0  0
  9 10  1  0  0  0  0
  9 11  1  0  0  0  0
  9 19  1  0  0  0  0
 11 12  1  0  0  0  0
 11 13  1  0  0  0  0
 11 17  1  0  0  0  0
 13 14  1  0  0  0  0
 13 15  1  0  0  0  0
 13 16  1  0  0  0  0
 17 18  1  0  0  0  0
 19 20  2  0  0  0  0
 19 21  1  0  0  0  0
 21 22  1  0  0  0  0
 21 23  1  0  0  0  0
 23 24  1  0  0  0  0
 23 25  1  0  0  0  0
 23 26  1  0  0  0  0
M  END
$$$$

  -OEChem-01062216093D

 26 25  0     1  0  0  0  0  0999 V2000
   -3.4486   -2.8827    1.2169 H   0  0  0  0  0  0  0  0  0  0  0  0
   -3.2351   -1.9332    0.7175 C   0  0  0  0  0  0  0  0  0  0  0  0
   -3.8680   -1.1570    1.1543 H   0  0  0  0  0  0  0  0  0  0  0  0
   -3.4721   -2.0348   -0.3442 H   0  0  0  0  0  0  0  0  0  0  0  0
   -1.7723   -1.5677    0.8902 C   0  0  0  0  0  0  0  0  0  0  0  0
   -1.0493   -2.3264    1.5088 O   0  0  0  0  0  0  0  0  0  0  0  0
   -1.3177   -0.3865    0.3352 N   0  0  0  0  0  0  0  0  0  0  0  0
   -2.0406    0.1812   -0.0933 H   0  0  0  0  0  0  0  0  0  0  0  0
    0.0151    0.2558    0.4698 C   0  0  1  0  0  0  0  0  0  0  0  0
    0.4332    0.2861   -0.5414 H   0  0  0  0  0  0  0  0  0  0  0  0
   -0.1641    1.7150    0.9406 C   0  0  1  0  0  0  0  0  0  0  0  0
    0.8299    2.1689    1.0283 H   0  0  0  0  0  0  0  0  0  0  0  0
   -0.9830    2.5500   -0.0456 C   0  0  0  0  0  0  0  0  0  0  0  0
   -2.0166    2.1956   -0.0982 H   0  0  0  0  0  0  0  0  0  0  0  0
   -0.9936    3.5978    0.2690 H   0  0  0  0  0  0  0  0  0  0  0  0
   -0.5422    2.4974   -1.0458 H   0  0  0  0  0  0  0  0  0  0  0  0
   -0.8121    1.7653    2.2160 O   0  0  0  0  0  0  0  0  0  0  0  0
   -0.7895    2.6685    2.5768 H   0  0  0  0  0  0  0  0  0  0  0  0
    1.1272   -0.3986    1.3266 C   0  0  0  0  0  0  0  0  0  0  0  0
    2.2343   -0.5568    0.8235 O   0  0  0  0  0  0  0  0  0  0  0  0
    0.9653   -0.6419    2.6782 N   0  0  0  0  0  0  0  0  0  0  0  0
   -0.0017   -0.6484    2.9945 H   0  0  0  0  0  0  0  0  0  0  0  0
    1.9576   -1.3440    3.4798 C   0  0  0  0  0  0  0  0  0  0  0  0
    2.9221   -0.8275    3.4379 H   0  0  0  0  0  0  0  0  0  0  0  0
    1.6355   -1.3860    4.5246 H   0  0  0  0  0  0  0  0  0  0  0  0
    2.0881   -2.3677    3.1137 H   0  0  0  0  0  0  0  0  0  0  0  0
  1  2  1  0  0  0  0
  2  3  1  0  0  0  0
  2  4  1  0  0  0  0
  2  5  1  0  0  0  0
  5  6  2  0  0  0  0
  5  7  1  0  0  0  0
  7  8  1  0  0  0  0
  7  9  1  0  0  0  0
  9 10  1  0  0  0  0
  9 11  1  0  0  0  0
  9 19  1  0  0  0  0
 11 12  1  0  0  0  0
 11 13  1  0  0  0  0
 11 17  1  0  0  0  0
 13 14  1  0  0  0  0
 13 15  1  0  0  0  0
 13 16  1  0  0  0  0
 17 18  1  0  0  0  0
 19 20  2  0  0  0  0
 19 21  1  0  0  0  0
 21 22  1  0  0  0  0
 21 23  1  0  0  0  0
 23 24  1  0  0  0  0
 23 25  1  0  0  0  0
 23 26  1  0  0  0  0
M  END
$$$$

  -OEChem-01062216093D

 26 25  0     1  0  0  0  0  0999 V2000
   -3.5879   -2.8145    1.1543 H   0  0  0  0  0  0  0  0  0  0  0  0
   -3.3301   -1.8663    0.6737 C   0  0  0  0  0  0  0  0  0  0  0  0
   -3.9233   -1.0696    1.1293 H   0  0  0  0  0  0  0  0  0  0  0  0
   -3.5749   -1.9336   -0.3892 H   0  0  0  0  0  0  0  0  0  0  0  0
   -1.8510   -1.5753    0.8482 C   0  0  0  0  0  0  0  0  0  0  0  0
   -1.1616   -2.3855    1.4394 O   0  0  0  0  0  0  0  0  0  0  0  0
   -1.3447   -0.4047    0.3173 N   0  0  0  0  0  0  0  0  0  0  0  0
   -2.0516    0.2018   -0.0844 H   0  0  0  0  0  0  0  0  0  0  0  0
   -0.0020    0.2133    0.4810 C   0  0  1  0  0  0  0  0  0  0  0  0
    0.4288    0.2394   -0.5249 H   0  0  0  0  0  0  0  0  0  0  0  0
   -0.1734    1.6730    0.9539 C   0  0  1  0  0  0  0  0  0  0  0  0
    0.8225    2.1177    1.0663 H   0  0  0  0  0  0  0  0  0  0  0  0
   -0.9614    2.5237   -0.0443 C   0  0  0  0  0  0  0  0  0  0  0  0
   -1.9983    2.1837   -0.1193 H   0  0  0  0  0  0  0  0  0  0  0  0
   -0.9645    3.5701    0.2754 H   0  0  0  0  0  0  0  0  0  0  0  0
   -0.5014    2.4700   -1.0358 H   0  0  0  0  0  0  0  0  0  0  0  0
   -0.8483    1.7191    2.2146 O   0  0  0  0  0  0  0  0  0  0  0  0
   -0.7994    2.6116    2.5980 H   0  0  0  0  0  0  0  0  0  0  0  0
    1.1115   -0.4285    1.3481 C   0  0  0  0  0  0  0  0  0  0  0  0
    2.2700   -0.3097    0.9629 O   0  0  0  0  0  0  0  0  0  0  0  0
    0.8864   -0.9487    2.6089 N   0  0  0  0  0  0  0  0  0  0  0  0
   -0.0739   -1.2562    2.7619 H   0  0  0  0  0  0  0  0  0  0  0  0
    1.9334   -1.5853    3.3964 C   0  0  0  0  0  0  0  0  0  0  0  0
    2.7591   -0.8884    3.5733 H   0  0  0  0  0  0  0  0  0  0  0  0
    1.5354   -1.8991    4.3660 H   0  0  0  0  0  0  0  0  0  0  0  0
    2.3200   -2.4676    2.8761 H   0  0  0  0  0  0  0  0  0  0  0  0
  1  2  1  0  0  0  0
  2  3  1  0  0  0  0
  2  4  1  0  0  0  0
  2  5  1  0  0  0  0
  5  6  2  0  0  0  0
  5  7  1  0  0  0  0
  7  8  1  0  0  0  0
  7  9  1  0  0  0  0
  9 10  1  0  0  0  0
  9 11  1  0  0  0  0
  9 19  1  0  0  0  0
 11 12  1  0  0  0  0
 11 13  1  0  0  0  0
 11 17  1  0  0  0  0
 13 14  1  0  0  0  0
 13 15  1  0  0  0  0
 13 16  1  0  0  0  0
 17 18  1  0  0  0  0
 19 20  2  0  0  0  0
 19 21  1  0  0  0  0
 21 22  1  0  0  0  0
 21 23  1  0  0  0  0
 23 24  1  0  0  0  0
 23 25  1  0  0  0  0
 23 26  1  0  0  0  0
M  END
$$$$

  -OEChem-01062216093D

 26 25  0     1  0  0  0  0  0999 V2000
   -3.6921   -2.7173    1.1604 H   0  0  0  0  0  0  0  0  0  0  0  0
   -3.3977   -1.7837    0.6724 C   0  0  0  0  0  0  0  0  0  0  0  0
   -3.9225   -0.9559    1.1557 H   0  0  0  0  0  0  0  0  0  0  0  0
   -3.6908   -1.8293   -0.3793 H   0  0  0  0  0  0  0  0  0  0  0  0
   -1.8976   -1.5832    0.7849 C   0  0  0  0  0  0  0  0  0  0  0  0
   -1.2260   -2.4740    1.2715 O   0  0  0  0  0  0  0  0  0  0  0  0
   -1.3520   -0.4196    0.2789 N   0  0  0  0  0  0  0  0  0  0  0  0
   -2.0540    0.2345   -0.0506 H   0  0  0  0  0  0  0  0  0  0  0  0
   -0.0036    0.1804    0.4744 C   0  0  1  0  0  0  0  0  0  0  0  0
    0.4445    0.2138   -0.5234 H   0  0  0  0  0  0  0  0  0  0  0  0
   -0.1887    1.6361    0.9590 C   0  0  1  0  0  0  0  0  0  0  0  0
    0.8012    2.0858    1.0991 H   0  0  0  0  0  0  0  0  0  0  0  0
   -0.9574    2.4987   -0.0446 C   0  0  0  0  0  0  0  0  0  0  0  0
   -1.9929    2.1610   -0.1446 H   0  0  0  0  0  0  0  0  0  0  0  0
   -0.9663    3.5410    0.2880 H   0  0  0  0  0  0  0  0  0  0  0  0
   -0.4773    2.4570   -1.0271 H   0  0  0  0  0  0  0  0  0  0  0  0
   -0.8930    1.6612    2.2040 O   0  0  0  0  0  0  0  0  0  0  0  0
   -0.8451    2.5449    2.6076 H   0  0  0  0  0  0  0  0  0  0  0  0
    1.1083   -0.4516    1.3553 C   0  0  0  0  0  0  0  0  0  0  0  0
    2.2681   -0.1436    1.0997 O   0  0  0  0  0  0  0  0  0  0  0  0
    0.8766   -1.2311    2.4724 N   0  0  0  0  0  0  0  0  0  0  0  0
   -0.0477   -1.6641    2.5000 H   0  0  0  0  0  0  0  0  0  0  0  0
    1.9436   -1.8600    3.2395 C   0  0  0  0  0  0  0  0  0  0  0  0
    2.6410   -1.1059    3.6186 H   0  0  0  0  0  0  0  0  0  0  0  0
    1.5237   -2.3992    4.0940 H   0  0  0  0  0  0  0  0  0  0  0  0
    2.4951   -2.5706    2.6155 H   0  0  0  0  0  0  0  0  0  0  0  0
  1  2  1  0  0  0  0
  2  3  1  0  0  0  0
  2  4  1  0  0  0  0
  2  5  1  0  0  0  0
  5  6  2  0  0  0  0
  5  7  1  0  0  0  0
  7  8  1  0  0  0  0
  7  9  1  0  0  0  0
  9 10  1  0  0  0  0
  9 11  1  0  0  0  0
  9 19  1  0  0  0  0
 11 12  1  0  0  0  0
 11 13  1  0  0  0  0
 11 17  1  0  0  0  0
 13 14  1  0  0  0  0
 13 15  1  0  0  0  0
 13 16  1  0  0  0  0
 17 18  1  0  0  0  0
 19 20  2  0  0  0  0
 19 21  1  0  0  0  0
 21 22  1  0  0  0  0
 21 23  1  0  0  0  0
 23 24  1  0  0  0  0
 23 25  1  0  0  0  0
 23 26  1  0  0  0  0
M  END
$$$$

  -OEChem-01062216093D

 26 25  0     1  0  0  0  0  0999 V2000
   -3.6491   -2.8284    1.2376 H   0  0  0  0  0  0  0  0  0  0  0  0
   -3.3845   -1.8510    0.8234 C   0  0  0  0  0  0  0  0  0  0  0  0
   -3.8540   -1.0736    1.4314 H   0  0  0  0  0  0  0  0  0  0  0  0
   -3.7672   -1.7879   -0.1982 H   0  0  0  0  0  0  0  0  0  0  0  0
   -1.8778   -1.6701    0.8269 C   0  0  0  0  0  0  0  0  0  0  0  0
   -1.1831   -2.5789    1.2427 O   0  0  0  0  0  0  0  0  0  0  0  0
   -1.3552   -0.5204    0.2684 N   0  0  0  0  0  0  0  0  0  0  0  0
   -2.0822    0.1289   -0.0127 H   0  0  0  0  0  0  0  0  0  0  0  0
   -0.0256    0.1280    0.4441 C   0  0  1  0  0  0  0  0  0  0  0  0
    0.4303    0.1188   -0.5505 H   0  0  0  0  0  0  0  0  0  0  0  0
   -0.2809    1.6037    0.8345 C   0  0  1  0  0  0  0  0  0  0  0  0
    0.6833    2.1082    0.9651 H   0  0  0  0  0  0  0  0  0  0  0  0
   -1.0612    2.3726   -0.2350 C   0  0  0  0  0  0  0  0  0  0  0  0
   -2.0815    1.9915   -0.3340 H   0  0  0  0  0  0  0  0  0  0  0  0
   -1.1149    3.4324    0.0317 H   0  0  0  0  0  0  0  0  0  0  0  0
   -0.5594    2.2887   -1.2039 H   0  0  0  0  0  0  0  0  0  0  0  0
   -1.0104    1.6707    2.0635 O   0  0  0  0  0  0  0  0  0  0  0  0
   -0.9915    2.5745    2.4234 H   0  0  0  0  0  0  0  0  0  0  0  0
    1.1122   -0.4045    1.3626 C   0  0  0  0  0  0  0  0  0  0  0  0
    2.2262    0.0887    1.2140 O   0  0  0  0  0  0  0  0  0  0  0  0
    0.9714   -1.3580    2.3523 N   0  0  0  0  0  0  0  0  0  0  0  0
    0.1080   -1.9018    2.3162 H   0  0  0  0  0  0  0  0  0  0  0  0
    2.0864   -1.8918    3.1237 C   0  0  0  0  0  0  0  0  0  0  0  0
    2.5941   -1.0898    3.6696 H   0  0  0  0  0  0  0  0  0  0  0  0
    1.7233   -2.6256    3.8495 H   0  0  0  0  0  0  0  0  0  0  0  0
    2.8086   -2.3834    2.4637 H   0  0  0  0  0  0  0  0  0  0  0  0
  1  2  1  0  0  0  0
  2  3  1  0  0  0  0
  2  4  1  0  0  0  0
  2  5  1  0  0  0  0
  5  6  2  0  0  0  0
  5  7  1  0  0  0  0
  7  8  1  0  0  0  0
  7  9  1  0  0  0  0
  9 10  1  0  0  0  0
  9 11  1  0  0  0  0
  9 19  1  0  0  0  0
 11 12  1  0  0  0  0
 11 13  1  0  0  0  0
 11 17  1  0  0  0  0
 13 14  1  0  0  0  0
 13 15  1  0  0  0  0
 13 16  1  0  0  0  0
 17 18  1  0  0  0  0
 19 20  2  0  0  0  0
 19 21  1  0  0  0  0
 21 22  1  0  0  0  0
 21 23  1  0  0  0  0
 23 24  1  0  0  0  0
 23 25  1  0  0  0  0
 23 26  1  0  0  0  0
M  END
$$$$

  -OEChem-01062216093D

 26 25  0     1  0  0  0  0  0999 V2000
   -3.0388   -2.8339    1.8890 H   0  0  0  0  0  0  0  0  0  0  0  0
   -2.9273   -1.8459    1.4338 C   0  0  0  0  0  0  0  0  0  0  0  0
   -3.0481   -1.0865    2.2107 H   0  0  0  0  0  0  0  0  0  0  0  0
   -3.7050   -1.7131    0.6780 H   0  0  0  0  0  0  0  0  0  0  0  0
   -1.5567   -1.7170    0.7976 C   0  0  0  0  0  0  0  0  0  0  0  0
   -0.9134   -2.7214    0.5530 O   0  0  0  0  0  0  0  0  0  0  0  0
   -1.1901   -0.5213    0.2239 N   0  0  0  0  0  0  0  0  0  0  0  0
   -1.9932    0.1002    0.2118 H   0  0  0  0  0  0  0  0  0  0  0  0
    0.0286    0.2547    0.5617 C   0  0  1  0  0  0  0  0  0  0  0  0
    0.6175    0.2920   -0.3590 H   0  0  0  0  0  0  0  0  0  0  0  0
   -0.4557    1.6937    0.8728 C   0  0  1  0  0  0  0  0  0  0  0  0
    0.4075    2.3206    1.1209 H   0  0  0  0  0  0  0  0  0  0  0  0
   -1.1652    2.3528   -0.3137 C   0  0  0  0  0  0  0  0  0  0  0  0
   -2.1063    1.8474   -0.5484 H   0  0  0  0  0  0  0  0  0  0  0  0
   -1.3856    3.3991   -0.0828 H   0  0  0  0  0  0  0  0  0  0  0  0
   -0.5241    2.3255   -1.2002 H   0  0  0  0  0  0  0  0  0  0  0  0
   -1.3564    1.6711    1.9854 O   0  0  0  0  0  0  0  0  0  0  0  0
   -1.4782    2.5695    2.3402 H   0  0  0  0  0  0  0  0  0  0  0  0
    1.0695   -0.1919    1.6368 C   0  0  0  0  0  0  0  0  0  0  0  0
    1.9143    0.6023    2.0273 O   0  0  0  0  0  0  0  0  0  0  0  0
    1.0547   -1.3193    2.4239 N   0  0  0  0  0  0  0  0  0  0  0  0
    1.4505   -1.0895    3.3313 H   0  0  0  0  0  0  0  0  0  0  0  0
    1.6599   -2.5235    1.8652 C   0  0  0  0  0  0  0  0  0  0  0  0
    1.1204   -3.4113    2.2099 H   0  0  0  0  0  0  0  0  0  0  0  0
    1.6438   -2.5122    0.7699 H   0  0  0  0  0  0  0  0  0  0  0  0
    2.7030   -2.6027    2.1870 H   0  0  0  0  0  0  0  0  0  0  0  0
  1  2  1  0  0  0  0
  2  3  1  0  0  0  0
  2  4  1  0  0  0  0
  2  5  1  0  0  0  0
  5  6  2  0  0  0  0
  5  7  1  0  0  0  0
  7  8  1  0  0  0  0
  7  9  1  0  0  0  0
  9 10  1  0  0  0  0
  9 11  1  0  0  0  0
  9 19  1  0  0  0  0
 11 12  1  0  0  0  0
 11 13  1  0  0  0  0
 11 17  1  0  0  0  0
 13 14  1  0  0  0  0
 13 15  1  0  0  0  0
 13 16  1  0  0  0  0
 17 18  1  0  0  0  0
 19 20  2  0  0  0  0
 19 21  1  0  0  0  0
 21 22  1  0  0  0  0
 21 23  1  0  0  0  0
 23 24  1  0  0  0  0
 23 25  1  0  0  0  0
 23 26  1  0  0  0  0
M  END
$$$$

  -OEChem-01062216093D

 26 25  0     1  0  0  0  0  0999 V2000
   -2.9780   -2.9555    1.8208 H   0  0  0  0  0  0  0  0  0  0  0  0
   -2.9148   -1.9203    1.4739 C   0  0  0  0  0  0  0  0  0  0  0  0
   -2.9154   -1.2585    2.3435 H   0  0  0  0  0  0  0  0  0  0  0  0
   -3.7879   -1.7009    0.8549 H   0  0  0  0  0  0  0  0  0  0  0  0
   -1.6443   -1.7152    0.6710 C   0  0  0  0  0  0  0  0  0  0  0  0
   -1.0293   -2.6873    0.2740 O   0  0  0  0  0  0  0  0  0  0  0  0
   -1.3430   -0.4543    0.2091 N   0  0  0  0  0  0  0  0  0  0  0  0
   -2.0700    0.2009    0.4765 H   0  0  0  0  0  0  0  0  0  0  0  0
   -0.0131    0.2078    0.1688 C   0  0  1  0  0  0  0  0  0  0  0  0
    0.1766    0.4003   -0.8913 H   0  0  0  0  0  0  0  0  0  0  0  0
   -0.1830    1.5713    0.8826 C   0  0  1  0  0  0  0  0  0  0  0  0
    0.7739    2.1051    0.8735 H   0  0  0  0  0  0  0  0  0  0  0  0
   -1.2142    2.4750    0.2001 C   0  0  0  0  0  0  0  0  0  0  0  0
   -2.2224    2.0576    0.2723 H   0  0  0  0  0  0  0  0  0  0  0  0
   -1.2169    3.4622    0.6716 H   0  0  0  0  0  0  0  0  0  0  0  0
   -0.9639    2.6021   -0.8576 H   0  0  0  0  0  0  0  0  0  0  0  0
   -0.5878    1.3627    2.2400 O   0  0  0  0  0  0  0  0  0  0  0  0
   -0.5257    2.1939    2.7432 H   0  0  0  0  0  0  0  0  0  0  0  0
    1.3300   -0.4147    0.6641 C   0  0  0  0  0  0  0  0  0  0  0  0
    2.3559    0.2092    0.4267 O   0  0  0  0  0  0  0  0  0  0  0  0
    1.6407   -1.7187    0.9673 N   0  0  0  0  0  0  0  0  0  0  0  0
    2.6264   -1.8914    0.7913 H   0  0  0  0  0  0  0  0  0  0  0  0
    1.1560   -2.2924    2.2171 C   0  0  0  0  0  0  0  0  0  0  0  0
    0.3078   -1.7278    2.6172 H   0  0  0  0  0  0  0  0  0  0  0  0
    0.8428   -3.3294    2.0599 H   0  0  0  0  0  0  0  0  0  0  0  0
    1.9532   -2.2806    2.9668 H   0  0  0  0  0  0  0  0  0  0  0  0
  1  2  1  0  0  0  0
  2  3  1  0  0  0  0
  2  4  1  0  0  0  0
  2  5  1  0  0  0  0
  5  6  2  0  0  0  0
  5  7  1  0  0  0  0
  7  8  1  0  0  0  0
  7  9  1  0  0  0  0
  9 10  1  0  0  0  0
  9 11  1  0  0  0  0
  9 19  1  0  0  0  0
 11 12  1  0  0  0  0
 11 13  1  0  0  0  0
 11 17  1  0  0  0  0
 13 14  1  0  0  0  0
 13 15  1  0  0  0  0
 13 16  1  0  0  0  0
 17 18  1  0  0  0  0
 19 20  2  0  0  0  0
 19 21  1  0  0  0  0
 21 22  1  0  0  0  0
 21 23  1  0  0  0  0
 23 24  1  0  0  0  0
 23 25  1  0  0  0  0
 23 26  1  0  0  0  0
M  END
$$$$

  -OEChem-01062216093D

 26 25  0     1  0  0  0  0  0999 V2000
   -3.7233   -2.6555    1.1963 H   0  0  0  0  0  0  0  0  0  0  0  0
   -3.4254   -1.6798    0.8019 C   0  0  0  0  0  0  0  0  0  0  0  0
   -3.7855   -0.9034    1.4816 H   0  0  0  0  0  0  0  0  0  0  0  0
   -3.8870   -1.5412   -0.1788 H   0  0  0  0  0  0  0  0  0  0  0  0
   -1.9146   -1.6016    0.6816 C   0  0  0  0  0  0  0  0  0  0  0  0
   -1.2662   -2.6110    0.8845 O   0  0  0  0  0  0  0  0  0  0  0  0
   -1.3577   -0.4184    0.2357 N   0  0  0  0  0  0  0  0  0  0  0  0
   -2.0657    0.3001    0.1238 H   0  0  0  0  0  0  0  0  0  0  0  0
    0.0047    0.1552    0.4279 C   0  0  1  0  0  0  0  0  0  0  0  0
    0.4333    0.2205   -0.5759 H   0  0  0  0  0  0  0  0  0  0  0  0
   -0.2103    1.6068    0.9366 C   0  0  1  0  0  0  0  0  0  0  0  0
    0.7616    2.0906    1.0818 H   0  0  0  0  0  0  0  0  0  0  0  0
   -0.9943    2.4746   -0.0527 C   0  0  0  0  0  0  0  0  0  0  0  0
   -2.0279    2.1321   -0.1526 H   0  0  0  0  0  0  0  0  0  0  0  0
   -1.0099    3.5126    0.2929 H   0  0  0  0  0  0  0  0  0  0  0  0
   -0.5192    2.4494   -1.0381 H   0  0  0  0  0  0  0  0  0  0  0  0
   -0.9195    1.5908    2.1793 O   0  0  0  0  0  0  0  0  0  0  0  0
   -0.7842    2.4269    2.6583 H   0  0  0  0  0  0  0  0  0  0  0  0
    1.1465   -0.5373    1.2406 C   0  0  0  0  0  0  0  0  0  0  0  0
    2.0691    0.1440    1.6782 O   0  0  0  0  0  0  0  0  0  0  0  0
    1.2957   -1.9043    1.3695 N   0  0  0  0  0  0  0  0  0  0  0  0
    0.4950   -2.4718    1.0857 H   0  0  0  0  0  0  0  0  0  0  0  0
    2.3628   -2.5455    2.1274 C   0  0  0  0  0  0  0  0  0  0  0  0
    2.3251   -2.2381    3.1776 H   0  0  0  0  0  0  0  0  0  0  0  0
    2.2545   -3.6333    2.0807 H   0  0  0  0  0  0  0  0  0  0  0  0
    3.3412   -2.2785    1.7148 H   0  0  0  0  0  0  0  0  0  0  0  0
  1  2  1  0  0  0  0
  2  3  1  0  0  0  0
  2  4  1  0  0  0  0
  2  5  1  0  0  0  0
  5  6  2  0  0  0  0
  5  7  1  0  0  0  0
  7  8  1  0  0  0  0
  7  9  1  0  0  0  0
  9 10  1  0  0  0  0
  9 11  1  0  0  0  0
  9 19  1  0  0  0  0
 11 12  1  0  0  0  0
 11 13  1  0  0  0  0
 11 17  1  0  0  0  0
 13 14  1  0  0  0  0
 13 15  1  0  0  0  0
 13 16  1  0  0  0  0
 17 18  1  0  0  0  0
 19 20  2  0  0  0  0
 19 21  1  0  0  0  0
 21 22  1  0  0  0  0
 21 23  1  0  0  0  0
 23 24  1  0  0  0  0
 23 25  1  0  0  0  0
 23 26  1  0  0  0  0
M  END
$$$$

  -OEChem-01062216093D

 26 25  0     1  0  0  0  0  0999 V2000
   -3.6105   -2.6925    1.2768 H   0  0  0  0  0  0  0  0  0  0  0  0
   -3.3570   -1.7157    0.8545 C   0  0  0  0  0  0  0  0  0  0  0  0
   -3.7666   -0.9371    1.5031 H   0  0  0  0  0  0  0  0  0  0  0  0
   -3.8109   -1.6326   -0.1359 H   0  0  0  0  0  0  0  0  0  0  0  0
   -1.8509   -1.5632    0.7505 C   0  0  0  0  0  0  0  0  0  0  0  0
   -1.1491   -2.5156    1.0339 O   0  0  0  0  0  0  0  0  0  0  0  0
   -1.3456   -0.3777    0.2516 N   0  0  0  0  0  0  0  0  0  0  0  0
   -2.0777    0.3097    0.0980 H   0  0  0  0  0  0  0  0  0  0  0  0
    0.0077    0.2323    0.3717 C   0  0  1  0  0  0  0  0  0  0  0  0
    0.4017    0.2825   -0.6472 H   0  0  0  0  0  0  0  0  0  0  0  0
   -0.1880    1.6924    0.8585 C   0  0  1  0  0  0  0  0  0  0  0  0
    0.7852    2.1909    0.9323 H   0  0  0  0  0  0  0  0  0  0  0  0
   -1.0455    2.5212   -0.1022 C   0  0  0  0  0  0  0  0  0  0  0  0
   -2.0756    2.1563   -0.1344 H   0  0  0  0  0  0  0  0  0  0  0  0
   -1.0643    3.5643    0.2279 H   0  0  0  0  0  0  0  0  0  0  0  0
   -0.6274    2.4882   -1.1127 H   0  0  0  0  0  0  0  0  0  0  0  0
   -0.8291    1.6981    2.1351 O   0  0  0  0  0  0  0  0  0  0  0  0
   -0.2170    1.3273    2.8006 H   0  0  0  0  0  0  0  0  0  0  0  0
    1.1591   -0.4613    1.1649 C   0  0  0  0  0  0  0  0  0  0  0  0
    1.8664    0.1992    1.9198 O   0  0  0  0  0  0  0  0  0  0  0  0
    1.4519   -1.8061    1.0451 N   0  0  0  0  0  0  0  0  0  0  0  0
    0.6818   -2.3731    0.6828 H   0  0  0  0  0  0  0  0  0  0  0  0
    2.4440   -2.4826    1.8721 C   0  0  0  0  0  0  0  0  0  0  0  0
    2.1626   -2.4288    2.9289 H   0  0  0  0  0  0  0  0  0  0  0  0
    2.5157   -3.5360    1.5850 H   0  0  0  0  0  0  0  0  0  0  0  0
    3.4301   -2.0241    1.7445 H   0  0  0  0  0  0  0  0  0  0  0  0
  1  2  1  0  0  0  0
  2  3  1  0  0  0  0
  2  4  1  0  0  0  0
  2  5  1  0  0  0  0
  5  6  2  0  0  0  0
  5  7  1  0  0  0  0
  7  8  1  0  0  0  0
  7  9  1  0  0  0  0
  9 10  1  0  0  0  0
  9 11  1  0  0  0  0
  9 19  1  0  0  0  0
 11 12  1  0  0  0  0
 11 13  1  0  0  0  0
 11 17  1  0  0  0  0
 13 14  1  0  0  0  0
 13 15  1  0  0  0  0
 13 16  1  0  0  0  0
 17 18  1  0  0  0  0
 19 20  2  0  0  0  0
 19 21  1  0  0  0  0
 21 22  1  0  0  0  0
 21 23  1  0  0  0  0
 23 24  1  0  0  0  0
 23 25  1  0  0  0  0
 23 26  1  0  0  0  0
M  END
$$$$

  -OEChem-01062216093D

 26 25  0     1  0  0  0  0  0999 V2000
   -3.4549   -2.7391    1.3769 H   0  0  0  0  0  0  0  0  0  0  0  0
   -3.2585   -1.7656    0.9185 C   0  0  0  0  0  0  0  0  0  0  0  0
   -3.6628   -0.9851    1.5682 H   0  0  0  0  0  0  0  0  0  0  0  0
   -3.7635   -1.7237   -0.0497 H   0  0  0  0  0  0  0  0  0  0  0  0
   -1.7658   -1.5641    0.7348 C   0  0  0  0  0  0  0  0  0  0  0  0
   -1.0133   -2.4944    0.9599 O   0  0  0  0  0  0  0  0  0  0  0  0
   -1.3184   -0.3650    0.2149 N   0  0  0  0  0  0  0  0  0  0  0  0
   -2.0707    0.3098    0.1083 H   0  0  0  0  0  0  0  0  0  0  0  0
    0.0205    0.2670    0.3479 C   0  0  1  0  0  0  0  0  0  0  0  0
    0.4325    0.3291   -0.6633 H   0  0  0  0  0  0  0  0  0  0  0  0
   -0.1884    1.7180    0.8471 C   0  0  1  0  0  0  0  0  0  0  0  0
    0.7851    2.2141    0.9350 H   0  0  0  0  0  0  0  0  0  0  0  0
   -1.0446    2.5507   -0.1104 C   0  0  0  0  0  0  0  0  0  0  0  0
   -2.0698    2.1738   -0.1583 H   0  0  0  0  0  0  0  0  0  0  0  0
   -1.0790    3.5889    0.2336 H   0  0  0  0  0  0  0  0  0  0  0  0
   -0.6163    2.5360   -1.1169 H   0  0  0  0  0  0  0  0  0  0  0  0
   -0.8323    1.7029    2.1219 O   0  0  0  0  0  0  0  0  0  0  0  0
   -0.2260    1.2949    2.7733 H   0  0  0  0  0  0  0  0  0  0  0  0
    1.1412   -0.4375    1.1678 C   0  0  0  0  0  0  0  0  0  0  0  0
    1.6778    0.1407    2.1093 O   0  0  0  0  0  0  0  0  0  0  0  0
    1.6050   -1.6926    0.8209 N   0  0  0  0  0  0  0  0  0  0  0  0
    0.9100   -2.2602    0.3327 H   0  0  0  0  0  0  0  0  0  0  0  0
    2.5902   -2.4085    1.6224 C   0  0  0  0  0  0  0  0  0  0  0  0
    2.1992   -2.6020    2.6266 H   0  0  0  0  0  0  0  0  0  0  0  0
    2.8311   -3.3668    1.1526 H   0  0  0  0  0  0  0  0  0  0  0  0
    3.5136   -1.8265    1.7083 H   0  0  0  0  0  0  0  0  0  0  0  0
  1  2  1  0  0  0  0
  2  3  1  0  0  0  0
  2  4  1  0  0  0  0
  2  5  1  0  0  0  0
  5  6  2  0  0  0  0
  5  7  1  0  0  0  0
  7  8  1  0  0  0  0
  7  9  1  0  0  0  0
  9 10  1  0  0  0  0
  9 11  1  0  0  0  0
  9 19  1  0  0  0  0
 11 12  1  0  0  0  0
 11 13  1  0  0  0  0
 11 17  1  0  0  0  0
 13 14  1  0  0  0  0
 13 15  1  0  0  0  0
 13 16  1  0  0  0  0
 17 18  1  0  0  0  0
 19 20  2  0  0  0  0
 19 21  1  0  0  0  0
 21 22  1  0  0  0  0
 21 23  1  0  0  0  0
 23 24  1  0  0  0  0
 23 25  1  0  0  0  0
 23 26  1  0  0  0  0
M  END
$$$$

  -OEChem-01062216093D

 26 25  0     1  0  0  0  0  0999 V2000
   -3.3171   -2.7772    1.4475 H   0  0  0  0  0  0  0  0  0  0  0  0
   -3.1703   -1.8016    0.9753 C   0  0  0  0  0  0  0  0  0  0  0  0
   -3.5680   -1.0289    1.6380 H   0  0  0  0  0  0  0  0  0  0  0  0
   -3.7186   -1.7807    0.0304 H   0  0  0  0  0  0  0  0  0  0  0  0
   -1.6942   -1.5587    0.7241 C   0  0  0  0  0  0  0  0  0  0  0  0
   -0.9021   -2.4673    0.9029 O   0  0  0  0  0  0  0  0  0  0  0  0
   -1.2982   -0.3515    0.1819 N   0  0  0  0  0  0  0  0  0  0  0  0
   -2.0662    0.3106    0.1132 H   0  0  0  0  0  0  0  0  0  0  0  0
    0.0290    0.2967    0.3248 C   0  0  1  0  0  0  0  0  0  0  0  0
    0.4552    0.3684   -0.6798 H   0  0  0  0  0  0  0  0  0  0  0  0
   -0.1896    1.7401    0.8363 C   0  0  1  0  0  0  0  0  0  0  0  0
    0.7846    2.2323    0.9369 H   0  0  0  0  0  0  0  0  0  0  0  0
   -1.0430    2.5809   -0.1157 C   0  0  0  0  0  0  0  0  0  0  0  0
   -2.0641    2.1952   -0.1797 H   0  0  0  0  0  0  0  0  0  0  0  0
   -1.0897    3.6130    0.2448 H   0  0  0  0  0  0  0  0  0  0  0  0
   -0.6048    2.5857   -1.1182 H   0  0  0  0  0  0  0  0  0  0  0  0
   -0.8352    1.7074    2.1098 O   0  0  0  0  0  0  0  0  0  0  0  0
   -0.2451    1.2441    2.7419 H   0  0  0  0  0  0  0  0  0  0  0  0
    1.1210   -0.4183    1.1680 C   0  0  0  0  0  0  0  0  0  0  0  0
    1.4709    0.0393    2.2536 O   0  0  0  0  0  0  0  0  0  0  0  0
    1.7842   -1.5198    0.6588 N   0  0  0  0  0  0  0  0  0  0  0  0
    1.2409   -2.0464   -0.0233 H   0  0  0  0  0  0  0  0  0  0  0  0
    2.7526   -2.2700    1.4492 C   0  0  0  0  0  0  0  0  0  0  0  0
    2.2719   -2.7002    2.3342 H   0  0  0  0  0  0  0  0  0  0  0  0
    3.1754   -3.0840    0.8525 H   0  0  0  0  0  0  0  0  0  0  0  0
    3.5725   -1.6204    1.7729 H   0  0  0  0  0  0  0  0  0  0  0  0
  1  2  1  0  0  0  0
  2  3  1  0  0  0  0
  2  4  1  0  0  0  0
  2  5  1  0  0  0  0
  5  6  2  0  0  0  0
  5  7  1  0  0  0  0
  7  8  1  0  0  0  0
  7  9  1  0  0  0  0
  9 10  1  0  0  0  0
  9 11  1  0  0  0  0
  9 19  1  0  0  0  0
 11 12  1  0  0  0  0
 11 13  1  0  0  0  0
 11 17  1  0  0  0  0
 13 14  1  0  0  0  0
 13 15  1  0  0  0  0
 13 16  1  0  0  0  0
 17 18  1  0  0  0  0
 19 20  2  0  0  0  0
 19 21  1  0  0  0  0
 21 22  1  0  0  0  0
 21 23  1  0  0  0  0
 23 24  1  0  0  0  0
 23 25  1  0  0  0  0
 23 26  1  0  0  0  0
M  END
$$$$

  -OEChem-01062216093D

 26 25  0     1  0  0  0  0  0999 V2000
   -3.2317   -2.8042    1.4826 H   0  0  0  0  0  0  0  0  0  0  0  0
   -3.1137   -1.8190    1.0227 C   0  0  0  0  0  0  0  0  0  0  0  0
   -3.4913   -1.0623    1.7148 H   0  0  0  0  0  0  0  0  0  0  0  0
   -3.7003   -1.7872    0.1016 H   0  0  0  0  0  0  0  0  0  0  0  0
   -1.6512   -1.5563    0.7176 C   0  0  0  0  0  0  0  0  0  0  0  0
   -0.8381   -2.4527    0.8657 O   0  0  0  0  0  0  0  0  0  0  0  0
   -1.2879   -0.3464    0.1574 N   0  0  0  0  0  0  0  0  0  0  0  0
   -2.0649    0.3072    0.1120 H   0  0  0  0  0  0  0  0  0  0  0  0
    0.0317    0.3122    0.3056 C   0  0  1  0  0  0  0  0  0  0  0  0
    0.4654    0.3901   -0.6954 H   0  0  0  0  0  0  0  0  0  0  0  0
   -0.1934    1.7509    0.8243 C   0  0  1  0  0  0  0  0  0  0  0  0
    0.7811    2.2409    0.9321 H   0  0  0  0  0  0  0  0  0  0  0  0
   -1.0454    2.5965   -0.1238 C   0  0  0  0  0  0  0  0  0  0  0  0
   -2.0637    2.2048   -0.1975 H   0  0  0  0  0  0  0  0  0  0  0  0
   -1.1006    3.6244    0.2476 H   0  0  0  0  0  0  0  0  0  0  0  0
   -0.6015    2.6143   -1.1235 H   0  0  0  0  0  0  0  0  0  0  0  0
   -0.8395    1.7099    2.0972 O   0  0  0  0  0  0  0  0  0  0  0  0
   -0.2744    1.1905    2.7108 H   0  0  0  0  0  0  0  0  0  0  0  0
    1.1070   -0.4041    1.1654 C   0  0  0  0  0  0  0  0  0  0  0  0
    1.2714   -0.0915    2.3429 O   0  0  0  0  0  0  0  0  0  0  0  0
    1.9808   -1.2986    0.5740 N   0  0  0  0  0  0  0  0  0  0  0  0
    1.6464   -1.7145   -0.2914 H   0  0  0  0  0  0  0  0  0  0  0  0
    2.9435   -2.0657    1.3548 C   0  0  0  0  0  0  0  0  0  0  0  0
    2.4252   -2.7133    2.0700 H   0  0  0  0  0  0  0  0  0  0  0  0
    3.5503   -2.6921    0.6942 H   0  0  0  0  0  0  0  0  0  0  0  0
    3.6141   -1.3975    1.9054 H   0  0  0  0  0  0  0  0  0  0  0  0
  1  2  1  0  0  0  0
  2  3  1  0  0  0  0
  2  4  1  0  0  0  0
  2  5  1  0  0  0  0
  5  6  2  0  0  0  0
  5  7  1  0  0  0  0
  7  8  1  0  0  0  0
  7  9  1  0  0  0  0
  9 10  1  0  0  0  0
  9 11  1  0  0  0  0
  9 19  1  0  0  0  0
 11 12  1  0  0  0  0
 11 13  1  0  0  0  0
 11 17  1  0  0  0  0
 13 14  1  0  0  0  0
 13 15  1  0  0  0  0
 13 16  1  0  0  0  0
 17 18  1  0  0  0  0
 19 20  2  0  0  0  0
 19 21  1  0  0  0  0
 21 22  1  0  0  0  0
 21 23  1  0  0  0  0
 23 24  1  0  0  0  0
 23 25  1  0  0  0  0
 23 26  1  0  0  0  0
M  END
$$$$

  -OEChem-01062216093D

 26 25  0     1  0  0  0  0  0999 V2000
   -3.2022   -2.7912    1.5430 H   0  0  0  0  0  0  0  0  0  0  0  0
   -3.1013   -1.8215    1.0473 C   0  0  0  0  0  0  0  0  0  0  0  0
   -3.4782   -1.0453    1.7180 H   0  0  0  0  0  0  0  0  0  0  0  0
   -3.6998   -1.8279    0.1332 H   0  0  0  0  0  0  0  0  0  0  0  0
   -1.6456   -1.5554    0.7135 C   0  0  0  0  0  0  0  0  0  0  0  0
   -0.8297   -2.4543    0.8303 O   0  0  0  0  0  0  0  0  0  0  0  0
   -1.2925   -0.3468    0.1437 N   0  0  0  0  0  0  0  0  0  0  0  0
   -2.0695    0.3076    0.1162 H   0  0  0  0  0  0  0  0  0  0  0  0
    0.0275    0.3087    0.2957 C   0  0  1  0  0  0  0  0  0  0  0  0
    0.4613    0.3876   -0.7048 H   0  0  0  0  0  0  0  0  0  0  0  0
   -0.1917    1.7450    0.8207 C   0  0  1  0  0  0  0  0  0  0  0  0
    0.7862    2.2268    0.9349 H   0  0  0  0  0  0  0  0  0  0  0  0
   -1.0349    2.6013   -0.1259 C   0  0  0  0  0  0  0  0  0  0  0  0
   -2.0556    2.2171   -0.2044 H   0  0  0  0  0  0  0  0  0  0  0  0
   -1.0837    3.6283    0.2490 H   0  0  0  0  0  0  0  0  0  0  0  0
   -0.5882    2.6199   -1.1243 H   0  0  0  0  0  0  0  0  0  0  0  0
   -0.8385    1.7001    2.0933 O   0  0  0  0  0  0  0  0  0  0  0  0
   -0.3063    1.1279    2.6905 H   0  0  0  0  0  0  0  0  0  0  0  0
    1.0959   -0.4067    1.1632 C   0  0  0  0  0  0  0  0  0  0  0  0
    1.1060   -0.2452    2.3819 O   0  0  0  0  0  0  0  0  0  0  0  0
    2.1577   -1.0574    0.5601 N   0  0  0  0  0  0  0  0  0  0  0  0
    2.0185   -1.3273   -0.4094 H   0  0  0  0  0  0  0  0  0  0  0  0
    3.1552   -1.7905    1.3304 C   0  0  0  0  0  0  0  0  0  0  0  0
    2.6814   -2.5986    1.8979 H   0  0  0  0  0  0  0  0  0  0  0  0
    3.9024   -2.2279    0.6614 H   0  0  0  0  0  0  0  0  0  0  0  0
    3.6691   -1.1226    2.0296 H   0  0  0  0  0  0  0  0  0  0  0  0
  1  2  1  0  0  0  0
  2  3  1  0  0  0  0
  2  4  1  0  0  0  0
  2  5  1  0  0  0  0
  5  6  2  0  0  0  0
  5  7  1  0  0  0  0
  7  8  1  0  0  0  0
  7  9  1  0  0  0  0
  9 10  1  0  0  0  0
  9 11  1  0  0  0  0
  9 19  1  0  0  0  0
 11 12  1  0  0  0  0
 11 13  1  0  0  0  0
 11 17  1  0  0  0  0
 13 14  1  0  0  0  0
 13 15  1  0  0  0  0
 13 16  1  0  0  0  0
 17 18  1  0  0  0  0
 19 20  2  0  0  0  0
 19 21  1  0  0  0  0
 21 22  1  0  0  0  0
 21 23  1  0  0  0  0
 23 24  1  0  0  0  0
 23 25  1  0  0  0  0
 23 26  1  0  0  0  0
M  END
$$$$

  -OEChem-01062216093D

 26 25  0     1  0  0  0  0  0999 V2000
   -3.2053   -2.8115    1.4909 H   0  0  0  0  0  0  0  0  0  0  0  0
   -3.0932   -1.8080    1.0708 C   0  0  0  0  0  0  0  0  0  0  0  0
   -3.4056   -1.0772    1.8210 H   0  0  0  0  0  0  0  0  0  0  0  0
   -3.7368   -1.7190    0.1925 H   0  0  0  0  0  0  0  0  0  0  0  0
   -1.6473   -1.5625    0.6835 C   0  0  0  0  0  0  0  0  0  0  0  0
   -0.8414   -2.4757    0.7505 O   0  0  0  0  0  0  0  0  0  0  0  0
   -1.2944   -0.3544    0.1135 N   0  0  0  0  0  0  0  0  0  0  0  0
   -2.0682    0.3041    0.1054 H   0  0  0  0  0  0  0  0  0  0  0  0
    0.0266    0.2946    0.2798 C   0  0  1  0  0  0  0  0  0  0  0  0
    0.4667    0.3774   -0.7177 H   0  0  0  0  0  0  0  0  0  0  0  0
   -0.1888    1.7248    0.8197 C   0  0  1  0  0  0  0  0  0  0  0  0
    0.7910    2.1999    0.9447 H   0  0  0  0  0  0  0  0  0  0  0  0
   -1.0233    2.5956   -0.1209 C   0  0  0  0  0  0  0  0  0  0  0  0
   -2.0446    2.2152   -0.2100 H   0  0  0  0  0  0  0  0  0  0  0  0
   -1.0713    3.6178    0.2662 H   0  0  0  0  0  0  0  0  0  0  0  0
   -0.5705    2.6252   -1.1163 H   0  0  0  0  0  0  0  0  0  0  0  0
   -0.8424    1.6670    2.0887 O   0  0  0  0  0  0  0  0  0  0  0  0
   -0.3455    1.0480    2.6702 H   0  0  0  0  0  0  0  0  0  0  0  0
    1.0857   -0.4213    1.1564 C   0  0  0  0  0  0  0  0  0  0  0  0
    0.9636   -0.4144    2.3798 O   0  0  0  0  0  0  0  0  0  0  0  0
    2.2980   -0.8025    0.6083 N   0  0  0  0  0  0  0  0  0  0  0  0
    2.3250   -0.9053   -0.4019 H   0  0  0  0  0  0  0  0  0  0  0  0
    3.3342   -1.4658    1.3910 C   0  0  0  0  0  0  0  0  0  0  0  0
    2.9616   -2.4147    1.7913 H   0  0  0  0  0  0  0  0  0  0  0  0
    4.2069   -1.6721    0.7641 H   0  0  0  0  0  0  0  0  0  0  0  0
    3.6531   -0.8317    2.2249 H   0  0  0  0  0  0  0  0  0  0  0  0
  1  2  1  0  0  0  0
  2  3  1  0  0  0  0
  2  4  1  0  0  0  0
  2  5  1  0  0  0  0
  5  6  2  0  0  0  0
  5  7  1  0  0  0  0
  7  8  1  0  0  0  0
  7  9  1  0  0  0  0
  9 10  1  0  0  0  0
  9 11  1  0  0  0  0
  9 19  1  0  0  0  0
 11 12  1  0  0  0  0
 11 13  1  0  0  0  0
 11 17  1  0  0  0  0
 13 14  1  0  0  0  0
 13 15  1  0  0  0  0
 13 16  1  0  0  0  0
 17 18  1  0  0  0  0
 19 20  2  0  0  0  0
 19 21  1  0  0  0  0
 21 22  1  0  0  0  0
 21 23  1  0  0  0  0
 23 24  1  0  0  0  0
 23 25  1  0  0  0  0
 23 26  1  0  0  0  0
M  END
$$$$

  -OEChem-01062216093D

 26 25  0     1  0  0  0  0  0999 V2000
   -3.0613   -2.9269    1.4738 H   0  0  0  0  0  0  0  0  0  0  0  0
   -2.9915   -1.8910    1.1302 C   0  0  0  0  0  0  0  0  0  0  0  0
   -3.1656   -1.2276    1.9811 H   0  0  0  0  0  0  0  0  0  0  0  0
   -3.7594   -1.7158    0.3733 H   0  0  0  0  0  0  0  0  0  0  0  0
   -1.6160   -1.6278    0.5481 C   0  0  0  0  0  0  0  0  0  0  0  0
   -0.8578   -2.5593    0.3283 O   0  0  0  0  0  0  0  0  0  0  0  0
   -1.3017   -0.3732    0.0660 N   0  0  0  0  0  0  0  0  0  0  0  0
   -2.0667    0.2749    0.2259 H   0  0  0  0  0  0  0  0  0  0  0  0
    0.0136    0.2533    0.3220 C   0  0  1  0  0  0  0  0  0  0  0  0
    0.4770    0.3625   -0.6620 H   0  0  0  0  0  0  0  0  0  0  0  0
   -0.1995    1.6782    0.8773 C   0  0  1  0  0  0  0  0  0  0  0  0
    0.7872    2.1176    1.0632 H   0  0  0  0  0  0  0  0  0  0  0  0
   -0.9495    2.5837   -0.1017 C   0  0  0  0  0  0  0  0  0  0  0  0
   -1.9705    2.2266   -0.2644 H   0  0  0  0  0  0  0  0  0  0  0  0
   -0.9994    3.6032    0.2921 H   0  0  0  0  0  0  0  0  0  0  0  0
   -0.4325    2.6131   -1.0655 H   0  0  0  0  0  0  0  0  0  0  0  0
   -0.9252    1.6437    2.1078 O   0  0  0  0  0  0  0  0  0  0  0  0
   -0.8258    2.4780    2.5974 H   0  0  0  0  0  0  0  0  0  0  0  0
    1.0649   -0.5172    1.1636 C   0  0  0  0  0  0  0  0  0  0  0  0
    0.8216   -0.8814    2.3089 O   0  0  0  0  0  0  0  0  0  0  0  0
    2.3805   -0.5639    0.7300 N   0  0  0  0  0  0  0  0  0  0  0  0
    2.5488   -0.3512   -0.2481 H   0  0  0  0  0  0  0  0  0  0  0  0
    3.4293   -1.2496    1.4762 C   0  0  0  0  0  0  0  0  0  0  0  0
    3.1899   -2.3130    1.5823 H   0  0  0  0  0  0  0  0  0  0  0  0
    4.3862   -1.1594    0.9534 H   0  0  0  0  0  0  0  0  0  0  0  0
    3.5402   -0.8121    2.4739 H   0  0  0  0  0  0  0  0  0  0  0  0
  1  2  1  0  0  0  0
  2  3  1  0  0  0  0
  2  4  1  0  0  0  0
  2  5  1  0  0  0  0
  5  6  2  0  0  0  0
  5  7  1  0  0  0  0
  7  8  1  0  0  0  0
  7  9  1  0  0  0  0
  9 10  1  0  0  0  0
  9 11  1  0  0  0  0
  9 19  1  0  0  0  0
 11 12  1  0  0  0  0
 11 13  1  0  0  0  0
 11 17  1  0  0  0  0
 13 14  1  0  0  0  0
 13 15  1  0  0  0  0
 13 16  1  0  0  0  0
 17 18  1  0  0  0  0
 19 20  2  0  0  0  0
 19 21  1  0  0  0  0
 21 22  1  0  0  0  0
 21 23  1  0  0  0  0
 23 24  1  0  0  0  0
 23 25  1  0  0  0  0
 23 26  1  0  0  0  0
M  END
$$$$

  -OEChem-01062216093D

 26 25  0     1  0  0  0  0  0999 V2000
   -3.0555   -2.9059    1.5000 H   0  0  0  0  0  0  0  0  0  0  0  0
   -2.9783   -1.8684    1.1635 C   0  0  0  0  0  0  0  0  0  0  0  0
   -3.0891   -1.2111    2.0297 H   0  0  0  0  0  0  0  0  0  0  0  0
   -3.7808   -1.6652    0.4508 H   0  0  0  0  0  0  0  0  0  0  0  0
   -1.6295   -1.6336    0.5113 C   0  0  0  0  0  0  0  0  0  0  0  0
   -0.9156   -2.5806    0.2205 O   0  0  0  0  0  0  0  0  0  0  0  0
   -1.3017   -0.3819    0.0324 N   0  0  0  0  0  0  0  0  0  0  0  0
   -2.0566    0.2730    0.2111 H   0  0  0  0  0  0  0  0  0  0  0  0
    0.0196    0.2299    0.2969 C   0  0  1  0  0  0  0  0  0  0  0  0
    0.4873    0.3395   -0.6852 H   0  0  0  0  0  0  0  0  0  0  0  0
   -0.1892    1.6488    0.8684 C   0  0  1  0  0  0  0  0  0  0  0  0
    0.7967    2.0855    1.0635 H   0  0  0  0  0  0  0  0  0  0  0  0
   -0.9335    2.5700   -0.1001 C   0  0  0  0  0  0  0  0  0  0  0  0
   -1.9547    2.2182   -0.2728 H   0  0  0  0  0  0  0  0  0  0  0  0
   -0.9826    3.5837    0.3088 H   0  0  0  0  0  0  0  0  0  0  0  0
   -0.4119    2.6124   -1.0611 H   0  0  0  0  0  0  0  0  0  0  0  0
   -0.9183    1.5961    2.0960 O   0  0  0  0  0  0  0  0  0  0  0  0
   -0.8546    2.4379    2.5788 H   0  0  0  0  0  0  0  0  0  0  0  0
    1.0715   -0.5378    1.1417 C   0  0  0  0  0  0  0  0  0  0  0  0
    0.7770   -1.0783    2.2021 O   0  0  0  0  0  0  0  0  0  0  0  0
    2.4175   -0.3266    0.8851 N   0  0  0  0  0  0  0  0  0  0  0  0
    2.6610    0.0866   -0.0094 H   0  0  0  0  0  0  0  0  0  0  0  0
    3.4801   -0.9243    1.6856 C   0  0  0  0  0  0  0  0  0  0  0  0
    3.4095   -2.0169    1.6602 H   0  0  0  0  0  0  0  0  0  0  0  0
    4.4589   -0.6307    1.2946 H   0  0  0  0  0  0  0  0  0  0  0  0
    3.4110   -0.5905    2.7263 H   0  0  0  0  0  0  0  0  0  0  0  0
  1  2  1  0  0  0  0
  2  3  1  0  0  0  0
  2  4  1  0  0  0  0
  2  5  1  0  0  0  0
  5  6  2  0  0  0  0
  5  7  1  0  0  0  0
  7  8  1  0  0  0  0
  7  9  1  0  0  0  0
  9 10  1  0  0  0  0
  9 11  1  0  0  0  0
  9 19  1  0  0  0  0
 11 12  1  0  0  0  0
 11 13  1  0  0  0  0
 11 17  1  0  0  0  0
 13 14  1  0  0  0  0
 13 15  1  0  0  0  0
 13 16  1  0  0  0  0
 17 18  1  0  0  0  0
 19 20  2  0  0  0  0
 19 21  1  0  0  0  0
 21 22  1  0  0  0  0
 21 23  1  0  0  0  0
 23 24  1  0  0  0  0
 23 25  1  0  0  0  0
 23 26  1  0  0  0  0
M  END
$$$$

  -OEChem-01062216093D

 26 25  0     1  0  0  0  0  0999 V2000
   -3.0547   -2.8842    1.5067 H   0  0  0  0  0  0  0  0  0  0  0  0
   -2.9527   -1.8396    1.1997 C   0  0  0  0  0  0  0  0  0  0  0  0
   -2.9869   -1.2079    2.0910 H   0  0  0  0  0  0  0  0  0  0  0  0
   -3.7841   -1.5795    0.5406 H   0  0  0  0  0  0  0  0  0  0  0  0
   -1.6329   -1.6376    0.4811 C   0  0  0  0  0  0  0  0  0  0  0  0
   -0.9801   -2.6013    0.1128 O   0  0  0  0  0  0  0  0  0  0  0  0
   -1.2866   -0.3901    0.0066 N   0  0  0  0  0  0  0  0  0  0  0  0
   -2.0317    0.2710    0.2017 H   0  0  0  0  0  0  0  0  0  0  0  0
    0.0383    0.2138    0.2773 C   0  0  1  0  0  0  0  0  0  0  0  0
    0.5115    0.3274   -0.7018 H   0  0  0  0  0  0  0  0  0  0  0  0
   -0.1871    1.6286    0.8567 C   0  0  1  0  0  0  0  0  0  0  0  0
    0.7898    2.0805    1.0603 H   0  0  0  0  0  0  0  0  0  0  0  0
   -0.9378    2.5476   -0.1098 C   0  0  0  0  0  0  0  0  0  0  0  0
   -1.9548    2.1869   -0.2895 H   0  0  0  0  0  0  0  0  0  0  0  0
   -0.9996    3.5586    0.3041 H   0  0  0  0  0  0  0  0  0  0  0  0
   -0.4127    2.6008   -1.0685 H   0  0  0  0  0  0  0  0  0  0  0  0
   -0.9239    1.5552    2.0786 O   0  0  0  0  0  0  0  0  0  0  0  0
   -0.8996    2.4031    2.5547 H   0  0  0  0  0  0  0  0  0  0  0  0
    1.0973   -0.5432    1.1281 C   0  0  0  0  0  0  0  0  0  0  0  0
    0.7903   -1.2724    2.0638 O   0  0  0  0  0  0  0  0  0  0  0  0
    2.4126   -0.1036    1.0910 N   0  0  0  0  0  0  0  0  0  0  0  0
    2.6800    0.5077    0.3264 H   0  0  0  0  0  0  0  0  0  0  0  0
    3.4618   -0.6466    1.9473 C   0  0  0  0  0  0  0  0  0  0  0  0
    3.5676   -1.7247    1.7863 H   0  0  0  0  0  0  0  0  0  0  0  0
    4.4195   -0.1676    1.7225 H   0  0  0  0  0  0  0  0  0  0  0  0
    3.2270   -0.4689    3.0022 H   0  0  0  0  0  0  0  0  0  0  0  0
  1  2  1  0  0  0  0
  2  3  1  0  0  0  0
  2  4  1  0  0  0  0
  2  5  1  0  0  0  0
  5  6  2  0  0  0  0
  5  7  1  0  0  0  0
  7  8  1  0  0  0  0
  7  9  1  0  0  0  0
  9 10  1  0  0  0  0
  9 11  1  0  0  0  0
  9 19  1  0  0  0  0
 11 12  1  0  0  0  0
 11 13  1  0  0  0  0
 11 17  1  0  0  0  0
 13 14  1  0  0  0  0
 13 15  1  0  0  0  0
 13 16  1  0  0  0  0
 17 18  1  0  0  0  0
 19 20  2  0  0  0  0
 19 21  1  0  0  0  0
 21 22  1  0  0  0  0
 21 23  1  0  0  0  0
 23 24  1  0  0  0  0
 23 25  1  0  0  0  0
 23 26  1  0  0  0  0
M  END
$$$$

  -OEChem-01062216093D

 26 25  0     1  0  0  0  0  0999 V2000
   -3.1896   -3.0595    1.3383 H   0  0  0  0  0  0  0  0  0  0  0  0
   -2.9938   -2.1924    0.7012 C   0  0  0  0  0  0  0  0  0  0  0  0
   -3.8863   -1.5631    0.6771 H   0  0  0  0  0  0  0  0  0  0  0  0
   -2.7721   -2.5446   -0.3090 H   0  0  0  0  0  0  0  0  0  0  0  0
   -1.8159   -1.4043    1.2435 C   0  0  0  0  0  0  0  0  0  0  0  0
   -1.3710   -1.6928    2.3417 O   0  0  0  0  0  0  0  0  0  0  0  0
   -1.4112   -0.2610    0.5757 N   0  0  0  0  0  0  0  0  0  0  0  0
   -1.9612   -0.0749   -0.2544 H   0  0  0  0  0  0  0  0  0  0  0  0
   -0.0302    0.2932    0.5522 C   0  0  1  0  0  0  0  0  0  0  0  0
    0.1977    0.5070   -0.4952 H   0  0  0  0  0  0  0  0  0  0  0  0
    0.0101    1.6427    1.3150 C   0  0  1  0  0  0  0  0  0  0  0  0
    1.0206    2.0600    1.2667 H   0  0  0  0  0  0  0  0  0  0  0  0
   -0.9434    2.6666    0.6957 C   0  0  0  0  0  0  0  0  0  0  0  0
   -1.9840    2.3451    0.8026 H   0  0  0  0  0  0  0  0  0  0  0  0
   -0.8292    3.6352    1.1913 H   0  0  0  0  0  0  0  0  0  0  0  0
   -0.7248    2.7976   -0.3682 H   0  0  0  0  0  0  0  0  0  0  0  0
   -0.3610    1.4779    2.6825 O   0  0  0  0  0  0  0  0  0  0  0  0
   -0.4189    2.3305    3.1437 H   0  0  0  0  0  0  0  0  0  0  0  0
    1.1459   -0.6150    1.0135 C   0  0  0  0  0  0  0  0  0  0  0  0
    1.0860   -1.8280    0.8430 O   0  0  0  0  0  0  0  0  0  0  0  0
    2.4356   -0.0999    1.0005 N   0  0  0  0  0  0  0  0  0  0  0  0
    2.5252    0.9008    1.1385 H   0  0  0  0  0  0  0  0  0  0  0  0
    3.6291   -0.9231    1.1725 C   0  0  0  0  0  0  0  0  0  0  0  0
    3.7354   -1.6247    0.3383 H   0  0  0  0  0  0  0  0  0  0  0  0
    4.5220   -0.2918    1.2061 H   0  0  0  0  0  0  0  0  0  0  0  0
    3.5713   -1.4918    2.1066 H   0  0  0  0  0  0  0  0  0  0  0  0
  1  2  1  0  0  0  0
  2  3  1  0  0  0  0
  2  4  1  0  0  0  0
  2  5  1  0  0  0  0
  5  6  2  0  0  0  0
  5  7  1  0  0  0  0
  7  8  1  0  0  0  0
  7  9  1  0  0  0  0
  9 10  1  0  0  0  0
  9 11  1  0  0  0  0
  9 19  1  0  0  0  0
 11 12  1  0  0  0  0
 11 13  1  0  0  0  0
 11 17  1  0  0  0  0
 13 14  1  0  0  0  0
 13 15  1  0  0  0  0
 13 16  1  0  0  0  0
 17 18  1  0  0  0  0
 19 20  2  0  0  0  0
 19 21  1  0  0  0  0
 21 22  1  0  0  0  0
 21 23  1  0  0  0  0
 23 24  1  0  0  0  0
 23 25  1  0  0  0  0
 23 26  1  0  0  0  0
M  END
$$$$

  -OEChem-01062216093D

 26 25  0     1  0  0  0  0  0999 V2000
   -3.1490   -3.0662    1.3532 H   0  0  0  0  0  0  0  0  0  0  0  0
   -2.9824   -2.1857    0.7261 C   0  0  0  0  0  0  0  0  0  0  0  0
   -3.8723   -1.5532    0.7626 H   0  0  0  0  0  0  0  0  0  0  0  0
   -2.8153   -2.5154   -0.3020 H   0  0  0  0  0  0  0  0  0  0  0  0
   -1.7749   -1.4134    1.2238 C   0  0  0  0  0  0  0  0  0  0  0  0
   -1.2590   -1.7437    2.2787 O   0  0  0  0  0  0  0  0  0  0  0  0
   -1.4002   -0.2573    0.5602 N   0  0  0  0  0  0  0  0  0  0  0  0
   -1.9734   -0.0575   -0.2509 H   0  0  0  0  0  0  0  0  0  0  0  0
   -0.0302    0.3209    0.5310 C   0  0  1  0  0  0  0  0  0  0  0  0
    0.1968    0.5381   -0.5161 H   0  0  0  0  0  0  0  0  0  0  0  0
    0.0006    1.6714    1.2924 C   0  0  1  0  0  0  0  0  0  0  0  0
    1.0036    2.1051    1.2290 H   0  0  0  0  0  0  0  0  0  0  0  0
   -0.9753    2.6799    0.6824 C   0  0  0  0  0  0  0  0  0  0  0  0
   -2.0100    2.3457    0.8065 H   0  0  0  0  0  0  0  0  0  0  0  0
   -0.8662    3.6528    1.1709 H   0  0  0  0  0  0  0  0  0  0  0  0
   -0.7744    2.8080   -0.3855 H   0  0  0  0  0  0  0  0  0  0  0  0
   -0.3573    1.5028    2.6633 O   0  0  0  0  0  0  0  0  0  0  0  0
   -0.4543    2.3573    3.1150 H   0  0  0  0  0  0  0  0  0  0  0  0
    1.1352   -0.6023    0.9851 C   0  0  0  0  0  0  0  0  0  0  0  0
    1.1481   -1.7629    0.5854 O   0  0  0  0  0  0  0  0  0  0  0  0
    2.3775   -0.0656    1.2910 N   0  0  0  0  0  0  0  0  0  0  0  0
    2.3632    0.8627    1.7010 H   0  0  0  0  0  0  0  0  0  0  0  0
    3.5544   -0.8933    1.5339 C   0  0  0  0  0  0  0  0  0  0  0  0
    3.8370   -1.4356    0.6254 H   0  0  0  0  0  0  0  0  0  0  0  0
    4.3990   -0.2680    1.8378 H   0  0  0  0  0  0  0  0  0  0  0  0
    3.3550   -1.6188    2.3299 H   0  0  0  0  0  0  0  0  0  0  0  0
  1  2  1  0  0  0  0
  2  3  1  0  0  0  0
  2  4  1  0  0  0  0
  2  5  1  0  0  0  0
  5  6  2  0  0  0  0
  5  7  1  0  0  0  0
  7  8  1  0  0  0  0
  7  9  1  0  0  0  0
  9 10  1  0  0  0  0
  9 11  1  0  0  0  0
  9 19  1  0  0  0  0
 11 12  1  0  0  0  0
 11 13  1  0  0  0  0
 11 17  1  0  0  0  0
 13 14  1  0  0  0  0
 13 15  1  0  0  0  0
 13 16  1  0  0  0  0
 17 18  1  0  0  0  0
 19 20  2  0  0  0  0
 19 21  1  0  0  0  0
 21 22  1  0  0  0  0
 21 23  1  0  0  0  0
 23 24  1  0  0  0  0
 23 25  1  0  0  0  0
 23 26  1  0  0  0  0
M  END
$$$$

  -OEChem-01062216093D

 26 25  0     1  0  0  0  0  0999 V2000
   -3.1240   -3.0819    1.3369 H   0  0  0  0  0  0  0  0  0  0  0  0
   -2.9935   -2.1695    0.7481 C   0  0  0  0  0  0  0  0  0  0  0  0
   -3.8727   -1.5351    0.8818 H   0  0  0  0  0  0  0  0  0  0  0  0
   -2.9024   -2.4435   -0.3056 H   0  0  0  0  0  0  0  0  0  0  0  0
   -1.7475   -1.4313    1.2009 C   0  0  0  0  0  0  0  0  0  0  0  0
   -1.1735   -1.8101    2.2084 O   0  0  0  0  0  0  0  0  0  0  0  0
   -1.3880   -0.2659    0.5452 N   0  0  0  0  0  0  0  0  0  0  0  0
   -1.9863   -0.0386   -0.2405 H   0  0  0  0  0  0  0  0  0  0  0  0
   -0.0281    0.3334    0.5164 C   0  0  1  0  0  0  0  0  0  0  0  0
    0.1978    0.5535   -0.5305 H   0  0  0  0  0  0  0  0  0  0  0  0
   -0.0057    1.6851    1.2747 C   0  0  1  0  0  0  0  0  0  0  0  0
    0.9946    2.1250    1.2032 H   0  0  0  0  0  0  0  0  0  0  0  0
   -0.9929    2.6827    0.6654 C   0  0  0  0  0  0  0  0  0  0  0  0
   -2.0236    2.3357    0.7870 H   0  0  0  0  0  0  0  0  0  0  0  0
   -0.8955    3.6559    1.1553 H   0  0  0  0  0  0  0  0  0  0  0  0
   -0.7920    2.8153   -0.4019 H   0  0  0  0  0  0  0  0  0  0  0  0
   -0.3566    1.5179    2.6485 O   0  0  0  0  0  0  0  0  0  0  0  0
   -0.4646    2.3748    3.0938 H   0  0  0  0  0  0  0  0  0  0  0  0
    1.1350   -0.5915    0.9671 C   0  0  0  0  0  0  0  0  0  0  0  0
    1.2489   -1.6779    0.4066 O   0  0  0  0  0  0  0  0  0  0  0  0
    2.2720   -0.0795    1.5728 N   0  0  0  0  0  0  0  0  0  0  0  0
    2.1108    0.7390    2.1529 H   0  0  0  0  0  0  0  0  0  0  0  0
    3.4299   -0.9097    1.8846 C   0  0  0  0  0  0  0  0  0  0  0  0
    3.8768   -1.3061    0.9669 H   0  0  0  0  0  0  0  0  0  0  0  0
    4.1876   -0.3194    2.4084 H   0  0  0  0  0  0  0  0  0  0  0  0
    3.1378   -1.7485    2.5254 H   0  0  0  0  0  0  0  0  0  0  0  0
  1  2  1  0  0  0  0
  2  3  1  0  0  0  0
  2  4  1  0  0  0  0
  2  5  1  0  0  0  0
  5  6  2  0  0  0  0
  5  7  1  0  0  0  0
  7  8  1  0  0  0  0
  7  9  1  0  0  0  0
  9 10  1  0  0  0  0
  9 11  1  0  0  0  0
  9 19  1  0  0  0  0
 11 12  1  0  0  0  0
 11 13  1  0  0  0  0
 11 17  1  0  0  0  0
 13 14  1  0  0  0  0
 13 15  1  0  0  0  0
 13 16  1  0  0  0  0
 17 18  1  0  0  0  0
 19 20  2  0  0  0  0
 19 21  1  0  0  0  0
 21 22  1  0  0  0  0
 21 23  1  0  0  0  0
 23 24  1  0  0  0  0
 23 25  1  0  0  0  0
 23 26  1  0  0  0  0
M  END
$$$$

  -OEChem-01062216093D

 26 25  0     1  0  0  0  0  0999 V2000
   -3.1286   -3.0818    1.3147 H   0  0  0  0  0  0  0  0  0  0  0  0
   -3.0129   -2.1467    0.7590 C   0  0  0  0  0  0  0  0  0  0  0  0
   -3.8690   -1.5019    0.9715 H   0  0  0  0  0  0  0  0  0  0  0  0
   -2.9902   -2.3754   -0.3092 H   0  0  0  0  0  0  0  0  0  0  0  0
   -1.7267   -1.4530    1.1681 C   0  0  0  0  0  0  0  0  0  0  0  0
   -1.1029   -1.8883    2.1216 O   0  0  0  0  0  0  0  0  0  0  0  0
   -1.3714   -0.2795    0.5243 N   0  0  0  0  0  0  0  0  0  0  0  0
   -1.9985   -0.0094   -0.2248 H   0  0  0  0  0  0  0  0  0  0  0  0
   -0.0199    0.3361    0.5013 C   0  0  1  0  0  0  0  0  0  0  0  0
    0.2049    0.5630   -0.5446 H   0  0  0  0  0  0  0  0  0  0  0  0
   -0.0080    1.6844    1.2648 C   0  0  1  0  0  0  0  0  0  0  0  0
    0.9917    2.1273    1.1940 H   0  0  0  0  0  0  0  0  0  0  0  0
   -1.0017    2.6765    0.6579 C   0  0  0  0  0  0  0  0  0  0  0  0
   -2.0298    2.3211    0.7771 H   0  0  0  0  0  0  0  0  0  0  0  0
   -0.9122    3.6488    1.1513 H   0  0  0  0  0  0  0  0  0  0  0  0
   -0.8004    2.8142   -0.4087 H   0  0  0  0  0  0  0  0  0  0  0  0
   -0.3570    1.5133    2.6398 O   0  0  0  0  0  0  0  0  0  0  0  0
   -0.4786    2.3711    3.0808 H   0  0  0  0  0  0  0  0  0  0  0  0
    1.1470   -0.5819    0.9487 C   0  0  0  0  0  0  0  0  0  0  0  0
    1.3853   -1.5741    0.2667 O   0  0  0  0  0  0  0  0  0  0  0  0
    2.1287   -0.1397    1.8196 N   0  0  0  0  0  0  0  0  0  0  0  0
    1.8053    0.5580    2.4864 H   0  0  0  0  0  0  0  0  0  0  0  0
    3.2520   -0.9817    2.2119 C   0  0  0  0  0  0  0  0  0  0  0  0
    3.8635   -1.2372    1.3401 H   0  0  0  0  0  0  0  0  0  0  0  0
    3.8846   -0.4552    2.9327 H   0  0  0  0  0  0  0  0  0  0  0  0
    2.8924   -1.9071    2.6744 H   0  0  0  0  0  0  0  0  0  0  0  0
  1  2  1  0  0  0  0
  2  3  1  0  0  0  0
  2  4  1  0  0  0  0
  2  5  1  0  0  0  0
  5  6  2  0  0  0  0
  5  7  1  0  0  0  0
  7  8  1  0  0  0  0
  7  9  1  0  0  0  0
  9 10  1  0  0  0  0
  9 11  1  0  0  0  0
  9 19  1  0  0  0  0
 11 12  1  0  0  0  0
 11 13  1  0  0  0  0
 11 17  1  0  0  0  0
 13 14  1  0  0  0  0
 13 15  1  0  0  0  0
 13 16  1  0  0  0  0
 17 18  1  0  0  0  0
 19 20  2  0  0  0  0
 19 21  1  0  0  0  0
 21 22  1  0  0  0  0
 21 23  1  0  0  0  0
 23 24  1  0  0  0  0
 23 25  1  0  0  0  0
 23 26  1  0  0  0  0
M  END
$$$$

  -OEChem-01062216093D

 26 25  0     1  0  0  0  0  0999 V2000
   -3.1569   -3.0640    1.3107 H   0  0  0  0  0  0  0  0  0  0  0  0
   -3.0353   -2.1241    0.7645 C   0  0  0  0  0  0  0  0  0  0  0  0
   -3.8630   -1.4585    1.0201 H   0  0  0  0  0  0  0  0  0  0  0  0
   -3.0622   -2.3367   -0.3068 H   0  0  0  0  0  0  0  0  0  0  0  0
   -1.7141   -1.4738    1.1319 C   0  0  0  0  0  0  0  0  0  0  0  0
   -1.0516   -1.9609    2.0323 O   0  0  0  0  0  0  0  0  0  0  0  0
   -1.3569   -0.2941    0.5013 N   0  0  0  0  0  0  0  0  0  0  0  0
   -2.0085    0.0196   -0.2090 H   0  0  0  0  0  0  0  0  0  0  0  0
   -0.0112    0.3328    0.4894 C   0  0  1  0  0  0  0  0  0  0  0  0
    0.2141    0.5709   -0.5542 H   0  0  0  0  0  0  0  0  0  0  0  0
   -0.0164    1.6747    1.2633 C   0  0  1  0  0  0  0  0  0  0  0  0
    0.9846    2.1171    1.2054 H   0  0  0  0  0  0  0  0  0  0  0  0
   -1.0066    2.6688    0.6545 C   0  0  0  0  0  0  0  0  0  0  0  0
   -2.0348    2.3102    0.7622 H   0  0  0  0  0  0  0  0  0  0  0  0
   -0.9236    3.6380    1.1552 H   0  0  0  0  0  0  0  0  0  0  0  0
   -0.7957    2.8142   -0.4093 H   0  0  0  0  0  0  0  0  0  0  0  0
   -0.3726    1.4924    2.6368 O   0  0  0  0  0  0  0  0  0  0  0  0
   -0.4814    2.3485    3.0850 H   0  0  0  0  0  0  0  0  0  0  0  0
    1.1659   -0.5703    0.9357 C   0  0  0  0  0  0  0  0  0  0  0  0
    1.5437   -1.4473    0.1656 O   0  0  0  0  0  0  0  0  0  0  0  0
    1.9586   -0.2490    2.0236 N   0  0  0  0  0  0  0  0  0  0  0  0
    1.4888    0.3348    2.7146 H   0  0  0  0  0  0  0  0  0  0  0  0
    3.0370   -1.1156    2.4809 C   0  0  0  0  0  0  0  0  0  0  0  0
    3.7932   -1.2336    1.6978 H   0  0  0  0  0  0  0  0  0  0  0  0
    3.5199   -0.6837    3.3626 H   0  0  0  0  0  0  0  0  0  0  0  0
    2.6457   -2.1036    2.7461 H   0  0  0  0  0  0  0  0  0  0  0  0
  1  2  1  0  0  0  0
  2  3  1  0  0  0  0
  2  4  1  0  0  0  0
  2  5  1  0  0  0  0
  5  6  2  0  0  0  0
  5  7  1  0  0  0  0
  7  8  1  0  0  0  0
  7  9  1  0  0  0  0
  9 10  1  0  0  0  0
  9 11  1  0  0  0  0
  9 19  1  0  0  0  0
 11 12  1  0  0  0  0
 11 13  1  0  0  0  0
 11 17  1  0  0  0  0
 13 14  1  0  0  0  0
 13 15  1  0  0  0  0
 13 16  1  0  0  0  0
 17 18  1  0  0  0  0
 19 20  2  0  0  0  0
 19 21  1  0  0  0  0
 21 22  1  0  0  0  0
 21 23  1  0  0  0  0
 23 24  1  0  0  0  0
 23 25  1  0  0  0  0
 23 26  1  0  0  0  0
M  END
$$$$

  -OEChem-01062216093D

 26 25  0     1  0  0  0  0  0999 V2000
   -3.1963   -3.0422    1.2869 H   0  0  0  0  0  0  0  0  0  0  0  0
   -3.0700   -2.0860    0.7710 C   0  0  0  0  0  0  0  0  0  0  0  0
   -3.8569   -1.4026    1.0987 H   0  0  0  0  0  0  0  0  0  0  0  0
   -3.1642   -2.2540   -0.3044 H   0  0  0  0  0  0  0  0  0  0  0  0
   -1.7076   -1.4977    1.0883 C   0  0  0  0  0  0  0  0  0  0  0  0
   -1.0141   -2.0461    1.9275 O   0  0  0  0  0  0  0  0  0  0  0  0
   -1.3375   -0.3155    0.4710 N   0  0  0  0  0  0  0  0  0  0  0  0
   -2.0140    0.0548   -0.1871 H   0  0  0  0  0  0  0  0  0  0  0  0
    0.0036    0.3197    0.4796 C   0  0  1  0  0  0  0  0  0  0  0  0
    0.2371    0.5674   -0.5601 H   0  0  0  0  0  0  0  0  0  0  0  0
   -0.0316    1.6547    1.2639 C   0  0  1  0  0  0  0  0  0  0  0  0
    0.9692    2.1007    1.2309 H   0  0  0  0  0  0  0  0  0  0  0  0
   -1.0142    2.6495    0.6439 C   0  0  0  0  0  0  0  0  0  0  0  0
   -2.0424    2.2835    0.7218 H   0  0  0  0  0  0  0  0  0  0  0  0
   -0.9501    3.6127    1.1589 H   0  0  0  0  0  0  0  0  0  0  0  0
   -0.7780    2.8099   -0.4124 H   0  0  0  0  0  0  0  0  0  0  0  0
   -0.4092    1.4598    2.6316 O   0  0  0  0  0  0  0  0  0  0  0  0
   -0.4781    2.3119    3.0957 H   0  0  0  0  0  0  0  0  0  0  0  0
    1.1926   -0.5606    0.9370 C   0  0  0  0  0  0  0  0  0  0  0  0
    1.7291   -1.2913    0.1110 O   0  0  0  0  0  0  0  0  0  0  0  0
    1.7728   -0.4065    2.1828 N   0  0  0  0  0  0  0  0  0  0  0  0
    1.1690    0.0551    2.8630 H   0  0  0  0  0  0  0  0  0  0  0  0
    2.8116   -1.2997    2.6774 C   0  0  0  0  0  0  0  0  0  0  0  0
    3.6808   -1.2854    2.0115 H   0  0  0  0  0  0  0  0  0  0  0  0
    3.1368   -0.9843    3.6733 H   0  0  0  0  0  0  0  0  0  0  0  0
    2.4328   -2.3251    2.7418 H   0  0  0  0  0  0  0  0  0  0  0  0
  1  2  1  0  0  0  0
  2  3  1  0  0  0  0
  2  4  1  0  0  0  0
  2  5  1  0  0  0  0
  5  6  2  0  0  0  0
  5  7  1  0  0  0  0
  7  8  1  0  0  0  0
  7  9  1  0  0  0  0
  9 10  1  0  0  0  0
  9 11  1  0  0  0  0
  9 19  1  0  0  0  0
 11 12  1  0  0  0  0
 11 13  1  0  0  0  0
 11 17  1  0  0  0  0
 13 14  1  0  0  0  0
 13 15  1  0  0  0  0
 13 16  1  0  0  0  0
 17 18  1  0  0  0  0
 19 20  2  0  0  0  0
 19 21  1  0  0  0  0
 21 22  1  0  0  0  0
 21 23  1  0  0  0  0
 23 24  1  0  0  0  0
 23 25  1  0  0  0  0
 23 26  1  0  0  0  0
M  END
$$$$

  -OEChem-01062216093D

 26 25  0     1  0  0  0  0  0999 V2000
   -3.2597   -2.9987    1.2877 H   0  0  0  0  0  0  0  0  0  0  0  0
   -3.1086   -2.0465    0.7710 C   0  0  0  0  0  0  0  0  0  0  0  0
   -3.8575   -1.3329    1.1227 H   0  0  0  0  0  0  0  0  0  0  0  0
   -3.2391   -2.2058   -0.3021 H   0  0  0  0  0  0  0  0  0  0  0  0
   -1.7149   -1.5152    1.0513 C   0  0  0  0  0  0  0  0  0  0  0  0
   -1.0074   -2.1171    1.8397 O   0  0  0  0  0  0  0  0  0  0  0  0
   -1.3237   -0.3350    0.4443 N   0  0  0  0  0  0  0  0  0  0  0  0
   -2.0171    0.0869   -0.1634 H   0  0  0  0  0  0  0  0  0  0  0  0
    0.0156    0.3040    0.4759 C   0  0  1  0  0  0  0  0  0  0  0  0
    0.2597    0.5584   -0.5600 H   0  0  0  0  0  0  0  0  0  0  0  0
   -0.0468    1.6329    1.2668 C   0  0  1  0  0  0  0  0  0  0  0  0
    0.9530    2.0819    1.2591 H   0  0  0  0  0  0  0  0  0  0  0  0
   -1.0204    2.6281    0.6331 C   0  0  0  0  0  0  0  0  0  0  0  0
   -2.0484    2.2574    0.6868 H   0  0  0  0  0  0  0  0  0  0  0  0
   -0.9708    3.5879    1.1559 H   0  0  0  0  0  0  0  0  0  0  0  0
   -0.7628    2.7969   -0.4170 H   0  0  0  0  0  0  0  0  0  0  0  0
   -0.4497    1.4247    2.6258 O   0  0  0  0  0  0  0  0  0  0  0  0
   -0.4750    2.2676    3.1106 H   0  0  0  0  0  0  0  0  0  0  0  0
    1.2158   -0.5495    0.9531 C   0  0  0  0  0  0  0  0  0  0  0  0
    1.9162   -1.0989    0.1097 O   0  0  0  0  0  0  0  0  0  0  0  0
    1.5863   -0.6031    2.2838 N   0  0  0  0  0  0  0  0  0  0  0  0
    0.8632   -0.2820    2.9277 H   0  0  0  0  0  0  0  0  0  0  0  0
    2.5942   -1.5289    2.7810 C   0  0  0  0  0  0  0  0  0  0  0  0
    3.5504   -1.3668    2.2728 H   0  0  0  0  0  0  0  0  0  0  0  0
    2.7461   -1.3799    3.8541 H   0  0  0  0  0  0  0  0  0  0  0  0
    2.2755   -2.5631    2.6138 H   0  0  0  0  0  0  0  0  0  0  0  0
  1  2  1  0  0  0  0
  2  3  1  0  0  0  0
  2  4  1  0  0  0  0
  2  5  1  0  0  0  0
  5  6  2  0  0  0  0
  5  7  1  0  0  0  0
  7  8  1  0  0  0  0
  7  9  1  0  0  0  0
  9 10  1  0  0  0  0
  9 11  1  0  0  0  0
  9 19  1  0  0  0  0
 11 12  1  0  0  0  0
 11 13  1  0  0  0  0
 11 17  1  0  0  0  0
 13 14  1  0  0  0  0
 13 15  1  0  0  0  0
 13 16  1  0  0  0  0
 17 18  1  0  0  0  0
 19 20  2  0  0  0  0
 19 21  1  0  0  0  0
 21 22  1  0  0  0  0
 21 23  1  0  0  0  0
 23 24  1  0  0  0  0
 23 25  1  0  0  0  0
 23 26  1  0  0  0  0
M  END
$$$$

  -OEChem-01062216093D

 26 25  0     1  0  0  0  0  0999 V2000
   -3.3815   -2.9306    1.2713 H   0  0  0  0  0  0  0  0  0  0  0  0
   -3.1871   -1.9863    0.7544 C   0  0  0  0  0  0  0  0  0  0  0  0
   -3.8911   -1.2346    1.1193 H   0  0  0  0  0  0  0  0  0  0  0  0
   -3.3427   -2.1350   -0.3167 H   0  0  0  0  0  0  0  0  0  0  0  0
   -1.7627   -1.5312    1.0132 C   0  0  0  0  0  0  0  0  0  0  0  0
   -1.0654   -2.1929    1.7605 O   0  0  0  0  0  0  0  0  0  0  0  0
   -1.3277   -0.3611    0.4182 N   0  0  0  0  0  0  0  0  0  0  0  0
   -2.0249    0.1164   -0.1421 H   0  0  0  0  0  0  0  0  0  0  0  0
    0.0164    0.2678    0.4784 C   0  0  1  0  0  0  0  0  0  0  0  0
    0.2752    0.5228   -0.5539 H   0  0  0  0  0  0  0  0  0  0  0  0
   -0.0595    1.5932    1.2707 C   0  0  1  0  0  0  0  0  0  0  0  0
    0.9427    2.0367    1.2897 H   0  0  0  0  0  0  0  0  0  0  0  0
   -1.0135    2.5974    0.6216 C   0  0  0  0  0  0  0  0  0  0  0  0
   -2.0449    2.2344    0.6558 H   0  0  0  0  0  0  0  0  0  0  0  0
   -0.9670    3.5549    1.1487 H   0  0  0  0  0  0  0  0  0  0  0  0
   -0.7352    2.7674   -0.4230 H   0  0  0  0  0  0  0  0  0  0  0  0
   -0.4951    1.3751    2.6175 O   0  0  0  0  0  0  0  0  0  0  0  0
   -0.4632    2.2023    3.1281 H   0  0  0  0  0  0  0  0  0  0  0  0
    1.2244   -0.5591    0.9845 C   0  0  0  0  0  0  0  0  0  0  0  0
    2.0964   -0.8697    0.1801 O   0  0  0  0  0  0  0  0  0  0  0  0
    1.4089   -0.8479    2.3235 N   0  0  0  0  0  0  0  0  0  0  0  0
    0.5674   -0.7396    2.8893 H   0  0  0  0  0  0  0  0  0  0  0  0
    2.4461   -1.7520    2.7995 C   0  0  0  0  0  0  0  0  0  0  0  0
    3.4356   -1.4037    2.4858 H   0  0  0  0  0  0  0  0  0  0  0  0
    2.4296   -1.8007    3.8923 H   0  0  0  0  0  0  0  0  0  0  0  0
    2.2834   -2.7595    2.4030 H   0  0  0  0  0  0  0  0  0  0  0  0
  1  2  1  0  0  0  0
  2  3  1  0  0  0  0
  2  4  1  0  0  0  0
  2  5  1  0  0  0  0
  5  6  2  0  0  0  0
  5  7  1  0  0  0  0
  7  8  1  0  0  0  0
  7  9  1  0  0  0  0
  9 10  1  0  0  0  0
  9 11  1  0  0  0  0
  9 19  1  0  0  0  0
 11 12  1  0  0  0  0
 11 13  1  0  0  0  0
 11 17  1  0  0  0  0
 13 14  1  0  0  0  0
 13 15  1  0  0  0  0
 13 16  1  0  0  0  0
 17 18  1  0  0  0  0
 19 20  2  0  0  0  0
 19 21  1  0  0  0  0
 21 22  1  0  0  0  0
 21 23  1  0  0  0  0
 23 24  1  0  0  0  0
 23 25  1  0  0  0  0
 23 26  1  0  0  0  0
M  END
$$$$

  -OEChem-01062216093D

 26 25  0     1  0  0  0  0  0999 V2000
   -3.5436   -2.8440    1.2407 H   0  0  0  0  0  0  0  0  0  0  0  0
   -3.2969   -1.9098    0.7280 C   0  0  0  0  0  0  0  0  0  0  0  0
   -3.9529   -1.1204    1.1024 H   0  0  0  0  0  0  0  0  0  0  0  0
   -3.4683   -2.0420   -0.3429 H   0  0  0  0  0  0  0  0  0  0  0  0
   -1.8467   -1.5406    0.9802 C   0  0  0  0  0  0  0  0  0  0  0  0
   -1.1811   -2.2593    1.7028 O   0  0  0  0  0  0  0  0  0  0  0  0
   -1.3545   -0.3864    0.4000 N   0  0  0  0  0  0  0  0  0  0  0  0
   -2.0424    0.1432   -0.1244 H   0  0  0  0  0  0  0  0  0  0  0  0
    0.0022    0.2165    0.4840 C   0  0  1  0  0  0  0  0  0  0  0  0
    0.2738    0.4671   -0.5462 H   0  0  0  0  0  0  0  0  0  0  0  0
   -0.0686    1.5409    1.2756 C   0  0  1  0  0  0  0  0  0  0  0  0
    0.9397    1.9691    1.3176 H   0  0  0  0  0  0  0  0  0  0  0  0
   -0.9931    2.5634    0.6124 C   0  0  0  0  0  0  0  0  0  0  0  0
   -2.0316    2.2197    0.6273 H   0  0  0  0  0  0  0  0  0  0  0  0
   -0.9379    3.5189    1.1423 H   0  0  0  0  0  0  0  0  0  0  0  0
   -0.6928    2.7305   -0.4264 H   0  0  0  0  0  0  0  0  0  0  0  0
   -0.5348    1.3182    2.6101 O   0  0  0  0  0  0  0  0  0  0  0  0
   -0.4560    2.1275    3.1432 H   0  0  0  0  0  0  0  0  0  0  0  0
    1.2161   -0.5917    1.0103 C   0  0  0  0  0  0  0  0  0  0  0  0
    2.2238   -0.6297    0.3121 O   0  0  0  0  0  0  0  0  0  0  0  0
    1.2697   -1.1331    2.2801 N   0  0  0  0  0  0  0  0  0  0  0  0
    0.3509   -1.2849    2.6995 H   0  0  0  0  0  0  0  0  0  0  0  0
    2.3738   -1.9631    2.7405 C   0  0  0  0  0  0  0  0  0  0  0  0
    3.3200   -1.4160    2.6746 H   0  0  0  0  0  0  0  0  0  0  0  0
    2.2158   -2.2522    3.7839 H   0  0  0  0  0  0  0  0  0  0  0  0
    2.4470   -2.8716    2.1337 H   0  0  0  0  0  0  0  0  0  0  0  0
  1  2  1  0  0  0  0
  2  3  1  0  0  0  0
  2  4  1  0  0  0  0
  2  5  1  0  0  0  0
  5  6  2  0  0  0  0
  5  7  1  0  0  0  0
  7  8  1  0  0  0  0
  7  9  1  0  0  0  0
  9 10  1  0  0  0  0
  9 11  1  0  0  0  0
  9 19  1  0  0  0  0
 11 12  1  0  0  0  0
 11 13  1  0  0  0  0
 11 17  1  0  0  0  0
 13 14  1  0  0  0  0
 13 15  1  0  0  0  0
 13 16  1  0  0  0  0
 17 18  1  0  0  0  0
 19 20  2  0  0  0  0
 19 21  1  0  0  0  0
 21 22  1  0  0  0  0
 21 23  1  0  0  0  0
 23 24  1  0  0  0  0
 23 25  1  0  0  0  0
 23 26  1  0  0  0  0
M  END
$$$$

  -OEChem-01062216093D

 26 25  0     1  0  0  0  0  0999 V2000
   -3.6980   -2.7323    1.2318 H   0  0  0  0  0  0  0  0  0  0  0  0
   -3.3999   -1.8099    0.7249 C   0  0  0  0  0  0  0  0  0  0  0  0
   -3.9791   -0.9804    1.1378 H   0  0  0  0  0  0  0  0  0  0  0  0
   -3.6221   -1.9078   -0.3403 H   0  0  0  0  0  0  0  0  0  0  0  0
   -1.9171   -1.5565    0.9252 C   0  0  0  0  0  0  0  0  0  0  0  0
   -1.2747   -2.3654    1.5682 O   0  0  0  0  0  0  0  0  0  0  0  0
   -1.3719   -0.4162    0.3652 N   0  0  0  0  0  0  0  0  0  0  0  0
   -2.0556    0.1753   -0.0944 H   0  0  0  0  0  0  0  0  0  0  0  0
   -0.0058    0.1658    0.4740 C   0  0  1  0  0  0  0  0  0  0  0  0
    0.2803    0.4174   -0.5520 H   0  0  0  0  0  0  0  0  0  0  0  0
   -0.0822    1.4849    1.2735 C   0  0  1  0  0  0  0  0  0  0  0  0
    0.9271    1.9075    1.3408 H   0  0  0  0  0  0  0  0  0  0  0  0
   -0.9856    2.5218    0.6031 C   0  0  0  0  0  0  0  0  0  0  0  0
   -2.0281    2.1903    0.5981 H   0  0  0  0  0  0  0  0  0  0  0  0
   -0.9286    3.4721    1.1420 H   0  0  0  0  0  0  0  0  0  0  0  0
   -0.6659    2.6939   -0.4291 H   0  0  0  0  0  0  0  0  0  0  0  0
   -0.5769    1.2486    2.5948 O   0  0  0  0  0  0  0  0  0  0  0  0
   -0.4801    2.0431    3.1469 H   0  0  0  0  0  0  0  0  0  0  0  0
    1.2167   -0.6201    1.0180 C   0  0  0  0  0  0  0  0  0  0  0  0
    2.2954   -0.4318    0.4651 O   0  0  0  0  0  0  0  0  0  0  0  0
    1.1971   -1.4059    2.1532 N   0  0  0  0  0  0  0  0  0  0  0  0
    0.2635   -1.7001    2.4477 H   0  0  0  0  0  0  0  0  0  0  0  0
    2.3386   -2.1876    2.6081 C   0  0  0  0  0  0  0  0  0  0  0  0
    3.1983   -1.5370    2.7993 H   0  0  0  0  0  0  0  0  0  0  0  0
    2.0891   -2.7094    3.5368 H   0  0  0  0  0  0  0  0  0  0  0  0
    2.6179   -2.9315    1.8549 H   0  0  0  0  0  0  0  0  0  0  0  0
  1  2  1  0  0  0  0
  2  3  1  0  0  0  0
  2  4  1  0  0  0  0
  2  5  1  0  0  0  0
  5  6  2  0  0  0  0
  5  7  1  0  0  0  0
  7  8  1  0  0  0  0
  7  9  1  0  0  0  0
  9 10  1  0  0  0  0
  9 11  1  0  0  0  0
  9 19  1  0  0  0  0
 11 12  1  0  0  0  0
 11 13  1  0  0  0  0
 11 17  1  0  0  0  0
 13 14  1  0  0  0  0
 13 15  1  0  0  0  0
 13 16  1  0  0  0  0
 17 18  1  0  0  0  0
 19 20  2  0  0  0  0
 19 21  1  0  0  0  0
 21 22  1  0  0  0  0
 21 23  1  0  0  0  0
 23 24  1  0  0  0  0
 23 25  1  0  0  0  0
 23 26  1  0  0  0  0
M  END
$$$$

  -OEChem-01062216093D

 26 25  0     1  0  0  0  0  0999 V2000
   -3.8211   -2.6431    1.3480 H   0  0  0  0  0  0  0  0  0  0  0  0
   -3.5031   -1.7187    0.8570 C   0  0  0  0  0  0  0  0  0  0  0  0
   -4.0047   -0.8760    1.3389 H   0  0  0  0  0  0  0  0  0  0  0  0
   -3.7996   -1.7604   -0.1938 H   0  0  0  0  0  0  0  0  0  0  0  0
   -1.9980   -1.5567    0.9670 C   0  0  0  0  0  0  0  0  0  0  0  0
   -1.3692   -2.4223    1.5456 O   0  0  0  0  0  0  0  0  0  0  0  0
   -1.4235   -0.4439    0.3810 N   0  0  0  0  0  0  0  0  0  0  0  0
   -2.1087    0.1878   -0.0189 H   0  0  0  0  0  0  0  0  0  0  0  0
   -0.0402    0.1082    0.4423 C   0  0  1  0  0  0  0  0  0  0  0  0
    0.2187    0.3365   -0.5961 H   0  0  0  0  0  0  0  0  0  0  0  0
   -0.0815    1.4425    1.2225 C   0  0  1  0  0  0  0  0  0  0  0  0
    0.9329    1.8564    1.2631 H   0  0  0  0  0  0  0  0  0  0  0  0
   -0.9852    2.4826    0.5569 C   0  0  0  0  0  0  0  0  0  0  0  0
   -2.0325    2.1678    0.5808 H   0  0  0  0  0  0  0  0  0  0  0  0
   -0.9020    3.4401    1.0797 H   0  0  0  0  0  0  0  0  0  0  0  0
   -0.6868    2.6346   -0.4849 H   0  0  0  0  0  0  0  0  0  0  0  0
   -0.5507    1.2297    2.5568 O   0  0  0  0  0  0  0  0  0  0  0  0
   -0.4239    2.0275    3.0980 H   0  0  0  0  0  0  0  0  0  0  0  0
    1.2030   -0.6660    0.9614 C   0  0  0  0  0  0  0  0  0  0  0  0
    2.2924   -0.3308    0.5070 O   0  0  0  0  0  0  0  0  0  0  0  0
    1.1935   -1.6521    1.9269 N   0  0  0  0  0  0  0  0  0  0  0  0
    0.2714   -2.0084    2.1864 H   0  0  0  0  0  0  0  0  0  0  0  0
    2.3721   -2.3996    2.3431 C   0  0  0  0  0  0  0  0  0  0  0  0
    3.1375   -1.7218    2.7349 H   0  0  0  0  0  0  0  0  0  0  0  0
    2.1059   -3.1109    3.1307 H   0  0  0  0  0  0  0  0  0  0  0  0
    2.7904   -2.9567    1.4985 H   0  0  0  0  0  0  0  0  0  0  0  0
  1  2  1  0  0  0  0
  2  3  1  0  0  0  0
  2  4  1  0  0  0  0
  2  5  1  0  0  0  0
  5  6  2  0  0  0  0
  5  7  1  0  0  0  0
  7  8  1  0  0  0  0
  7  9  1  0  0  0  0
  9 10  1  0  0  0  0
  9 11  1  0  0  0  0
  9 19  1  0  0  0  0
 11 12  1  0  0  0  0
 11 13  1  0  0  0  0
 11 17  1  0  0  0  0
 13 14  1  0  0  0  0
 13 15  1  0  0  0  0
 13 16  1  0  0  0  0
 17 18  1  0  0  0  0
 19 20  2  0  0  0  0
 19 21  1  0  0  0  0
 21 22  1  0  0  0  0
 21 23  1  0  0  0  0
 23 24  1  0  0  0  0
 23 25  1  0  0  0  0
 23 26  1  0  0  0  0
M  END
$$$$

  -OEChem-01062216093D

 26 25  0     1  0  0  0  0  0999 V2000
   -3.2469   -3.1377    1.3450 H   0  0  0  0  0  0  0  0  0  0  0  0
   -3.0420   -2.2044    0.8127 C   0  0  0  0  0  0  0  0  0  0  0  0
   -3.8382   -1.4904    1.0368 H   0  0  0  0  0  0  0  0  0  0  0  0
   -3.0336   -2.4085   -0.2605 H   0  0  0  0  0  0  0  0  0  0  0  0
   -1.7027   -1.6369    1.2463 C   0  0  0  0  0  0  0  0  0  0  0  0
   -1.1522   -2.1486    2.1996 O   0  0  0  0  0  0  0  0  0  0  0  0
   -1.2455   -0.5059    0.5971 N   0  0  0  0  0  0  0  0  0  0  0  0
   -1.9142   -0.1336   -0.0676 H   0  0  0  0  0  0  0  0  0  0  0  0
    0.0481    0.2316    0.6570 C   0  0  1  0  0  0  0  0  0  0  0  0
    0.3203    0.4011   -0.3883 H   0  0  0  0  0  0  0  0  0  0  0  0
   -0.2373    1.6183    1.2950 C   0  0  1  0  0  0  0  0  0  0  0  0
    0.6919    2.1968    1.3372 H   0  0  0  0  0  0  0  0  0  0  0  0
   -1.2463    2.4344    0.4829 C   0  0  0  0  0  0  0  0  0  0  0  0
   -2.2344    1.9655    0.4980 H   0  0  0  0  0  0  0  0  0  0  0  0
   -1.3372    3.4408    0.9022 H   0  0  0  0  0  0  0  0  0  0  0  0
   -0.9144    2.5249   -0.5557 H   0  0  0  0  0  0  0  0  0  0  0  0
   -0.7533    1.4739    2.6203 O   0  0  0  0  0  0  0  0  0  0  0  0
   -0.7806    2.3304    3.0778 H   0  0  0  0  0  0  0  0  0  0  0  0
    1.3823   -0.3055    1.2659 C   0  0  0  0  0  0  0  0  0  0  0  0
    2.3852    0.3879    1.1524 O   0  0  0  0  0  0  0  0  0  0  0  0
    1.6297   -1.3792    2.0869 N   0  0  0  0  0  0  0  0  0  0  0  0
    2.4664   -1.2067    2.6358 H   0  0  0  0  0  0  0  0  0  0  0  0
    1.5876   -2.7177    1.5101 C   0  0  0  0  0  0  0  0  0  0  0  0
    2.5883   -3.0169    1.1838 H   0  0  0  0  0  0  0  0  0  0  0  0
    1.2336   -3.4363    2.2561 H   0  0  0  0  0  0  0  0  0  0  0  0
    0.9194   -2.7615    0.6441 H   0  0  0  0  0  0  0  0  0  0  0  0
  1  2  1  0  0  0  0
  2  3  1  0  0  0  0
  2  4  1  0  0  0  0
  2  5  1  0  0  0  0
  5  6  2  0  0  0  0
  5  7  1  0  0  0  0
  7  8  1  0  0  0  0
  7  9  1  0  0  0  0
  9 10  1  0  0  0  0
  9 11  1  0  0  0  0
  9 19  1  0  0  0  0
 11 12  1  0  0  0  0
 11 13  1  0  0  0  0
 11 17  1  0  0  0  0
 13 14  1  0  0  0  0
 13 15  1  0  0  0  0
 13 16  1  0  0  0  0
 17 18  1  0  0  0  0
 19 20  2  0  0  0  0
 19 21  1  0  0  0  0
 21 22  1  0  0  0  0
 21 23  1  0  0  0  0
 23 24  1  0  0  0  0
 23 25  1  0  0  0  0
 23 26  1  0  0  0  0
M  END
$$$$

  -OEChem-01062216093D

 26 25  0     1  0  0  0  0  0999 V2000
   -3.0943   -2.9287    1.8352 H   0  0  0  0  0  0  0  0  0  0  0  0
   -2.9914   -1.8897    1.5096 C   0  0  0  0  0  0  0  0  0  0  0  0
   -2.9522   -1.2485    2.3936 H   0  0  0  0  0  0  0  0  0  0  0  0
   -3.8622   -1.6204    0.9073 H   0  0  0  0  0  0  0  0  0  0  0  0
   -1.7235   -1.7213    0.6938 C   0  0  0  0  0  0  0  0  0  0  0  0
   -1.1511   -2.7157    0.2909 O   0  0  0  0  0  0  0  0  0  0  0  0
   -1.4015   -0.4666    0.2241 N   0  0  0  0  0  0  0  0  0  0  0  0
   -2.1234    0.1992    0.4746 H   0  0  0  0  0  0  0  0  0  0  0  0
   -0.0638    0.1796    0.1403 C   0  0  1  0  0  0  0  0  0  0  0  0
   -0.0263    0.6110   -0.8646 H   0  0  0  0  0  0  0  0  0  0  0  0
   -0.0507    1.3423    1.1617 C   0  0  1  0  0  0  0  0  0  0  0  0
    0.9226    1.8445    1.1154 H   0  0  0  0  0  0  0  0  0  0  0  0
   -1.1248    2.3948    0.8747 C   0  0  0  0  0  0  0  0  0  0  0  0
   -2.1295    1.9896    1.0247 H   0  0  0  0  0  0  0  0  0  0  0  0
   -0.9969    3.2510    1.5438 H   0  0  0  0  0  0  0  0  0  0  0  0
   -1.0406    2.7513   -0.1566 H   0  0  0  0  0  0  0  0  0  0  0  0
   -0.2554    0.8414    2.4871 O   0  0  0  0  0  0  0  0  0  0  0  0
   -0.1006    1.5432    3.1437 H   0  0  0  0  0  0  0  0  0  0  0  0
    1.3164   -0.5336    0.2710 C   0  0  0  0  0  0  0  0  0  0  0  0
    2.2904    0.0629   -0.1691 O   0  0  0  0  0  0  0  0  0  0  0  0
    1.6209   -1.8555    0.4895 N   0  0  0  0  0  0  0  0  0  0  0  0
    2.5467   -2.0703    0.1307 H   0  0  0  0  0  0  0  0  0  0  0  0
    1.3327   -2.4433    1.7924 C   0  0  0  0  0  0  0  0  0  0  0  0
    0.5393   -1.8987    2.3140 H   0  0  0  0  0  0  0  0  0  0  0  0
    1.0184   -3.4851    1.6744 H   0  0  0  0  0  0  0  0  0  0  0  0
    2.2291   -2.4184    2.4197 H   0  0  0  0  0  0  0  0  0  0  0  0
  1  2  1  0  0  0  0
  2  3  1  0  0  0  0
  2  4  1  0  0  0  0
  2  5  1  0  0  0  0
  5  6  2  0  0  0  0
  5  7  1  0  0  0  0
  7  8  1  0  0  0  0
  7  9  1  0  0  0  0
  9 10  1  0  0  0  0
  9 11  1  0  0  0  0
  9 19  1  0  0  0  0
 11 12  1  0  0  0  0
 11 13  1  0  0  0  0
 11 17  1  0  0  0  0
 13 14  1  0  0  0  0
 13 15  1  0  0  0  0
 13 16  1  0  0  0  0
 17 18  1  0  0  0  0
 19 20  2  0  0  0  0
 19 21  1  0  0  0  0
 21 22  1  0  0  0  0
 21 23  1  0  0  0  0
 23 24  1  0  0  0  0
 23 25  1  0  0  0  0
 23 26  1  0  0  0  0
M  END
$$$$

  -OEChem-01062216093D

 26 25  0     1  0  0  0  0  0999 V2000
   -3.8367   -2.6063    1.2687 H   0  0  0  0  0  0  0  0  0  0  0  0
   -3.5016   -1.6977    0.7599 C   0  0  0  0  0  0  0  0  0  0  0  0
   -4.0134   -0.8403    1.2039 H   0  0  0  0  0  0  0  0  0  0  0  0
   -3.7692   -1.7683   -0.2970 H   0  0  0  0  0  0  0  0  0  0  0  0
   -1.9992   -1.5374    0.9057 C   0  0  0  0  0  0  0  0  0  0  0  0
   -1.3850   -2.4104    1.4890 O   0  0  0  0  0  0  0  0  0  0  0  0
   -1.4172   -0.4033    0.3686 N   0  0  0  0  0  0  0  0  0  0  0  0
   -2.0981    0.2448   -0.0122 H   0  0  0  0  0  0  0  0  0  0  0  0
   -0.0240    0.1283    0.4212 C   0  0  1  0  0  0  0  0  0  0  0  0
    0.2213    0.4057   -0.6077 H   0  0  0  0  0  0  0  0  0  0  0  0
   -0.0702    1.4308    1.2653 C   0  0  1  0  0  0  0  0  0  0  0  0
    0.9324    1.8686    1.3163 H   0  0  0  0  0  0  0  0  0  0  0  0
   -0.9960    2.4895    0.6606 C   0  0  0  0  0  0  0  0  0  0  0  0
   -2.0401    2.1649    0.6885 H   0  0  0  0  0  0  0  0  0  0  0  0
   -0.9123    3.4236    1.2241 H   0  0  0  0  0  0  0  0  0  0  0  0
   -0.7166    2.6904   -0.3781 H   0  0  0  0  0  0  0  0  0  0  0  0
   -0.5253    1.1511    2.5921 O   0  0  0  0  0  0  0  0  0  0  0  0
   -0.3547    1.9062    3.1804 H   0  0  0  0  0  0  0  0  0  0  0  0
    1.2203   -0.7017    0.8632 C   0  0  0  0  0  0  0  0  0  0  0  0
    2.3026   -0.1262    0.9332 O   0  0  0  0  0  0  0  0  0  0  0  0
    1.2519   -2.0782    0.9748 N   0  0  0  0  0  0  0  0  0  0  0  0
    0.3401   -2.5276    1.0720 H   0  0  0  0  0  0  0  0  0  0  0  0
    2.4284   -2.8275    1.3972 C   0  0  0  0  0  0  0  0  0  0  0  0
    2.7534   -2.5023    2.3909 H   0  0  0  0  0  0  0  0  0  0  0  0
    2.1964   -3.8959    1.4404 H   0  0  0  0  0  0  0  0  0  0  0  0
    3.2513   -2.6820    0.6898 H   0  0  0  0  0  0  0  0  0  0  0  0
  1  2  1  0  0  0  0
  2  3  1  0  0  0  0
  2  4  1  0  0  0  0
  2  5  1  0  0  0  0
  5  6  2  0  0  0  0
  5  7  1  0  0  0  0
  7  8  1  0  0  0  0
  7  9  1  0  0  0  0
  9 10  1  0  0  0  0
  9 11  1  0  0  0  0
  9 19  1  0  0  0  0
 11 12  1  0  0  0  0
 11 13  1  0  0  0  0
 11 17  1  0  0  0  0
 13 14  1  0  0  0  0
 13 15  1  0  0  0  0
 13 16  1  0  0  0  0
 17 18  1  0  0  0  0
 19 20  2  0  0  0  0
 19 21  1  0  0  0  0
 21 22  1  0  0  0  0
 21 23  1  0  0  0  0
 23 24  1  0  0  0  0
 23 25  1  0  0  0  0
 23 26  1  0  0  0  0
M  END
$$$$

  -OEChem-01062216093D

 26 25  0     1  0  0  0  0  0999 V2000
   -3.7215   -2.6577    1.3163 H   0  0  0  0  0  0  0  0  0  0  0  0
   -3.4301   -1.7234    0.8276 C   0  0  0  0  0  0  0  0  0  0  0  0
   -3.9124   -0.8922    1.3479 H   0  0  0  0  0  0  0  0  0  0  0  0
   -3.7741   -1.7469   -0.2092 H   0  0  0  0  0  0  0  0  0  0  0  0
   -1.9223   -1.5565    0.8720 C   0  0  0  0  0  0  0  0  0  0  0  0
   -1.2581   -2.4537    1.3563 O   0  0  0  0  0  0  0  0  0  0  0  0
   -1.3815   -0.3996    0.3411 N   0  0  0  0  0  0  0  0  0  0  0  0
   -2.0870    0.2660    0.0448 H   0  0  0  0  0  0  0  0  0  0  0  0
    0.0005    0.1554    0.4087 C   0  0  1  0  0  0  0  0  0  0  0  0
    0.2559    0.4412   -0.6153 H   0  0  0  0  0  0  0  0  0  0  0  0
   -0.0779    1.4554    1.2551 C   0  0  1  0  0  0  0  0  0  0  0  0
    0.9161    1.9111    1.3152 H   0  0  0  0  0  0  0  0  0  0  0  0
   -1.0167    2.5000    0.6451 C   0  0  0  0  0  0  0  0  0  0  0  0
   -2.0559    2.1598    0.6675 H   0  0  0  0  0  0  0  0  0  0  0  0
   -0.9503    3.4351    1.2092 H   0  0  0  0  0  0  0  0  0  0  0  0
   -0.7350    2.7050   -0.3920 H   0  0  0  0  0  0  0  0  0  0  0  0
   -0.5425    1.1628    2.5761 O   0  0  0  0  0  0  0  0  0  0  0  0
   -0.3352    1.8942    3.1824 H   0  0  0  0  0  0  0  0  0  0  0  0
    1.2353   -0.6869    0.8547 C   0  0  0  0  0  0  0  0  0  0  0  0
    2.2712   -0.1103    1.1737 O   0  0  0  0  0  0  0  0  0  0  0  0
    1.3261   -2.0512    0.6507 N   0  0  0  0  0  0  0  0  0  0  0  0
    0.4231   -2.5281    0.6229 H   0  0  0  0  0  0  0  0  0  0  0  0
    2.4848   -2.8394    1.0520 C   0  0  0  0  0  0  0  0  0  0  0  0
    2.6535   -2.7499    2.1301 H   0  0  0  0  0  0  0  0  0  0  0  0
    2.3219   -3.8945    0.8121 H   0  0  0  0  0  0  0  0  0  0  0  0
    3.3823   -2.5010    0.5241 H   0  0  0  0  0  0  0  0  0  0  0  0
  1  2  1  0  0  0  0
  2  3  1  0  0  0  0
  2  4  1  0  0  0  0
  2  5  1  0  0  0  0
  5  6  2  0  0  0  0
  5  7  1  0  0  0  0
  7  8  1  0  0  0  0
  7  9  1  0  0  0  0
  9 10  1  0  0  0  0
  9 11  1  0  0  0  0
  9 19  1  0  0  0  0
 11 12  1  0  0  0  0
 11 13  1  0  0  0  0
 11 17  1  0  0  0  0
 13 14  1  0  0  0  0
 13 15  1  0  0  0  0
 13 16  1  0  0  0  0
 17 18  1  0  0  0  0
 19 20  2  0  0  0  0
 19 21  1  0  0  0  0
 21 22  1  0  0  0  0
 21 23  1  0  0  0  0
 23 24  1  0  0  0  0
 23 25  1  0  0  0  0
 23 26  1  0  0  0  0
M  END
$$$$

  -OEChem-01062216093D

 26 25  0     1  0  0  0  0  0999 V2000
   -3.5558   -2.7152    1.3772 H   0  0  0  0  0  0  0  0  0  0  0  0
   -3.3299   -1.7484    0.9179 C   0  0  0  0  0  0  0  0  0  0  0  0
   -3.8011   -0.9607    1.5112 H   0  0  0  0  0  0  0  0  0  0  0  0
   -3.7459   -1.7337   -0.0924 H   0  0  0  0  0  0  0  0  0  0  0  0
   -1.8292   -1.5296    0.8671 C   0  0  0  0  0  0  0  0  0  0  0  0
   -1.0965   -2.4015    1.2952 O   0  0  0  0  0  0  0  0  0  0  0  0
   -1.3541   -0.3580    0.3080 N   0  0  0  0  0  0  0  0  0  0  0  0
   -2.0935    0.2971    0.0737 H   0  0  0  0  0  0  0  0  0  0  0  0
    0.0062    0.2433    0.3671 C   0  0  1  0  0  0  0  0  0  0  0  0
    0.2625    0.5208   -0.6592 H   0  0  0  0  0  0  0  0  0  0  0  0
   -0.0944    1.5541    1.1906 C   0  0  1  0  0  0  0  0  0  0  0  0
    0.8868    2.0407    1.2297 H   0  0  0  0  0  0  0  0  0  0  0  0
   -1.0736    2.5562    0.5731 C   0  0  0  0  0  0  0  0  0  0  0  0
   -2.1009    2.1835    0.6127 H   0  0  0  0  0  0  0  0  0  0  0  0
   -1.0323    3.4998    1.1258 H   0  0  0  0  0  0  0  0  0  0  0  0
   -0.8094    2.7567   -0.4694 H   0  0  0  0  0  0  0  0  0  0  0  0
   -0.5401    1.2701    2.5182 O   0  0  0  0  0  0  0  0  0  0  0  0
    0.1352    0.7336    2.9769 H   0  0  0  0  0  0  0  0  0  0  0  0
    1.2283   -0.6023    0.8345 C   0  0  0  0  0  0  0  0  0  0  0  0
    2.0928   -0.1036    1.5483 O   0  0  0  0  0  0  0  0  0  0  0  0
    1.4344   -1.8885    0.3707 N   0  0  0  0  0  0  0  0  0  0  0  0
    0.5698   -2.3707    0.1233 H   0  0  0  0  0  0  0  0  0  0  0  0
    2.5365   -2.7199    0.8402 C   0  0  0  0  0  0  0  0  0  0  0  0
    2.4568   -2.8874    1.9194 H   0  0  0  0  0  0  0  0  0  0  0  0
    2.5159   -3.6902    0.3353 H   0  0  0  0  0  0  0  0  0  0  0  0
    3.4984   -2.2424    0.6265 H   0  0  0  0  0  0  0  0  0  0  0  0
  1  2  1  0  0  0  0
  2  3  1  0  0  0  0
  2  4  1  0  0  0  0
  2  5  1  0  0  0  0
  5  6  2  0  0  0  0
  5  7  1  0  0  0  0
  7  8  1  0  0  0  0
  7  9  1  0  0  0  0
  9 10  1  0  0  0  0
  9 11  1  0  0  0  0
  9 19  1  0  0  0  0
 11 12  1  0  0  0  0
 11 13  1  0  0  0  0
 11 17  1  0  0  0  0
 13 14  1  0  0  0  0
 13 15  1  0  0  0  0
 13 16  1  0  0  0  0
 17 18  1  0  0  0  0
 19 20  2  0  0  0  0
 19 21  1  0  0  0  0
 21 22  1  0  0  0  0
 21 23  1  0  0  0  0
 23 24  1  0  0  0  0
 23 25  1  0  0  0  0
 23 26  1  0  0  0  0
M  END
$$$$

  -OEChem-01062216093D

 26 25  0     1  0  0  0  0  0999 V2000
   -3.4133   -2.7527    1.4627 H   0  0  0  0  0  0  0  0  0  0  0  0
   -3.2356   -1.7936    0.9676 C   0  0  0  0  0  0  0  0  0  0  0  0
   -3.6950   -1.0016    1.5645 H   0  0  0  0  0  0  0  0  0  0  0  0
   -3.7023   -1.8154   -0.0200 H   0  0  0  0  0  0  0  0  0  0  0  0
   -1.7455   -1.5415    0.8337 C   0  0  0  0  0  0  0  0  0  0  0  0
   -0.9685   -2.4130    1.1781 O   0  0  0  0  0  0  0  0  0  0  0  0
   -1.3240   -0.3524    0.2678 N   0  0  0  0  0  0  0  0  0  0  0  0
   -2.0858    0.2970    0.0974 H   0  0  0  0  0  0  0  0  0  0  0  0
    0.0192    0.2791    0.3478 C   0  0  1  0  0  0  0  0  0  0  0  0
    0.2904    0.5704   -0.6707 H   0  0  0  0  0  0  0  0  0  0  0  0
   -0.1030    1.5776    1.1832 C   0  0  1  0  0  0  0  0  0  0  0  0
    0.8765    2.0667    1.2343 H   0  0  0  0  0  0  0  0  0  0  0  0
   -1.0869    2.5764    0.5704 C   0  0  0  0  0  0  0  0  0  0  0  0
   -2.1094    2.1896    0.5934 H   0  0  0  0  0  0  0  0  0  0  0  0
   -1.0630    3.5120    1.1372 H   0  0  0  0  0  0  0  0  0  0  0  0
   -0.8140    2.7948   -0.4663 H   0  0  0  0  0  0  0  0  0  0  0  0
   -0.5502    1.2694    2.5043 O   0  0  0  0  0  0  0  0  0  0  0  0
    0.1237    0.7103    2.9422 H   0  0  0  0  0  0  0  0  0  0  0  0
    1.2245   -0.5713    0.8383 C   0  0  0  0  0  0  0  0  0  0  0  0
    1.9230   -0.1944    1.7754 O   0  0  0  0  0  0  0  0  0  0  0  0
    1.5954   -1.7114    0.1480 N   0  0  0  0  0  0  0  0  0  0  0  0
    0.8317   -2.1490   -0.3628 H   0  0  0  0  0  0  0  0  0  0  0  0
    2.6584   -2.5888    0.6225 C   0  0  0  0  0  0  0  0  0  0  0  0
    2.4088   -2.9918    1.6098 H   0  0  0  0  0  0  0  0  0  0  0  0
    2.7930   -3.4249   -0.0702 H   0  0  0  0  0  0  0  0  0  0  0  0
    3.6057   -2.0441    0.6920 H   0  0  0  0  0  0  0  0  0  0  0  0
  1  2  1  0  0  0  0
  2  3  1  0  0  0  0
  2  4  1  0  0  0  0
  2  5  1  0  0  0  0
  5  6  2  0  0  0  0
  5  7  1  0  0  0  0
  7  8  1  0  0  0  0
  7  9  1  0  0  0  0
  9 10  1  0  0  0  0
  9 11  1  0  0  0  0
  9 19  1  0  0  0  0
 11 12  1  0  0  0  0
 11 13  1  0  0  0  0
 11 17  1  0  0  0  0
 13 14  1  0  0  0  0
 13 15  1  0  0  0  0
 13 16  1  0  0  0  0
 17 18  1  0  0  0  0
 19 20  2  0  0  0  0
 19 21  1  0  0  0  0
 21 22  1  0  0  0  0
 21 23  1  0  0  0  0
 23 24  1  0  0  0  0
 23 25  1  0  0  0  0
 23 26  1  0  0  0  0
M  END
$$$$

  -OEChem-01062216093D

 26 25  0     1  0  0  0  0  0999 V2000
   -3.3148   -2.7730    1.5205 H   0  0  0  0  0  0  0  0  0  0  0  0
   -3.1709   -1.8130    1.0164 C   0  0  0  0  0  0  0  0  0  0  0  0
   -3.6080   -1.0249    1.6344 H   0  0  0  0  0  0  0  0  0  0  0  0
   -3.6846   -1.8406    0.0526 H   0  0  0  0  0  0  0  0  0  0  0  0
   -1.6916   -1.5470    0.8098 C   0  0  0  0  0  0  0  0  0  0  0  0
   -0.8908   -2.4220    1.0864 O   0  0  0  0  0  0  0  0  0  0  0  0
   -1.3054   -0.3494    0.2351 N   0  0  0  0  0  0  0  0  0  0  0  0
   -2.0795    0.2959    0.1117 H   0  0  0  0  0  0  0  0  0  0  0  0
    0.0265    0.2994    0.3331 C   0  0  1  0  0  0  0  0  0  0  0  0
    0.3107    0.6005   -0.6792 H   0  0  0  0  0  0  0  0  0  0  0  0
   -0.1133    1.5893    1.1764 C   0  0  1  0  0  0  0  0  0  0  0  0
    0.8663    2.0766    1.2427 H   0  0  0  0  0  0  0  0  0  0  0  0
   -1.0940    2.5898    0.5623 C   0  0  0  0  0  0  0  0  0  0  0  0
   -2.1148    2.1978    0.5698 H   0  0  0  0  0  0  0  0  0  0  0  0
   -1.0812    3.5203    1.1381 H   0  0  0  0  0  0  0  0  0  0  0  0
   -0.8106    2.8195   -0.4691 H   0  0  0  0  0  0  0  0  0  0  0  0
   -0.5670    1.2650    2.4910 O   0  0  0  0  0  0  0  0  0  0  0  0
    0.0910    0.6673    2.9061 H   0  0  0  0  0  0  0  0  0  0  0  0
    1.2182   -0.5527    0.8462 C   0  0  0  0  0  0  0  0  0  0  0  0
    1.7390   -0.3225    1.9351 O   0  0  0  0  0  0  0  0  0  0  0  0
    1.7887   -1.4969    0.0112 N   0  0  0  0  0  0  0  0  0  0  0  0
    1.1864   -1.8226   -0.7397 H   0  0  0  0  0  0  0  0  0  0  0  0
    2.8313   -2.4045    0.4732 C   0  0  0  0  0  0  0  0  0  0  0  0
    2.4653   -3.0124    1.3076 H   0  0  0  0  0  0  0  0  0  0  0  0
    3.1344   -3.0737   -0.3375 H   0  0  0  0  0  0  0  0  0  0  0  0
    3.7117   -1.8436    0.8036 H   0  0  0  0  0  0  0  0  0  0  0  0
  1  2  1  0  0  0  0
  2  3  1  0  0  0  0
  2  4  1  0  0  0  0
  2  5  1  0  0  0  0
  5  6  2  0  0  0  0
  5  7  1  0  0  0  0
  7  8  1  0  0  0  0
  7  9  1  0  0  0  0
  9 10  1  0  0  0  0
  9 11  1  0  0  0  0
  9 19  1  0  0  0  0
 11 12  1  0  0  0  0
 11 13  1  0  0  0  0
 11 17  1  0  0  0  0
 13 14  1  0  0  0  0
 13 15  1  0  0  0  0
 13 16  1  0  0  0  0
 17 18  1  0  0  0  0
 19 20  2  0  0  0  0
 19 21  1  0  0  0  0
 21 22  1  0  0  0  0
 21 23  1  0  0  0  0
 23 24  1  0  0  0  0
 23 25  1  0  0  0  0
 23 26  1  0  0  0  0
M  END
$$$$

  -OEChem-01062216093D

 26 25  0     1  0  0  0  0  0999 V2000
   -3.2845   -2.7680    1.5607 H   0  0  0  0  0  0  0  0  0  0  0  0
   -3.1532   -1.8077    1.0539 C   0  0  0  0  0  0  0  0  0  0  0  0
   -3.5611   -1.0181    1.6900 H   0  0  0  0  0  0  0  0  0  0  0  0
   -3.7032   -1.8288    0.1101 H   0  0  0  0  0  0  0  0  0  0  0  0
   -1.6810   -1.5521    0.7918 C   0  0  0  0  0  0  0  0  0  0  0  0
   -0.8782   -2.4434    1.0043 O   0  0  0  0  0  0  0  0  0  0  0  0
   -1.3053   -0.3540    0.2121 N   0  0  0  0  0  0  0  0  0  0  0  0
   -2.0804    0.2959    0.1253 H   0  0  0  0  0  0  0  0  0  0  0  0
    0.0245    0.2946    0.3233 C   0  0  1  0  0  0  0  0  0  0  0  0
    0.3169    0.5995   -0.6851 H   0  0  0  0  0  0  0  0  0  0  0  0
   -0.1203    1.5812    1.1692 C   0  0  1  0  0  0  0  0  0  0  0  0
    0.8618    2.0617    1.2471 H   0  0  0  0  0  0  0  0  0  0  0  0
   -1.0920    2.5882    0.5513 C   0  0  0  0  0  0  0  0  0  0  0  0
   -2.1137    2.1983    0.5447 H   0  0  0  0  0  0  0  0  0  0  0  0
   -1.0833    3.5147    1.1337 H   0  0  0  0  0  0  0  0  0  0  0  0
   -0.7970    2.8242   -0.4754 H   0  0  0  0  0  0  0  0  0  0  0  0
   -0.5847    1.2534    2.4791 O   0  0  0  0  0  0  0  0  0  0  0  0
    0.0475    0.6160    2.8786 H   0  0  0  0  0  0  0  0  0  0  0  0
    1.2082   -0.5577    0.8522 C   0  0  0  0  0  0  0  0  0  0  0  0
    1.5700   -0.4712    2.0238 O   0  0  0  0  0  0  0  0  0  0  0  0
    1.9864   -1.2729   -0.0407 N   0  0  0  0  0  0  0  0  0  0  0  0
    1.5566   -1.4701   -0.9397 H   0  0  0  0  0  0  0  0  0  0  0  0
    3.0647   -2.1484    0.4019 C   0  0  0  0  0  0  0  0  0  0  0  0
    2.6751   -2.9286    1.0645 H   0  0  0  0  0  0  0  0  0  0  0  0
    3.5383   -2.6286   -0.4595 H   0  0  0  0  0  0  0  0  0  0  0  0
    3.8282   -1.5770    0.9400 H   0  0  0  0  0  0  0  0  0  0  0  0
  1  2  1  0  0  0  0
  2  3  1  0  0  0  0
  2  4  1  0  0  0  0
  2  5  1  0  0  0  0
  5  6  2  0  0  0  0
  5  7  1  0  0  0  0
  7  8  1  0  0  0  0
  7  9  1  0  0  0  0
  9 10  1  0  0  0  0
  9 11  1  0  0  0  0
  9 19  1  0  0  0  0
 11 12  1  0  0  0  0
 11 13  1  0  0  0  0
 11 17  1  0  0  0  0
 13 14  1  0  0  0  0
 13 15  1  0  0  0  0
 13 16  1  0  0  0  0
 17 18  1  0  0  0  0
 19 20  2  0  0  0  0
 19 21  1  0  0  0  0
 21 22  1  0  0  0  0
 21 23  1  0  0  0  0
 23 24  1  0  0  0  0
 23 25  1  0  0  0  0
 23 26  1  0  0  0  0
M  END
$$$$

  -OEChem-01062216093D

 26 25  0     1  0  0  0  0  0999 V2000
   -3.2754   -2.7511    1.6006 H   0  0  0  0  0  0  0  0  0  0  0  0
   -3.1508   -1.7891    1.0951 C   0  0  0  0  0  0  0  0  0  0  0  0
   -3.5107   -0.9975    1.7572 H   0  0  0  0  0  0  0  0  0  0  0  0
   -3.7472   -1.7915    0.1797 H   0  0  0  0  0  0  0  0  0  0  0  0
   -1.6886   -1.5598    0.7625 C   0  0  0  0  0  0  0  0  0  0  0  0
   -0.8967   -2.4749    0.9046 O   0  0  0  0  0  0  0  0  0  0  0  0
   -1.3131   -0.3632    0.1800 N   0  0  0  0  0  0  0  0  0  0  0  0
   -2.0834    0.2960    0.1256 H   0  0  0  0  0  0  0  0  0  0  0  0
    0.0192    0.2764    0.3057 C   0  0  1  0  0  0  0  0  0  0  0  0
    0.3186    0.5844   -0.6999 H   0  0  0  0  0  0  0  0  0  0  0  0
   -0.1239    1.5580    1.1583 C   0  0  1  0  0  0  0  0  0  0  0  0
    0.8623    2.0275    1.2491 H   0  0  0  0  0  0  0  0  0  0  0  0
   -1.0799    2.5795    0.5403 C   0  0  0  0  0  0  0  0  0  0  0  0
   -2.1045    2.1981    0.5177 H   0  0  0  0  0  0  0  0  0  0  0  0
   -1.0701    3.4995    1.1329 H   0  0  0  0  0  0  0  0  0  0  0  0
   -0.7712    2.8241   -0.4803 H   0  0  0  0  0  0  0  0  0  0  0  0
   -0.6010    1.2229    2.4618 O   0  0  0  0  0  0  0  0  0  0  0  0
   -0.0013    0.5433    2.8442 H   0  0  0  0  0  0  0  0  0  0  0  0
    1.1969   -0.5756    0.8483 C   0  0  0  0  0  0  0  0  0  0  0  0
    1.4126   -0.6348    2.0572 O   0  0  0  0  0  0  0  0  0  0  0  0
    2.1669   -1.0403   -0.0228 N   0  0  0  0  0  0  0  0  0  0  0  0
    1.9049   -1.0936   -1.0025 H   0  0  0  0  0  0  0  0  0  0  0  0
    3.2987   -1.8422    0.4274 C   0  0  0  0  0  0  0  0  0  0  0  0
    2.9481   -2.7616    0.9085 H   0  0  0  0  0  0  0  0  0  0  0  0
    3.9314   -2.1144   -0.4228 H   0  0  0  0  0  0  0  0  0  0  0  0
    3.9080   -1.2798    1.1428 H   0  0  0  0  0  0  0  0  0  0  0  0
  1  2  1  0  0  0  0
  2  3  1  0  0  0  0
  2  4  1  0  0  0  0
  2  5  1  0  0  0  0
  5  6  2  0  0  0  0
  5  7  1  0  0  0  0
  7  8  1  0  0  0  0
  7  9  1  0  0  0  0
  9 10  1  0  0  0  0
  9 11  1  0  0  0  0
  9 19  1  0  0  0  0
 11 12  1  0  0  0  0
 11 13  1  0  0  0  0
 11 17  1  0  0  0  0
 13 14  1  0  0  0  0
 13 15  1  0  0  0  0
 13 16  1  0  0  0  0
 17 18  1  0  0  0  0
 19 20  2  0  0  0  0
 19 21  1  0  0  0  0
 21 22  1  0  0  0  0
 21 23  1  0  0  0  0
 23 24  1  0  0  0  0
 23 25  1  0  0  0  0
 23 26  1  0  0  0  0
M  END
$$$$

  -OEChem-01062216093D

 26 25  0     1  0  0  0  0  0999 V2000
   -3.2573   -2.7343    1.6335 H   0  0  0  0  0  0  0  0  0  0  0  0
   -3.1362   -1.7628    1.1457 C   0  0  0  0  0  0  0  0  0  0  0  0
   -3.4273   -0.9795    1.8501 H   0  0  0  0  0  0  0  0  0  0  0  0
   -3.7903   -1.7220    0.2717 H   0  0  0  0  0  0  0  0  0  0  0  0
   -1.6920   -1.5673    0.7250 C   0  0  0  0  0  0  0  0  0  0  0  0
   -0.9228   -2.5111    0.7750 O   0  0  0  0  0  0  0  0  0  0  0  0
   -1.3162   -0.3729    0.1399 N   0  0  0  0  0  0  0  0  0  0  0  0
   -2.0796    0.2962    0.1257 H   0  0  0  0  0  0  0  0  0  0  0  0
    0.0186    0.2570    0.2798 C   0  0  1  0  0  0  0  0  0  0  0  0
    0.3260    0.5666   -0.7226 H   0  0  0  0  0  0  0  0  0  0  0  0
   -0.1231    1.5315    1.1422 C   0  0  1  0  0  0  0  0  0  0  0  0
    0.8658    1.9928    1.2460 H   0  0  0  0  0  0  0  0  0  0  0  0
   -1.0677    2.5651    0.5261 C   0  0  0  0  0  0  0  0  0  0  0  0
   -2.0943    2.1904    0.4899 H   0  0  0  0  0  0  0  0  0  0  0  0
   -1.0584    3.4788    1.1281 H   0  0  0  0  0  0  0  0  0  0  0  0
   -0.7483    2.8181   -0.4891 H   0  0  0  0  0  0  0  0  0  0  0  0
   -0.6117    1.1856    2.4391 O   0  0  0  0  0  0  0  0  0  0  0  0
   -0.0419    0.4718    2.8060 H   0  0  0  0  0  0  0  0  0  0  0  0
    1.1901   -0.5942    0.8360 C   0  0  0  0  0  0  0  0  0  0  0  0
    1.2736   -0.8005    2.0451 O   0  0  0  0  0  0  0  0  0  0  0  0
    2.3175   -0.8007    0.0594 N   0  0  0  0  0  0  0  0  0  0  0  0
    2.2068   -0.6930   -0.9443 H   0  0  0  0  0  0  0  0  0  0  0  0
    3.4832   -1.5278    0.5485 C   0  0  0  0  0  0  0  0  0  0  0  0
    3.2028   -2.5440    0.8456 H   0  0  0  0  0  0  0  0  0  0  0  0
    4.2443   -1.5930   -0.2347 H   0  0  0  0  0  0  0  0  0  0  0  0
    3.9212   -1.0161    1.4118 H   0  0  0  0  0  0  0  0  0  0  0  0
  1  2  1  0  0  0  0
  2  3  1  0  0  0  0
  2  4  1  0  0  0  0
  2  5  1  0  0  0  0
  5  6  2  0  0  0  0
  5  7  1  0  0  0  0
  7  8  1  0  0  0  0
  7  9  1  0  0  0  0
  9 10  1  0  0  0  0
  9 11  1  0  0  0  0
  9 19  1  0  0  0  0
 11 12  1  0  0  0  0
 11 13  1  0  0  0  0
 11 17  1  0  0  0  0
 13 14  1  0  0  0  0
 13 15  1  0  0  0  0
 13 16  1  0  0  0  0
 17 18  1  0  0  0  0
 19 20  2  0  0  0  0
 19 21  1  0  0  0  0
 21 22  1  0  0  0  0
 21 23  1  0  0  0  0
 23 24  1  0  0  0  0
 23 25  1  0  0  0  0
 23 26  1  0  0  0  0
M  END
$$$$

  -OEChem-01062216093D

 26 25  0     1  0  0  0  0  0999 V2000
   -3.2680   -2.7371    1.5915 H   0  0  0  0  0  0  0  0  0  0  0  0
   -3.1238   -1.7341    1.1800 C   0  0  0  0  0  0  0  0  0  0  0  0
   -3.3256   -1.0013    1.9654 H   0  0  0  0  0  0  0  0  0  0  0  0
   -3.8285   -1.5846    0.3586 H   0  0  0  0  0  0  0  0  0  0  0  0
   -1.7000   -1.5748    0.6812 C   0  0  0  0  0  0  0  0  0  0  0  0
   -0.9657   -2.5467    0.6413 O   0  0  0  0  0  0  0  0  0  0  0  0
   -1.3165   -0.3826    0.0980 N   0  0  0  0  0  0  0  0  0  0  0  0
   -2.0706    0.2968    0.1155 H   0  0  0  0  0  0  0  0  0  0  0  0
    0.0231    0.2343    0.2520 C   0  0  1  0  0  0  0  0  0  0  0  0
    0.3386    0.5499   -0.7459 H   0  0  0  0  0  0  0  0  0  0  0  0
   -0.1157    1.4956    1.1329 C   0  0  1  0  0  0  0  0  0  0  0  0
    0.8750    1.9495    1.2497 H   0  0  0  0  0  0  0  0  0  0  0  0
   -1.0500    2.5454    0.5286 C   0  0  0  0  0  0  0  0  0  0  0  0
   -2.0790    2.1784    0.4800 H   0  0  0  0  0  0  0  0  0  0  0  0
   -1.0382    3.4490    1.1458 H   0  0  0  0  0  0  0  0  0  0  0  0
   -0.7230    2.8131   -0.4804 H   0  0  0  0  0  0  0  0  0  0  0  0
   -0.6134    1.1304    2.4214 O   0  0  0  0  0  0  0  0  0  0  0  0
   -0.0706    0.3870    2.7702 H   0  0  0  0  0  0  0  0  0  0  0  0
    1.1893   -0.6173    0.8177 C   0  0  0  0  0  0  0  0  0  0  0  0
    1.1641   -0.9688    1.9952 O   0  0  0  0  0  0  0  0  0  0  0  0
    2.4265   -0.5694    0.1968 N   0  0  0  0  0  0  0  0  0  0  0  0
    2.4429   -0.2902   -0.7794 H   0  0  0  0  0  0  0  0  0  0  0  0
    3.6137   -1.2113    0.7506 C   0  0  0  0  0  0  0  0  0  0  0  0
    3.4405   -2.2842    0.8861 H   0  0  0  0  0  0  0  0  0  0  0  0
    4.4646   -1.0804    0.0753 H   0  0  0  0  0  0  0  0  0  0  0  0
    3.8724   -0.7709    1.7193 H   0  0  0  0  0  0  0  0  0  0  0  0
  1  2  1  0  0  0  0
  2  3  1  0  0  0  0
  2  4  1  0  0  0  0
  2  5  1  0  0  0  0
  5  6  2  0  0  0  0
  5  7  1  0  0  0  0
  7  8  1  0  0  0  0
  7  9  1  0  0  0  0
  9 10  1  0  0  0  0
  9 11  1  0  0  0  0
  9 19  1  0  0  0  0
 11 12  1  0  0  0  0
 11 13  1  0  0  0  0
 11 17  1  0  0  0  0
 13 14  1  0  0  0  0
 13 15  1  0  0  0  0
 13 16  1  0  0  0  0
 17 18  1  0  0  0  0
 19 20  2  0  0  0  0
 19 21  1  0  0  0  0
 21 22  1  0  0  0  0
 21 23  1  0  0  0  0
 23 24  1  0  0  0  0
 23 25  1  0  0  0  0
 23 26  1  0  0  0  0
M  END
$$$$

  -OEChem-01062216093D

 26 25  0     1  0  0  0  0  0999 V2000
   -3.0636   -2.8401    1.6000 H   0  0  0  0  0  0  0  0  0  0  0  0
   -2.9521   -1.8000    1.2816 C   0  0  0  0  0  0  0  0  0  0  0  0
   -2.9203   -1.1639    2.1699 H   0  0  0  0  0  0  0  0  0  0  0  0
   -3.8125   -1.5216    0.6689 H   0  0  0  0  0  0  0  0  0  0  0  0
   -1.6700   -1.6359    0.4884 C   0  0  0  0  0  0  0  0  0  0  0  0
   -1.0865   -2.6192    0.0620 O   0  0  0  0  0  0  0  0  0  0  0  0
   -1.3154   -0.3963   -0.0010 N   0  0  0  0  0  0  0  0  0  0  0  0
   -2.0505    0.2737    0.1974 H   0  0  0  0  0  0  0  0  0  0  0  0
    0.0214    0.1862    0.2559 C   0  0  1  0  0  0  0  0  0  0  0  0
    0.3741    0.5289   -0.7203 H   0  0  0  0  0  0  0  0  0  0  0  0
   -0.1384    1.4357    1.1507 C   0  0  1  0  0  0  0  0  0  0  0  0
    0.8583    1.8530    1.3336 H   0  0  0  0  0  0  0  0  0  0  0  0
   -0.9947    2.5220    0.4965 C   0  0  0  0  0  0  0  0  0  0  0  0
   -2.0290    2.1881    0.3733 H   0  0  0  0  0  0  0  0  0  0  0  0
   -0.9960    3.4231    1.1173 H   0  0  0  0  0  0  0  0  0  0  0  0
   -0.5924    2.7836   -0.4870 H   0  0  0  0  0  0  0  0  0  0  0  0
   -0.7289    1.0906    2.4054 O   0  0  0  0  0  0  0  0  0  0  0  0
   -0.5963    1.7954    3.0623 H   0  0  0  0  0  0  0  0  0  0  0  0
    1.1793   -0.7008    0.7893 C   0  0  0  0  0  0  0  0  0  0  0  0
    1.0382   -1.4454    1.7519 O   0  0  0  0  0  0  0  0  0  0  0  0
    2.4801   -0.3709    0.4384 N   0  0  0  0  0  0  0  0  0  0  0  0
    2.6059    0.2322   -0.3680 H   0  0  0  0  0  0  0  0  0  0  0  0
    3.6486   -1.0565    0.9801 C   0  0  0  0  0  0  0  0  0  0  0  0
    3.6068   -2.1258    0.7472 H   0  0  0  0  0  0  0  0  0  0  0  0
    4.5645   -0.6431    0.5473 H   0  0  0  0  0  0  0  0  0  0  0  0
    3.6963   -0.9343    2.0674 H   0  0  0  0  0  0  0  0  0  0  0  0
  1  2  1  0  0  0  0
  2  3  1  0  0  0  0
  2  4  1  0  0  0  0
  2  5  1  0  0  0  0
  5  6  2  0  0  0  0
  5  7  1  0  0  0  0
  7  8  1  0  0  0  0
  7  9  1  0  0  0  0
  9 10  1  0  0  0  0
  9 11  1  0  0  0  0
  9 19  1  0  0  0  0
 11 12  1  0  0  0  0
 11 13  1  0  0  0  0
 11 17  1  0  0  0  0
 13 14  1  0  0  0  0
 13 15  1  0  0  0  0
 13 16  1  0  0  0  0
 17 18  1  0  0  0  0
 19 20  2  0  0  0  0
 19 21  1  0  0  0  0
 21 22  1  0  0  0  0
 21 23  1  0  0  0  0
 23 24  1  0  0  0  0
 23 25  1  0  0  0  0
 23 26  1  0  0  0  0
M  END
$$$$

  -OEChem-01062216093D

 26 25  0     1  0  0  0  0  0999 V2000
   -3.2264   -3.0636    1.3132 H   0  0  0  0  0  0  0  0  0  0  0  0
   -3.0088   -2.1996    0.6787 C   0  0  0  0  0  0  0  0  0  0  0  0
   -3.9020   -1.5738    0.6154 H   0  0  0  0  0  0  0  0  0  0  0  0
   -2.7462   -2.5571   -0.3197 H   0  0  0  0  0  0  0  0  0  0  0  0
   -1.8563   -1.4040    1.2630 C   0  0  0  0  0  0  0  0  0  0  0  0
   -1.4878   -1.6568    2.3966 O   0  0  0  0  0  0  0  0  0  0  0  0
   -1.4224   -0.2723    0.5953 N   0  0  0  0  0  0  0  0  0  0  0  0
   -1.9585   -0.0911   -0.2448 H   0  0  0  0  0  0  0  0  0  0  0  0
   -0.0335    0.2628    0.5718 C   0  0  1  0  0  0  0  0  0  0  0  0
    0.1829    0.4710   -0.4792 H   0  0  0  0  0  0  0  0  0  0  0  0
    0.0291    1.6133    1.3296 C   0  0  1  0  0  0  0  0  0  0  0  0
    1.0503    2.0054    1.2843 H   0  0  0  0  0  0  0  0  0  0  0  0
   -0.9011    2.6550    0.7053 C   0  0  0  0  0  0  0  0  0  0  0  0
   -1.9479    2.3517    0.8055 H   0  0  0  0  0  0  0  0  0  0  0  0
   -0.7727    3.6210    1.2028 H   0  0  0  0  0  0  0  0  0  0  0  0
   -0.6737    2.7828   -0.3571 H   0  0  0  0  0  0  0  0  0  0  0  0
   -0.3447    1.4598    2.6972 O   0  0  0  0  0  0  0  0  0  0  0  0
   -0.3613    2.3110    3.1638 H   0  0  0  0  0  0  0  0  0  0  0  0
    1.1628   -0.6212    1.0299 C   0  0  0  0  0  0  0  0  0  0  0  0
    1.0676   -1.8333    1.1725 O   0  0  0  0  0  0  0  0  0  0  0  0
    2.4396   -0.1878    0.6956 N   0  0  0  0  0  0  0  0  0  0  0  0
    2.5582    0.8013    0.5054 H   0  0  0  0  0  0  0  0  0  0  0  0
    3.6371   -1.0115    0.8346 C   0  0  0  0  0  0  0  0  0  0  0  0
    3.5893   -1.8760    0.1639 H   0  0  0  0  0  0  0  0  0  0  0  0
    4.5279   -0.4286    0.5819 H   0  0  0  0  0  0  0  0  0  0  0  0
    3.7387   -1.3695    1.8647 H   0  0  0  0  0  0  0  0  0  0  0  0
  1  2  1  0  0  0  0
  2  3  1  0  0  0  0
  2  4  1  0  0  0  0
  2  5  1  0  0  0  0
  5  6  2  0  0  0  0
  5  7  1  0  0  0  0
  7  8  1  0  0  0  0
  7  9  1  0  0  0  0
  9 10  1  0  0  0  0
  9 11  1  0  0  0  0
  9 19  1  0  0  0  0
 11 12  1  0  0  0  0
 11 13  1  0  0  0  0
 11 17  1  0  0  0  0
 13 14  1  0  0  0  0
 13 15  1  0  0  0  0
 13 16  1  0  0  0  0
 17 18  1  0  0  0  0
 19 20  2  0  0  0  0
 19 21  1  0  0  0  0
 21 22  1  0  0  0  0
 21 23  1  0  0  0  0
 23 24  1  0  0  0  0
 23 25  1  0  0  0  0
 23 26  1  0  0  0  0
M  END
$$$$

  -OEChem-01062216093D

 26 25  0     1  0  0  0  0  0999 V2000
   -3.0993   -3.1239    1.3166 H   0  0  0  0  0  0  0  0  0  0  0  0
   -2.9832   -2.1968    0.7483 C   0  0  0  0  0  0  0  0  0  0  0  0
   -3.8642   -1.5712    0.9087 H   0  0  0  0  0  0  0  0  0  0  0  0
   -2.9050   -2.4455   -0.3127 H   0  0  0  0  0  0  0  0  0  0  0  0
   -1.7351   -1.4620    1.2009 C   0  0  0  0  0  0  0  0  0  0  0  0
   -1.1405   -1.8661    2.1864 O   0  0  0  0  0  0  0  0  0  0  0  0
   -1.3797   -0.2909    0.5510 N   0  0  0  0  0  0  0  0  0  0  0  0
   -1.9717   -0.0703   -0.2412 H   0  0  0  0  0  0  0  0  0  0  0  0
   -0.0145    0.2955    0.5262 C   0  0  1  0  0  0  0  0  0  0  0  0
    0.0993    0.7607   -0.4565 H   0  0  0  0  0  0  0  0  0  0  0  0
    0.1366    1.4293    1.5737 C   0  0  1  0  0  0  0  0  0  0  0  0
    1.1412    1.8573    1.5015 H   0  0  0  0  0  0  0  0  0  0  0  0
   -0.8692    2.5542    1.3211 C   0  0  0  0  0  0  0  0  0  0  0  0
   -1.8944    2.1970    1.4595 H   0  0  0  0  0  0  0  0  0  0  0  0
   -0.6946    3.3806    2.0164 H   0  0  0  0  0  0  0  0  0  0  0  0
   -0.7667    2.9366    0.3012 H   0  0  0  0  0  0  0  0  0  0  0  0
   -0.0716    0.9589    2.9031 O   0  0  0  0  0  0  0  0  0  0  0  0
   -0.0587    1.6845    3.5480 H   0  0  0  0  0  0  0  0  0  0  0  0
    1.1751   -0.7011    0.6083 C   0  0  0  0  0  0  0  0  0  0  0  0
    1.0434   -1.8447    0.1827 O   0  0  0  0  0  0  0  0  0  0  0  0
    2.4739   -0.2119    0.5961 N   0  0  0  0  0  0  0  0  0  0  0  0
    2.6081    0.7226    0.9671 H   0  0  0  0  0  0  0  0  0  0  0  0
    3.6458   -1.0729    0.4717 C   0  0  0  0  0  0  0  0  0  0  0  0
    3.6528   -1.5741   -0.5019 H   0  0  0  0  0  0  0  0  0  0  0  0
    4.5614   -0.4805    0.5598 H   0  0  0  0  0  0  0  0  0  0  0  0
    3.6473   -1.8333    1.2599 H   0  0  0  0  0  0  0  0  0  0  0  0
  1  2  1  0  0  0  0
  2  3  1  0  0  0  0
  2  4  1  0  0  0  0
  2  5  1  0  0  0  0
  5  6  2  0  0  0  0
  5  7  1  0  0  0  0
  7  8  1  0  0  0  0
  7  9  1  0  0  0  0
  9 10  1  0  0  0  0
  9 11  1  0  0  0  0
  9 19  1  0  0  0  0
 11 12  1  0  0  0  0
 11 13  1  0  0  0  0
 11 17  1  0  0  0  0
 13 14  1  0  0  0  0
 13 15  1  0  0  0  0
 13 16  1  0  0  0  0
 17 18  1  0  0  0  0
 19 20  2  0  0  0  0
 19 21  1  0  0  0  0
 21 22  1  0  0  0  0
 21 23  1  0  0  0  0
 23 24  1  0  0  0  0
 23 25  1  0  0  0  0
 23 26  1  0  0  0  0
M  END
$$$$

  -OEChem-01062216093D

 26 25  0     1  0  0  0  0  0999 V2000
   -3.0700   -3.1206    1.3298 H   0  0  0  0  0  0  0  0  0  0  0  0
   -2.9692   -2.1872    0.7687 C   0  0  0  0  0  0  0  0  0  0  0  0
   -3.8374   -1.5568    0.9733 H   0  0  0  0  0  0  0  0  0  0  0  0
   -2.9371   -2.4226   -0.2977 H   0  0  0  0  0  0  0  0  0  0  0  0
   -1.6977   -1.4676    1.1780 C   0  0  0  0  0  0  0  0  0  0  0  0
   -1.0517   -1.9025    2.1170 O   0  0  0  0  0  0  0  0  0  0  0  0
   -1.3650   -0.2867    0.5346 N   0  0  0  0  0  0  0  0  0  0  0  0
   -1.9771   -0.0494   -0.2374 H   0  0  0  0  0  0  0  0  0  0  0  0
   -0.0108    0.3226    0.5127 C   0  0  1  0  0  0  0  0  0  0  0  0
    0.1040    0.7916   -0.4681 H   0  0  0  0  0  0  0  0  0  0  0  0
    0.1242    1.4559    1.5629 C   0  0  1  0  0  0  0  0  0  0  0  0
    1.1193    1.9051    1.4864 H   0  0  0  0  0  0  0  0  0  0  0  0
   -0.9048    2.5608    1.3170 C   0  0  0  0  0  0  0  0  0  0  0  0
   -1.9222    2.1835    1.4595 H   0  0  0  0  0  0  0  0  0  0  0  0
   -0.7427    3.3895    2.0125 H   0  0  0  0  0  0  0  0  0  0  0  0
   -0.8146    2.9465    0.2972 H   0  0  0  0  0  0  0  0  0  0  0  0
   -0.0746    0.9788    2.8916 O   0  0  0  0  0  0  0  0  0  0  0  0
   -0.1111    1.7081    3.5319 H   0  0  0  0  0  0  0  0  0  0  0  0
    1.1715   -0.6813    0.5906 C   0  0  0  0  0  0  0  0  0  0  0  0
    1.0894   -1.7335   -0.0370 O   0  0  0  0  0  0  0  0  0  0  0  0
    2.4523   -0.2438    0.8937 N   0  0  0  0  0  0  0  0  0  0  0  0
    2.5054    0.5669    1.5021 H   0  0  0  0  0  0  0  0  0  0  0  0
    3.6163   -1.1212    0.8315 C   0  0  0  0  0  0  0  0  0  0  0  0
    3.7793   -1.4720   -0.1930 H   0  0  0  0  0  0  0  0  0  0  0  0
    4.5119   -0.5834    1.1565 H   0  0  0  0  0  0  0  0  0  0  0  0
    3.4764   -1.9899    1.4837 H   0  0  0  0  0  0  0  0  0  0  0  0
  1  2  1  0  0  0  0
  2  3  1  0  0  0  0
  2  4  1  0  0  0  0
  2  5  1  0  0  0  0
  5  6  2  0  0  0  0
  5  7  1  0  0  0  0
  7  8  1  0  0  0  0
  7  9  1  0  0  0  0
  9 10  1  0  0  0  0
  9 11  1  0  0  0  0
  9 19  1  0  0  0  0
 11 12  1  0  0  0  0
 11 13  1  0  0  0  0
 11 17  1  0  0  0  0
 13 14  1  0  0  0  0
 13 15  1  0  0  0  0
 13 16  1  0  0  0  0
 17 18  1  0  0  0  0
 19 20  2  0  0  0  0
 19 21  1  0  0  0  0
 21 22  1  0  0  0  0
 21 23  1  0  0  0  0
 23 24  1  0  0  0  0
 23 25  1  0  0  0  0
 23 26  1  0  0  0  0
M  END
$$$$

  -OEChem-01062216093D

 26 25  0     1  0  0  0  0  0999 V2000
   -3.0522   -3.1190    1.3362 H   0  0  0  0  0  0  0  0  0  0  0  0
   -2.9614   -2.1813    0.7805 C   0  0  0  0  0  0  0  0  0  0  0  0
   -3.8185   -1.5467    1.0176 H   0  0  0  0  0  0  0  0  0  0  0  0
   -2.9643   -2.4068   -0.2886 H   0  0  0  0  0  0  0  0  0  0  0  0
   -1.6719   -1.4752    1.1568 C   0  0  0  0  0  0  0  0  0  0  0  0
   -0.9879   -1.9374    2.0553 O   0  0  0  0  0  0  0  0  0  0  0  0
   -1.3534   -0.2864    0.5212 N   0  0  0  0  0  0  0  0  0  0  0  0
   -1.9845   -0.0293   -0.2290 H   0  0  0  0  0  0  0  0  0  0  0  0
   -0.0087    0.3415    0.5030 C   0  0  1  0  0  0  0  0  0  0  0  0
    0.1046    0.8141   -0.4765 H   0  0  0  0  0  0  0  0  0  0  0  0
    0.1175    1.4740    1.5542 C   0  0  1  0  0  0  0  0  0  0  0  0
    1.1084    1.9331    1.4731 H   0  0  0  0  0  0  0  0  0  0  0  0
   -0.9242    2.5679    1.3122 C   0  0  0  0  0  0  0  0  0  0  0  0
   -1.9370    2.1798    1.4586 H   0  0  0  0  0  0  0  0  0  0  0  0
   -0.7680    3.3987    2.0067 H   0  0  0  0  0  0  0  0  0  0  0  0
   -0.8419    2.9545    0.2921 H   0  0  0  0  0  0  0  0  0  0  0  0
   -0.0729    0.9924    2.8834 O   0  0  0  0  0  0  0  0  0  0  0  0
   -0.1338    1.7233    3.5204 H   0  0  0  0  0  0  0  0  0  0  0  0
    1.1721   -0.6621    0.5771 C   0  0  0  0  0  0  0  0  0  0  0  0
    1.1723   -1.6101   -0.2032 O   0  0  0  0  0  0  0  0  0  0  0  0
    2.3767   -0.3198    1.1701 N   0  0  0  0  0  0  0  0  0  0  0  0
    2.2975    0.3455    1.9343 H   0  0  0  0  0  0  0  0  0  0  0  0
    3.5219   -1.2225    1.1780 C   0  0  0  0  0  0  0  0  0  0  0  0
    3.8574   -1.4276    0.1559 H   0  0  0  0  0  0  0  0  0  0  0  0
    4.3535   -0.7723    1.7282 H   0  0  0  0  0  0  0  0  0  0  0  0
    3.2579   -2.1700    1.6595 H   0  0  0  0  0  0  0  0  0  0  0  0
  1  2  1  0  0  0  0
  2  3  1  0  0  0  0
  2  4  1  0  0  0  0
  2  5  1  0  0  0  0
  5  6  2  0  0  0  0
  5  7  1  0  0  0  0
  7  8  1  0  0  0  0
  7  9  1  0  0  0  0
  9 10  1  0  0  0  0
  9 11  1  0  0  0  0
  9 19  1  0  0  0  0
 11 12  1  0  0  0  0
 11 13  1  0  0  0  0
 11 17  1  0  0  0  0
 13 14  1  0  0  0  0
 13 15  1  0  0  0  0
 13 16  1  0  0  0  0
 17 18  1  0  0  0  0
 19 20  2  0  0  0  0
 19 21  1  0  0  0  0
 21 22  1  0  0  0  0
 21 23  1  0  0  0  0
 23 24  1  0  0  0  0
 23 25  1  0  0  0  0
 23 26  1  0  0  0  0
M  END
$$$$

  -OEChem-01062216093D

 26 25  0     1  0  0  0  0  0999 V2000
   -3.0578   -3.1079    1.3392 H   0  0  0  0  0  0  0  0  0  0  0  0
   -2.9679   -2.1663    0.7902 C   0  0  0  0  0  0  0  0  0  0  0  0
   -3.8046   -1.5187    1.0621 H   0  0  0  0  0  0  0  0  0  0  0  0
   -3.0110   -2.3801   -0.2804 H   0  0  0  0  0  0  0  0  0  0  0  0
   -1.6541   -1.4873    1.1305 C   0  0  0  0  0  0  0  0  0  0  0  0
   -0.9403   -1.9808    1.9880 O   0  0  0  0  0  0  0  0  0  0  0  0
   -1.3403   -0.2938    0.5023 N   0  0  0  0  0  0  0  0  0  0  0  0
   -1.9925   -0.0081   -0.2192 H   0  0  0  0  0  0  0  0  0  0  0  0
   -0.0035    0.3488    0.4898 C   0  0  1  0  0  0  0  0  0  0  0  0
    0.1078    0.8263   -0.4876 H   0  0  0  0  0  0  0  0  0  0  0  0
    0.1153    1.4769    1.5460 C   0  0  1  0  0  0  0  0  0  0  0  0
    1.1049    1.9398    1.4633 H   0  0  0  0  0  0  0  0  0  0  0  0
   -0.9337    2.5647    1.3106 C   0  0  0  0  0  0  0  0  0  0  0  0
   -1.9436    2.1690    1.4573 H   0  0  0  0  0  0  0  0  0  0  0  0
   -0.7815    3.3936    2.0083 H   0  0  0  0  0  0  0  0  0  0  0  0
   -0.8560    2.9557    0.2918 H   0  0  0  0  0  0  0  0  0  0  0  0
   -0.0690    0.9878    2.8748 O   0  0  0  0  0  0  0  0  0  0  0  0
   -0.1285    1.7175    3.5140 H   0  0  0  0  0  0  0  0  0  0  0  0
    1.1816   -0.6462    0.5648 C   0  0  0  0  0  0  0  0  0  0  0  0
    1.2925   -1.4786   -0.3303 O   0  0  0  0  0  0  0  0  0  0  0  0
    2.2577   -0.4335    1.4091 N   0  0  0  0  0  0  0  0  0  0  0  0
    2.0232    0.0945    2.2475 H   0  0  0  0  0  0  0  0  0  0  0  0
    3.3718   -1.3697    1.4910 C   0  0  0  0  0  0  0  0  0  0  0  0
    3.8785   -1.4503    0.5236 H   0  0  0  0  0  0  0  0  0  0  0  0
    4.0993   -1.0264    2.2325 H   0  0  0  0  0  0  0  0  0  0  0  0
    3.0153   -2.3624    1.7863 H   0  0  0  0  0  0  0  0  0  0  0  0
  1  2  1  0  0  0  0
  2  3  1  0  0  0  0
  2  4  1  0  0  0  0
  2  5  1  0  0  0  0
  5  6  2  0  0  0  0
  5  7  1  0  0  0  0
  7  8  1  0  0  0  0
  7  9  1  0  0  0  0
  9 10  1  0  0  0  0
  9 11  1  0  0  0  0
  9 19  1  0  0  0  0
 11 12  1  0  0  0  0
 11 13  1  0  0  0  0
 11 17  1  0  0  0  0
 13 14  1  0  0  0  0
 13 15  1  0  0  0  0
 13 16  1  0  0  0  0
 17 18  1  0  0  0  0
 19 20  2  0  0  0  0
 19 21  1  0  0  0  0
 21 22  1  0  0  0  0
 21 23  1  0  0  0  0
 23 24  1  0  0  0  0
 23 25  1  0  0  0  0
 23 26  1  0  0  0  0
M  END
$$$$

  -OEChem-01062216093D

 26 25  0     1  0  0  0  0  0999 V2000
   -3.0770   -3.0942    1.3359 H   0  0  0  0  0  0  0  0  0  0  0  0
   -2.9828   -2.1475    0.7961 C   0  0  0  0  0  0  0  0  0  0  0  0
   -3.7991   -1.4870    1.0979 H   0  0  0  0  0  0  0  0  0  0  0  0
   -3.0582   -2.3469   -0.2756 H   0  0  0  0  0  0  0  0  0  0  0  0
   -1.6476   -1.4981    1.1091 C   0  0  0  0  0  0  0  0  0  0  0  0
   -0.9141   -2.0240    1.9298 O   0  0  0  0  0  0  0  0  0  0  0  0
   -1.3289   -0.3026    0.4879 N   0  0  0  0  0  0  0  0  0  0  0  0
   -2.0002    0.0174   -0.2013 H   0  0  0  0  0  0  0  0  0  0  0  0
    0.0043    0.3459    0.4830 C   0  0  1  0  0  0  0  0  0  0  0  0
    0.1150    0.8290   -0.4920 H   0  0  0  0  0  0  0  0  0  0  0  0
    0.1090    1.4689    1.5457 C   0  0  1  0  0  0  0  0  0  0  0  0
    1.1008    1.9288    1.4719 H   0  0  0  0  0  0  0  0  0  0  0  0
   -0.9382    2.5575    1.3060 C   0  0  0  0  0  0  0  0  0  0  0  0
   -1.9491    2.1611    1.4425 H   0  0  0  0  0  0  0  0  0  0  0  0
   -0.7920    3.3836    2.0081 H   0  0  0  0  0  0  0  0  0  0  0  0
   -0.8518    2.9528    0.2894 H   0  0  0  0  0  0  0  0  0  0  0  0
   -0.0807    0.9747    2.8737 O   0  0  0  0  0  0  0  0  0  0  0  0
   -0.1261    1.7042    3.5148 H   0  0  0  0  0  0  0  0  0  0  0  0
    1.1987   -0.6357    0.5613 C   0  0  0  0  0  0  0  0  0  0  0  0
    1.4390   -1.3369   -0.4162 O   0  0  0  0  0  0  0  0  0  0  0  0
    2.1083   -0.5901    1.6021 N   0  0  0  0  0  0  0  0  0  0  0  0
    1.7259   -0.1846    2.4561 H   0  0  0  0  0  0  0  0  0  0  0  0
    3.1840   -1.5635    1.7339 C   0  0  0  0  0  0  0  0  0  0  0  0
    3.8469   -1.5251    0.8632 H   0  0  0  0  0  0  0  0  0  0  0  0
    3.7776   -1.3494    2.6276 H   0  0  0  0  0  0  0  0  0  0  0  0
    2.7743   -2.5753    1.8214 H   0  0  0  0  0  0  0  0  0  0  0  0
  1  2  1  0  0  0  0
  2  3  1  0  0  0  0
  2  4  1  0  0  0  0
  2  5  1  0  0  0  0
  5  6  2  0  0  0  0
  5  7  1  0  0  0  0
  7  8  1  0  0  0  0
  7  9  1  0  0  0  0
  9 10  1  0  0  0  0
  9 11  1  0  0  0  0
  9 19  1  0  0  0  0
 11 12  1  0  0  0  0
 11 13  1  0  0  0  0
 11 17  1  0  0  0  0
 13 14  1  0  0  0  0
 13 15  1  0  0  0  0
 13 16  1  0  0  0  0
 17 18  1  0  0  0  0
 19 20  2  0  0  0  0
 19 21  1  0  0  0  0
 21 22  1  0  0  0  0
 21 23  1  0  0  0  0
 23 24  1  0  0  0  0
 23 25  1  0  0  0  0
 23 26  1  0  0  0  0
M  END
$$$$

  -OEChem-01062216093D

 26 25  0     1  0  0  0  0  0999 V2000
   -3.1196   -3.0659    1.3383 H   0  0  0  0  0  0  0  0  0  0  0  0
   -3.0114   -2.1185    0.8024 C   0  0  0  0  0  0  0  0  0  0  0  0
   -3.8002   -1.4370    1.1296 H   0  0  0  0  0  0  0  0  0  0  0  0
   -3.1203   -2.3075   -0.2682 H   0  0  0  0  0  0  0  0  0  0  0  0
   -1.6504   -1.5100    1.0850 C   0  0  0  0  0  0  0  0  0  0  0  0
   -0.9069   -2.0696    1.8733 O   0  0  0  0  0  0  0  0  0  0  0  0
   -1.3168   -0.3162    0.4696 N   0  0  0  0  0  0  0  0  0  0  0  0
   -2.0044    0.0441   -0.1828 H   0  0  0  0  0  0  0  0  0  0  0  0
    0.0152    0.3342    0.4776 C   0  0  1  0  0  0  0  0  0  0  0  0
    0.1301    0.8229   -0.4945 H   0  0  0  0  0  0  0  0  0  0  0  0
    0.0967    1.4517    1.5475 C   0  0  1  0  0  0  0  0  0  0  0  0
    1.0909    1.9095    1.4917 H   0  0  0  0  0  0  0  0  0  0  0  0
   -0.9460    2.5423    1.2971 C   0  0  0  0  0  0  0  0  0  0  0  0
   -1.9590    2.1464    1.4174 H   0  0  0  0  0  0  0  0  0  0  0  0
   -0.8089    3.3647    2.0055 H   0  0  0  0  0  0  0  0  0  0  0  0
   -0.8443    2.9425    0.2838 H   0  0  0  0  0  0  0  0  0  0  0  0
   -0.1096    0.9509    2.8721 O   0  0  0  0  0  0  0  0  0  0  0  0
   -0.1152    1.6756    3.5203 H   0  0  0  0  0  0  0  0  0  0  0  0
    1.2242   -0.6274    0.5693 C   0  0  0  0  0  0  0  0  0  0  0  0
    1.6149   -1.1747   -0.4563 O   0  0  0  0  0  0  0  0  0  0  0  0
    1.9424   -0.7799    1.7406 N   0  0  0  0  0  0  0  0  0  0  0  0
    1.4242   -0.4953    2.5729 H   0  0  0  0  0  0  0  0  0  0  0  0
    2.9796   -1.7908    1.8927 C   0  0  0  0  0  0  0  0  0  0  0  0
    3.7751   -1.6403    1.1556 H   0  0  0  0  0  0  0  0  0  0  0  0
    3.4213   -1.7301    2.8919 H   0  0  0  0  0  0  0  0  0  0  0  0
    2.5577   -2.7923    1.7580 H   0  0  0  0  0  0  0  0  0  0  0  0
  1  2  1  0  0  0  0
  2  3  1  0  0  0  0
  2  4  1  0  0  0  0
  2  5  1  0  0  0  0
  5  6  2  0  0  0  0
  5  7  1  0  0  0  0
  7  8  1  0  0  0  0
  7  9  1  0  0  0  0
  9 10  1  0  0  0  0
  9 11  1  0  0  0  0
  9 19  1  0  0  0  0
 11 12  1  0  0  0  0
 11 13  1  0  0  0  0
 11 17  1  0  0  0  0
 13 14  1  0  0  0  0
 13 15  1  0  0  0  0
 13 16  1  0  0  0  0
 17 18  1  0  0  0  0
 19 20  2  0  0  0  0
 19 21  1  0  0  0  0
 21 22  1  0  0  0  0
 21 23  1  0  0  0  0
 23 24  1  0  0  0  0
 23 25  1  0  0  0  0
 23 26  1  0  0  0  0
M  END
$$$$

  -OEChem-01062216093D

 26 25  0     1  0  0  0  0  0999 V2000
   -3.2066   -3.0200    1.3315 H   0  0  0  0  0  0  0  0  0  0  0  0
   -3.0729   -2.0698    0.8063 C   0  0  0  0  0  0  0  0  0  0  0  0
   -3.8233   -1.3614    1.1651 H   0  0  0  0  0  0  0  0  0  0  0  0
   -3.2187   -2.2374   -0.2635 H   0  0  0  0  0  0  0  0  0  0  0  0
   -1.6806   -1.5228    1.0616 C   0  0  0  0  0  0  0  0  0  0  0  0
   -0.9449   -2.1238    1.8254 O   0  0  0  0  0  0  0  0  0  0  0  0
   -1.3119   -0.3376    0.4507 N   0  0  0  0  0  0  0  0  0  0  0  0
   -2.0092    0.0713   -0.1616 H   0  0  0  0  0  0  0  0  0  0  0  0
    0.0243    0.3055    0.4761 C   0  0  1  0  0  0  0  0  0  0  0  0
    0.1493    0.7960   -0.4938 H   0  0  0  0  0  0  0  0  0  0  0  0
    0.0816    1.4198    1.5495 C   0  0  1  0  0  0  0  0  0  0  0  0
    1.0795    1.8717    1.5191 H   0  0  0  0  0  0  0  0  0  0  0  0
   -0.9485    2.5180    1.2798 C   0  0  0  0  0  0  0  0  0  0  0  0
   -1.9668    2.1277    1.3692 H   0  0  0  0  0  0  0  0  0  0  0  0
   -0.8267    3.3340    1.9982 H   0  0  0  0  0  0  0  0  0  0  0  0
   -0.8165    2.9255    0.2729 H   0  0  0  0  0  0  0  0  0  0  0  0
   -0.1535    0.9117    2.8670 O   0  0  0  0  0  0  0  0  0  0  0  0
   -0.1092    1.6254    3.5260 H   0  0  0  0  0  0  0  0  0  0  0  0
    1.2501   -0.6324    0.5939 C   0  0  0  0  0  0  0  0  0  0  0  0
    1.8135   -0.9905   -0.4347 O   0  0  0  0  0  0  0  0  0  0  0  0
    1.7708   -1.0031    1.8189 N   0  0  0  0  0  0  0  0  0  0  0  0
    1.1192   -0.8684    2.5937 H   0  0  0  0  0  0  0  0  0  0  0  0
    2.8017   -2.0219    1.9586 C   0  0  0  0  0  0  0  0  0  0  0  0
    3.6957   -1.7464    1.3895 H   0  0  0  0  0  0  0  0  0  0  0  0
    3.0834   -2.1295    3.0103 H   0  0  0  0  0  0  0  0  0  0  0  0
    2.4345   -2.9873    1.5950 H   0  0  0  0  0  0  0  0  0  0  0  0
  1  2  1  0  0  0  0
  2  3  1  0  0  0  0
  2  4  1  0  0  0  0
  2  5  1  0  0  0  0
  5  6  2  0  0  0  0
  5  7  1  0  0  0  0
  7  8  1  0  0  0  0
  7  9  1  0  0  0  0
  9 10  1  0  0  0  0
  9 11  1  0  0  0  0
  9 19  1  0  0  0  0
 11 12  1  0  0  0  0
 11 13  1  0  0  0  0
 11 17  1  0  0  0  0
 13 14  1  0  0  0  0
 13 15  1  0  0  0  0
 13 16  1  0  0  0  0
 17 18  1  0  0  0  0
 19 20  2  0  0  0  0
 19 21  1  0  0  0  0
 21 22  1  0  0  0  0
 21 23  1  0  0  0  0
 23 24  1  0  0  0  0
 23 25  1  0  0  0  0
 23 26  1  0  0  0  0
M  END
$$$$

  -OEChem-01062216093D

 26 25  0     1  0  0  0  0  0999 V2000
   -3.3381   -2.9645    1.3134 H   0  0  0  0  0  0  0  0  0  0  0  0
   -3.1625   -2.0209    0.7887 C   0  0  0  0  0  0  0  0  0  0  0  0
   -3.8924   -1.2850    1.1344 H   0  0  0  0  0  0  0  0  0  0  0  0
   -3.2979   -2.1860   -0.2828 H   0  0  0  0  0  0  0  0  0  0  0  0
   -1.7552   -1.5238    1.0635 C   0  0  0  0  0  0  0  0  0  0  0  0
   -1.0560   -2.1497    1.8406 O   0  0  0  0  0  0  0  0  0  0  0  0
   -1.3361   -0.3568    0.4507 N   0  0  0  0  0  0  0  0  0  0  0  0
   -2.0238    0.0802   -0.1533 H   0  0  0  0  0  0  0  0  0  0  0  0
    0.0126    0.2639    0.4815 C   0  0  1  0  0  0  0  0  0  0  0  0
    0.1426    0.7479   -0.4913 H   0  0  0  0  0  0  0  0  0  0  0  0
    0.0773    1.3811    1.5491 C   0  0  1  0  0  0  0  0  0  0  0  0
    1.0833    1.8156    1.5269 H   0  0  0  0  0  0  0  0  0  0  0  0
   -0.9324    2.4954    1.2696 C   0  0  0  0  0  0  0  0  0  0  0  0
   -1.9574    2.1216    1.3524 H   0  0  0  0  0  0  0  0  0  0  0  0
   -0.8025    3.3101    1.9881 H   0  0  0  0  0  0  0  0  0  0  0  0
   -0.7860    2.8989    0.2631 H   0  0  0  0  0  0  0  0  0  0  0  0
   -0.1780    0.8759    2.8632 O   0  0  0  0  0  0  0  0  0  0  0  0
   -0.0646    1.5731    3.5311 H   0  0  0  0  0  0  0  0  0  0  0  0
    1.2495   -0.6577    0.6228 C   0  0  0  0  0  0  0  0  0  0  0  0
    1.9858   -0.7927   -0.3484 O   0  0  0  0  0  0  0  0  0  0  0  0
    1.5983   -1.2565    1.8174 N   0  0  0  0  0  0  0  0  0  0  0  0
    0.8281   -1.3027    2.4885 H   0  0  0  0  0  0  0  0  0  0  0  0
    2.6661   -2.2397    1.9311 C   0  0  0  0  0  0  0  0  0  0  0  0
    3.6152   -1.8201    1.5819 H   0  0  0  0  0  0  0  0  0  0  0  0
    2.7874   -2.5419    2.9756 H   0  0  0  0  0  0  0  0  0  0  0  0
    2.4314   -3.1282    1.3360 H   0  0  0  0  0  0  0  0  0  0  0  0
  1  2  1  0  0  0  0
  2  3  1  0  0  0  0
  2  4  1  0  0  0  0
  2  5  1  0  0  0  0
  5  6  2  0  0  0  0
  5  7  1  0  0  0  0
  7  8  1  0  0  0  0
  7  9  1  0  0  0  0
  9 10  1  0  0  0  0
  9 11  1  0  0  0  0
  9 19  1  0  0  0  0
 11 12  1  0  0  0  0
 11 13  1  0  0  0  0
 11 17  1  0  0  0  0
 13 14  1  0  0  0  0
 13 15  1  0  0  0  0
 13 16  1  0  0  0  0
 17 18  1  0  0  0  0
 19 20  2  0  0  0  0
 19 21  1  0  0  0  0
 21 22  1  0  0  0  0
 21 23  1  0  0  0  0
 23 24  1  0  0  0  0
 23 25  1  0  0  0  0
 23 26  1  0  0  0  0
M  END
$$$$

  -OEChem-01062216093D

 26 25  0     1  0  0  0  0  0999 V2000
   -3.5259   -2.8453    1.3335 H   0  0  0  0  0  0  0  0  0  0  0  0
   -3.2848   -1.9275    0.7894 C   0  0  0  0  0  0  0  0  0  0  0  0
   -3.9516   -1.1323    1.1313 H   0  0  0  0  0  0  0  0  0  0  0  0
   -3.4473   -2.0994   -0.2774 H   0  0  0  0  0  0  0  0  0  0  0  0
   -1.8401   -1.5348    1.0382 C   0  0  0  0  0  0  0  0  0  0  0  0
   -1.1724   -2.2260    1.7862 O   0  0  0  0  0  0  0  0  0  0  0  0
   -1.3603   -0.3878    0.4320 N   0  0  0  0  0  0  0  0  0  0  0  0
   -2.0454    0.1072   -0.1287 H   0  0  0  0  0  0  0  0  0  0  0  0
    0.0020    0.2076    0.4722 C   0  0  1  0  0  0  0  0  0  0  0  0
    0.1407    0.6881   -0.5012 H   0  0  0  0  0  0  0  0  0  0  0  0
    0.0692    1.3210    1.5414 C   0  0  1  0  0  0  0  0  0  0  0  0
    1.0809    1.7426    1.5343 H   0  0  0  0  0  0  0  0  0  0  0  0
   -0.9221    2.4504    1.2567 C   0  0  0  0  0  0  0  0  0  0  0  0
   -1.9532    2.0925    1.3339 H   0  0  0  0  0  0  0  0  0  0  0  0
   -0.7832    3.2623    1.9767 H   0  0  0  0  0  0  0  0  0  0  0  0
   -0.7638    2.8524    0.2516 H   0  0  0  0  0  0  0  0  0  0  0  0
   -0.2103    0.8080    2.8466 O   0  0  0  0  0  0  0  0  0  0  0  0
   -0.0665    1.4884    3.5256 H   0  0  0  0  0  0  0  0  0  0  0  0
    1.2538   -0.6924    0.6356 C   0  0  0  0  0  0  0  0  0  0  0  0
    2.1372   -0.6006   -0.2101 O   0  0  0  0  0  0  0  0  0  0  0  0
    1.4679   -1.5149    1.7234 N   0  0  0  0  0  0  0  0  0  0  0  0
    0.6285   -1.7055    2.2772 H   0  0  0  0  0  0  0  0  0  0  0  0
    2.5902   -2.4364    1.8278 C   0  0  0  0  0  0  0  0  0  0  0  0
    3.5396   -1.8965    1.7520 H   0  0  0  0  0  0  0  0  0  0  0  0
    2.5640   -2.9513    2.7928 H   0  0  0  0  0  0  0  0  0  0  0  0
    2.5443   -3.1860    1.0313 H   0  0  0  0  0  0  0  0  0  0  0  0
  1  2  1  0  0  0  0
  2  3  1  0  0  0  0
  2  4  1  0  0  0  0
  2  5  1  0  0  0  0
  5  6  2  0  0  0  0
  5  7  1  0  0  0  0
  7  8  1  0  0  0  0
  7  9  1  0  0  0  0
  9 10  1  0  0  0  0
  9 11  1  0  0  0  0
  9 19  1  0  0  0  0
 11 12  1  0  0  0  0
 11 13  1  0  0  0  0
 11 17  1  0  0  0  0
 13 14  1  0  0  0  0
 13 15  1  0  0  0  0
 13 16  1  0  0  0  0
 17 18  1  0  0  0  0
 19 20  2  0  0  0  0
 19 21  1  0  0  0  0
 21 22  1  0  0  0  0
 21 23  1  0  0  0  0
 23 24  1  0  0  0  0
 23 25  1  0  0  0  0
 23 26  1  0  0  0  0
M  END
$$$$

  -OEChem-01062216093D

 26 25  0     1  0  0  0  0  0999 V2000
   -3.6790   -2.7502    1.3304 H   0  0  0  0  0  0  0  0  0  0  0  0
   -3.3915   -1.8463    0.7857 C   0  0  0  0  0  0  0  0  0  0  0  0
   -4.0127   -1.0168    1.1320 H   0  0  0  0  0  0  0  0  0  0  0  0
   -3.5694   -2.0078   -0.2802 H   0  0  0  0  0  0  0  0  0  0  0  0
   -1.9258   -1.5330    1.0255 C   0  0  0  0  0  0  0  0  0  0  0  0
   -1.2909   -2.2743    1.7529 O   0  0  0  0  0  0  0  0  0  0  0  0
   -1.3967   -0.4047    0.4247 N   0  0  0  0  0  0  0  0  0  0  0  0
   -2.0736    0.1300   -0.1088 H   0  0  0  0  0  0  0  0  0  0  0  0
   -0.0194    0.1609    0.4591 C   0  0  1  0  0  0  0  0  0  0  0  0
    0.1187    0.6403   -0.5150 H   0  0  0  0  0  0  0  0  0  0  0  0
    0.0693    1.2682    1.5330 C   0  0  1  0  0  0  0  0  0  0  0  0
    1.0878    1.6739    1.5289 H   0  0  0  0  0  0  0  0  0  0  0  0
   -0.9018    2.4172    1.2576 C   0  0  0  0  0  0  0  0  0  0  0  0
   -1.9393    2.0787    1.3353 H   0  0  0  0  0  0  0  0  0  0  0  0
   -0.7458    3.2222    1.9819 H   0  0  0  0  0  0  0  0  0  0  0  0
   -0.7378    2.8219    0.2543 H   0  0  0  0  0  0  0  0  0  0  0  0
   -0.2183    0.7475    2.8330 O   0  0  0  0  0  0  0  0  0  0  0  0
   -0.0544    1.4157    3.5195 H   0  0  0  0  0  0  0  0  0  0  0  0
    1.2402   -0.7302    0.6212 C   0  0  0  0  0  0  0  0  0  0  0  0
    2.2113   -0.4603   -0.0776 O   0  0  0  0  0  0  0  0  0  0  0  0
    1.3663   -1.7597    1.5307 N   0  0  0  0  0  0  0  0  0  0  0  0
    0.5080   -2.0219    2.0225 H   0  0  0  0  0  0  0  0  0  0  0  0
    2.5326   -2.6244    1.6372 C   0  0  0  0  0  0  0  0  0  0  0  0
    3.4329   -2.0329    1.8334 H   0  0  0  0  0  0  0  0  0  0  0  0
    2.3996   -3.3328    2.4604 H   0  0  0  0  0  0  0  0  0  0  0  0
    2.6750   -3.1900    0.7109 H   0  0  0  0  0  0  0  0  0  0  0  0
  1  2  1  0  0  0  0
  2  3  1  0  0  0  0
  2  4  1  0  0  0  0
  2  5  1  0  0  0  0
  5  6  2  0  0  0  0
  5  7  1  0  0  0  0
  7  8  1  0  0  0  0
  7  9  1  0  0  0  0
  9 10  1  0  0  0  0
  9 11  1  0  0  0  0
  9 19  1  0  0  0  0
 11 12  1  0  0  0  0
 11 13  1  0  0  0  0
 11 17  1  0  0  0  0
 13 14  1  0  0  0  0
 13 15  1  0  0  0  0
 13 16  1  0  0  0  0
 17 18  1  0  0  0  0
 19 20  2  0  0  0  0
 19 21  1  0  0  0  0
 21 22  1  0  0  0  0
 21 23  1  0  0  0  0
 23 24  1  0  0  0  0
 23 25  1  0  0  0  0
 23 26  1  0  0  0  0
M  END
$$$$

  -OEChem-01062216093D

 26 25  0     1  0  0  0  0  0999 V2000
   -3.0951   -3.2167    1.4251 H   0  0  0  0  0  0  0  0  0  0  0  0
   -2.9255   -2.3085    0.8397 C   0  0  0  0  0  0  0  0  0  0  0  0
   -3.7446   -1.6106    1.0292 H   0  0  0  0  0  0  0  0  0  0  0  0
   -2.9153   -2.5724   -0.2204 H   0  0  0  0  0  0  0  0  0  0  0  0
   -1.6039   -1.6727    1.2306 C   0  0  0  0  0  0  0  0  0  0  0  0
   -0.9911   -2.1532    2.1633 O   0  0  0  0  0  0  0  0  0  0  0  0
   -1.2203   -0.5195    0.5722 N   0  0  0  0  0  0  0  0  0  0  0  0
   -1.9070   -0.1830   -0.0934 H   0  0  0  0  0  0  0  0  0  0  0  0
    0.0634    0.2336    0.6014 C   0  0  1  0  0  0  0  0  0  0  0  0
    0.1613    0.6504   -0.4049 H   0  0  0  0  0  0  0  0  0  0  0  0
   -0.0738    1.4327    1.5755 C   0  0  1  0  0  0  0  0  0  0  0  0
    0.8659    1.9961    1.5819 H   0  0  0  0  0  0  0  0  0  0  0  0
   -1.1889    2.3919    1.1524 C   0  0  0  0  0  0  0  0  0  0  0  0
   -2.1673    1.9064    1.2148 H   0  0  0  0  0  0  0  0  0  0  0  0
   -1.1971    3.2691    1.8061 H   0  0  0  0  0  0  0  0  0  0  0  0
   -1.0295    2.7318    0.1248 H   0  0  0  0  0  0  0  0  0  0  0  0
   -0.3565    0.9929    2.9047 O   0  0  0  0  0  0  0  0  0  0  0  0
   -0.3221    1.7323    3.5330 H   0  0  0  0  0  0  0  0  0  0  0  0
    1.4619   -0.4144    0.8373 C   0  0  0  0  0  0  0  0  0  0  0  0
    2.4445    0.2584    0.5539 O   0  0  0  0  0  0  0  0  0  0  0  0
    1.8264   -1.5292    1.5550 N   0  0  0  0  0  0  0  0  0  0  0  0
    2.7740   -1.4196    1.9032 H   0  0  0  0  0  0  0  0  0  0  0  0
    1.5681   -2.8494    0.9940 C   0  0  0  0  0  0  0  0  0  0  0  0
    2.4765   -3.2409    0.5257 H   0  0  0  0  0  0  0  0  0  0  0  0
    1.2590   -3.5401    1.7849 H   0  0  0  0  0  0  0  0  0  0  0  0
    0.7819   -2.8174    0.2333 H   0  0  0  0  0  0  0  0  0  0  0  0
  1  2  1  0  0  0  0
  2  3  1  0  0  0  0
  2  4  1  0  0  0  0
  2  5  1  0  0  0  0
  5  6  2  0  0  0  0
  5  7  1  0  0  0  0
  7  8  1  0  0  0  0
  7  9  1  0  0  0  0
  9 10  1  0  0  0  0
  9 11  1  0  0  0  0
  9 19  1  0  0  0  0
 11 12  1  0  0  0  0
 11 13  1  0  0  0  0
 11 17  1  0  0  0  0
 13 14  1  0  0  0  0
 13 15  1  0  0  0  0
 13 16  1  0  0  0  0
 17 18  1  0  0  0  0
 19 20  2  0  0  0  0
 19 21  1  0  0  0  0
 21 22  1  0  0  0  0
 21 23  1  0  0  0  0
 23 24  1  0  0  0  0
 23 25  1  0  0  0  0
 23 26  1  0  0  0  0
M  END
$$$$

  -OEChem-01062216093D

 26 25  0     1  0  0  0  0  0999 V2000
   -3.5780   -2.8979    1.4251 H   0  0  0  0  0  0  0  0  0  0  0  0
   -3.3690   -1.9281    0.9639 C   0  0  0  0  0  0  0  0  0  0  0  0
   -3.8840   -1.1514    1.5342 H   0  0  0  0  0  0  0  0  0  0  0  0
   -3.7515   -1.9367   -0.0595 H   0  0  0  0  0  0  0  0  0  0  0  0
   -1.8745   -1.6617    0.9564 C   0  0  0  0  0  0  0  0  0  0  0  0
   -1.1462   -2.5212    1.4055 O   0  0  0  0  0  0  0  0  0  0  0  0
   -1.4471   -0.4444    0.4607 N   0  0  0  0  0  0  0  0  0  0  0  0
   -2.2129    0.1556    0.1760 H   0  0  0  0  0  0  0  0  0  0  0  0
   -0.0926    0.1501    0.2849 C   0  0  1  0  0  0  0  0  0  0  0  0
   -0.1888    0.7701   -0.6117 H   0  0  0  0  0  0  0  0  0  0  0  0
    0.2142    1.1062    1.4624 C   0  0  1  0  0  0  0  0  0  0  0  0
    1.2056    1.5476    1.3060 H   0  0  0  0  0  0  0  0  0  0  0  0
   -0.8005    2.2476    1.5529 C   0  0  0  0  0  0  0  0  0  0  0  0
   -1.7972    1.8665    1.7939 H   0  0  0  0  0  0  0  0  0  0  0  0
   -0.5029    2.9536    2.3338 H   0  0  0  0  0  0  0  0  0  0  0  0
   -0.8511    2.7887    0.6032 H   0  0  0  0  0  0  0  0  0  0  0  0
    0.2057    0.4163    2.7136 O   0  0  0  0  0  0  0  0  0  0  0  0
    0.4500    1.0127    3.4409 H   0  0  0  0  0  0  0  0  0  0  0  0
    1.2083   -0.6597    0.0089 C   0  0  0  0  0  0  0  0  0  0  0  0
    2.0327   -0.1290   -0.7237 O   0  0  0  0  0  0  0  0  0  0  0  0
    1.4727   -2.0022    0.1385 N   0  0  0  0  0  0  0  0  0  0  0  0
    2.1833   -2.2774   -0.5328 H   0  0  0  0  0  0  0  0  0  0  0  0
    1.7109   -2.5364    1.4748 C   0  0  0  0  0  0  0  0  0  0  0  0
    1.2026   -1.9473    2.2438 H   0  0  0  0  0  0  0  0  0  0  0  0
    1.3491   -3.5675    1.5369 H   0  0  0  0  0  0  0  0  0  0  0  0
    2.7824   -2.5283    1.6961 H   0  0  0  0  0  0  0  0  0  0  0  0
  1  2  1  0  0  0  0
  2  3  1  0  0  0  0
  2  4  1  0  0  0  0
  2  5  1  0  0  0  0
  5  6  2  0  0  0  0
  5  7  1  0  0  0  0
  7  8  1  0  0  0  0
  7  9  1  0  0  0  0
  9 10  1  0  0  0  0
  9 11  1  0  0  0  0
  9 19  1  0  0  0  0
 11 12  1  0  0  0  0
 11 13  1  0  0  0  0
 11 17  1  0  0  0  0
 13 14  1  0  0  0  0
 13 15  1  0  0  0  0
 13 16  1  0  0  0  0
 17 18  1  0  0  0  0
 19 20  2  0  0  0  0
 19 21  1  0  0  0  0
 21 22  1  0  0  0  0
 21 23  1  0  0  0  0
 23 24  1  0  0  0  0
 23 25  1  0  0  0  0
 23 26  1  0  0  0  0
M  END
$$$$

  -OEChem-01062216093D

 26 25  0     1  0  0  0  0  0999 V2000
   -3.7583   -2.6653    1.3836 H   0  0  0  0  0  0  0  0  0  0  0  0
   -3.4647   -1.7585    0.8467 C   0  0  0  0  0  0  0  0  0  0  0  0
   -4.0183   -0.9124    1.2609 H   0  0  0  0  0  0  0  0  0  0  0  0
   -3.7240   -1.8759   -0.2081 H   0  0  0  0  0  0  0  0  0  0  0  0
   -1.9722   -1.5231    0.9911 C   0  0  0  0  0  0  0  0  0  0  0  0
   -1.3211   -2.3300    1.6292 O   0  0  0  0  0  0  0  0  0  0  0  0
   -1.4336   -0.3917    0.4045 N   0  0  0  0  0  0  0  0  0  0  0  0
   -2.1259    0.2092   -0.0294 H   0  0  0  0  0  0  0  0  0  0  0  0
   -0.0409    0.1399    0.4045 C   0  0  1  0  0  0  0  0  0  0  0  0
    0.0810    0.6413   -0.5597 H   0  0  0  0  0  0  0  0  0  0  0  0
    0.0749    1.2180    1.5117 C   0  0  1  0  0  0  0  0  0  0  0  0
    1.0915    1.6265    1.5090 H   0  0  0  0  0  0  0  0  0  0  0  0
   -0.8933    2.3820    1.2892 C   0  0  0  0  0  0  0  0  0  0  0  0
   -1.9321    2.0507    1.3776 H   0  0  0  0  0  0  0  0  0  0  0  0
   -0.7167    3.1637    2.0339 H   0  0  0  0  0  0  0  0  0  0  0  0
   -0.7453    2.8153    0.2954 H   0  0  0  0  0  0  0  0  0  0  0  0
   -0.1962    0.6567    2.7981 O   0  0  0  0  0  0  0  0  0  0  0  0
    0.0339    1.2830    3.5046 H   0  0  0  0  0  0  0  0  0  0  0  0
    1.2154   -0.7726    0.4938 C   0  0  0  0  0  0  0  0  0  0  0  0
    2.3093   -0.2450    0.3157 O   0  0  0  0  0  0  0  0  0  0  0  0
    1.1891   -2.1507    0.5818 N   0  0  0  0  0  0  0  0  0  0  0  0
    0.3079   -2.5438    0.9176 H   0  0  0  0  0  0  0  0  0  0  0  0
    2.3875   -2.9726    0.6900 C   0  0  0  0  0  0  0  0  0  0  0  0
    2.9607   -2.6989    1.5819 H   0  0  0  0  0  0  0  0  0  0  0  0
    2.1118   -4.0288    0.7645 H   0  0  0  0  0  0  0  0  0  0  0  0
    3.0227   -2.8438   -0.1925 H   0  0  0  0  0  0  0  0  0  0  0  0
  1  2  1  0  0  0  0
  2  3  1  0  0  0  0
  2  4  1  0  0  0  0
  2  5  1  0  0  0  0
  5  6  2  0  0  0  0
  5  7  1  0  0  0  0
  7  8  1  0  0  0  0
  7  9  1  0  0  0  0
  9 10  1  0  0  0  0
  9 11  1  0  0  0  0
  9 19  1  0  0  0  0
 11 12  1  0  0  0  0
 11 13  1  0  0  0  0
 11 17  1  0  0  0  0
 13 14  1  0  0  0  0
 13 15  1  0  0  0  0
 13 16  1  0  0  0  0
 17 18  1  0  0  0  0
 19 20  2  0  0  0  0
 19 21  1  0  0  0  0
 21 22  1  0  0  0  0
 21 23  1  0  0  0  0
 23 24  1  0  0  0  0
 23 25  1  0  0  0  0
 23 26  1  0  0  0  0
M  END
$$$$

  -OEChem-01062216093D

 26 25  0     1  0  0  0  0  0999 V2000
   -3.6826   -2.6770    1.4334 H   0  0  0  0  0  0  0  0  0  0  0  0
   -3.4168   -1.7589    0.9014 C   0  0  0  0  0  0  0  0  0  0  0  0
   -3.9311   -0.9196    1.3756 H   0  0  0  0  0  0  0  0  0  0  0  0
   -3.7495   -1.8447   -0.1358 H   0  0  0  0  0  0  0  0  0  0  0  0
   -1.9158   -1.5406    0.9492 C   0  0  0  0  0  0  0  0  0  0  0  0
   -1.2242   -2.3893    1.4821 O   0  0  0  0  0  0  0  0  0  0  0  0
   -1.4054   -0.3912    0.3730 N   0  0  0  0  0  0  0  0  0  0  0  0
   -2.1183    0.2419    0.0270 H   0  0  0  0  0  0  0  0  0  0  0  0
   -0.0200    0.1568    0.3901 C   0  0  1  0  0  0  0  0  0  0  0  0
    0.1098    0.6669   -0.5683 H   0  0  0  0  0  0  0  0  0  0  0  0
    0.0632    1.2296    1.5074 C   0  0  1  0  0  0  0  0  0  0  0  0
    1.0718    1.6569    1.5226 H   0  0  0  0  0  0  0  0  0  0  0  0
   -0.9195    2.3808    1.2819 C   0  0  0  0  0  0  0  0  0  0  0  0
   -1.9544    2.0347    1.3567 H   0  0  0  0  0  0  0  0  0  0  0  0
   -0.7623    3.1597    2.0342 H   0  0  0  0  0  0  0  0  0  0  0  0
   -0.7661    2.8234    0.2930 H   0  0  0  0  0  0  0  0  0  0  0  0
   -0.2180    0.6525    2.7848 O   0  0  0  0  0  0  0  0  0  0  0  0
    0.0340    1.2598    3.5006 H   0  0  0  0  0  0  0  0  0  0  0  0
    1.2336   -0.7607    0.4791 C   0  0  0  0  0  0  0  0  0  0  0  0
    2.3400   -0.2307    0.5248 O   0  0  0  0  0  0  0  0  0  0  0  0
    1.1986   -2.1236    0.2502 N   0  0  0  0  0  0  0  0  0  0  0  0
    0.2973   -2.5559    0.4606 H   0  0  0  0  0  0  0  0  0  0  0  0
    2.3823   -2.9707    0.3282 C   0  0  0  0  0  0  0  0  0  0  0  0
    2.8333   -2.9088    1.3241 H   0  0  0  0  0  0  0  0  0  0  0  0
    2.1111   -4.0128    0.1342 H   0  0  0  0  0  0  0  0  0  0  0  0
    3.1244   -2.6638   -0.4162 H   0  0  0  0  0  0  0  0  0  0  0  0
  1  2  1  0  0  0  0
  2  3  1  0  0  0  0
  2  4  1  0  0  0  0
  2  5  1  0  0  0  0
  5  6  2  0  0  0  0
  5  7  1  0  0  0  0
  7  8  1  0  0  0  0
  7  9  1  0  0  0  0
  9 10  1  0  0  0  0
  9 11  1  0  0  0  0
  9 19  1  0  0  0  0
 11 12  1  0  0  0  0
 11 13  1  0  0  0  0
 11 17  1  0  0  0  0
 13 14  1  0  0  0  0
 13 15  1  0  0  0  0
 13 16  1  0  0  0  0
 17 18  1  0  0  0  0
 19 20  2  0  0  0  0
 19 21  1  0  0  0  0
 21 22  1  0  0  0  0
 21 23  1  0  0  0  0
 23 24  1  0  0  0  0
 23 25  1  0  0  0  0
 23 26  1  0  0  0  0
M  END
$$$$

  -OEChem-01062216093D

 26 25  0     1  0  0  0  0  0999 V2000
   -3.5697   -2.7213    1.4440 H   0  0  0  0  0  0  0  0  0  0  0  0
   -3.3435   -1.7648    0.9637 C   0  0  0  0  0  0  0  0  0  0  0  0
   -3.7997   -0.9630    1.5495 H   0  0  0  0  0  0  0  0  0  0  0  0
   -3.7733   -1.7654   -0.0407 H   0  0  0  0  0  0  0  0  0  0  0  0
   -1.8420   -1.5592    0.8876 C   0  0  0  0  0  0  0  0  0  0  0  0
   -1.1114   -2.4484    1.2856 O   0  0  0  0  0  0  0  0  0  0  0  0
   -1.3674   -0.3893    0.3222 N   0  0  0  0  0  0  0  0  0  0  0  0
   -2.0993    0.2712    0.0840 H   0  0  0  0  0  0  0  0  0  0  0  0
    0.0076    0.1790    0.3740 C   0  0  1  0  0  0  0  0  0  0  0  0
    0.1578    0.6985   -0.5763 H   0  0  0  0  0  0  0  0  0  0  0  0
    0.0431    1.2441    1.5017 C   0  0  1  0  0  0  0  0  0  0  0  0
    1.0431    1.6893    1.5449 H   0  0  0  0  0  0  0  0  0  0  0  0
   -0.9546    2.3797    1.2623 C   0  0  0  0  0  0  0  0  0  0  0  0
   -1.9849    2.0159    1.3154 H   0  0  0  0  0  0  0  0  0  0  0  0
   -0.8254    3.1568    2.0215 H   0  0  0  0  0  0  0  0  0  0  0  0
   -0.7895    2.8301    0.2790 H   0  0  0  0  0  0  0  0  0  0  0  0
   -0.2605    0.6490    2.7661 O   0  0  0  0  0  0  0  0  0  0  0  0
    0.0298    1.2230    3.4950 H   0  0  0  0  0  0  0  0  0  0  0  0
    1.2525   -0.7479    0.4808 C   0  0  0  0  0  0  0  0  0  0  0  0
    2.3403   -0.2648    0.7819 O   0  0  0  0  0  0  0  0  0  0  0  0
    1.2514   -2.0223   -0.0567 N   0  0  0  0  0  0  0  0  0  0  0  0
    0.3359   -2.4721   -0.0113 H   0  0  0  0  0  0  0  0  0  0  0  0
    2.4177   -2.8949    0.0004 C   0  0  0  0  0  0  0  0  0  0  0  0
    2.7093   -3.0764    1.0402 H   0  0  0  0  0  0  0  0  0  0  0  0
    2.1904   -3.8562   -0.4699 H   0  0  0  0  0  0  0  0  0  0  0  0
    3.2626   -2.4439   -0.5304 H   0  0  0  0  0  0  0  0  0  0  0  0
  1  2  1  0  0  0  0
  2  3  1  0  0  0  0
  2  4  1  0  0  0  0
  2  5  1  0  0  0  0
  5  6  2  0  0  0  0
  5  7  1  0  0  0  0
  7  8  1  0  0  0  0
  7  9  1  0  0  0  0
  9 10  1  0  0  0  0
  9 11  1  0  0  0  0
  9 19  1  0  0  0  0
 11 12  1  0  0  0  0
 11 13  1  0  0  0  0
 11 17  1  0  0  0  0
 13 14  1  0  0  0  0
 13 15  1  0  0  0  0
 13 16  1  0  0  0  0
 17 18  1  0  0  0  0
 19 20  2  0  0  0  0
 19 21  1  0  0  0  0
 21 22  1  0  0  0  0
 21 23  1  0  0  0  0
 23 24  1  0  0  0  0
 23 25  1  0  0  0  0
 23 26  1  0  0  0  0
M  END
$$$$

  -OEChem-01062216093D

 26 25  0     1  0  0  0  0  0999 V2000
   -3.3844   -2.7910    1.4926 H   0  0  0  0  0  0  0  0  0  0  0  0
   -3.2273   -1.8212    1.0116 C   0  0  0  0  0  0  0  0  0  0  0  0
   -3.7248   -1.0510    1.6065 H   0  0  0  0  0  0  0  0  0  0  0  0
   -3.6721   -1.8478    0.0140 H   0  0  0  0  0  0  0  0  0  0  0  0
   -1.7435   -1.5197    0.9135 C   0  0  0  0  0  0  0  0  0  0  0  0
   -0.9467   -2.3304    1.3505 O   0  0  0  0  0  0  0  0  0  0  0  0
   -1.3420   -0.3390    0.3149 N   0  0  0  0  0  0  0  0  0  0  0  0
   -2.1074    0.2887    0.0895 H   0  0  0  0  0  0  0  0  0  0  0  0
    0.0083    0.2812    0.3525 C   0  0  1  0  0  0  0  0  0  0  0  0
    0.1488    0.7928   -0.6036 H   0  0  0  0  0  0  0  0  0  0  0  0
    0.0234    1.3602    1.4655 C   0  0  1  0  0  0  0  0  0  0  0  0
    1.0067    1.8435    1.4887 H   0  0  0  0  0  0  0  0  0  0  0  0
   -1.0204    2.4531    1.2263 C   0  0  0  0  0  0  0  0  0  0  0  0
   -2.0351    2.0515    1.2975 H   0  0  0  0  0  0  0  0  0  0  0  0
   -0.9101    3.2393    1.9793 H   0  0  0  0  0  0  0  0  0  0  0  0
   -0.8854    2.9019    0.2379 H   0  0  0  0  0  0  0  0  0  0  0  0
   -0.2438    0.7693    2.7390 O   0  0  0  0  0  0  0  0  0  0  0  0
    0.4435    0.1045    2.9410 H   0  0  0  0  0  0  0  0  0  0  0  0
    1.2461   -0.6506    0.4729 C   0  0  0  0  0  0  0  0  0  0  0  0
    2.2085   -0.3343    1.1645 O   0  0  0  0  0  0  0  0  0  0  0  0
    1.3368   -1.7909   -0.3056 N   0  0  0  0  0  0  0  0  0  0  0  0
    0.4378   -2.1630   -0.6016 H   0  0  0  0  0  0  0  0  0  0  0  0
    2.4351   -2.7392   -0.1660 C   0  0  0  0  0  0  0  0  0  0  0  0
    2.4536   -3.1556    0.8467 H   0  0  0  0  0  0  0  0  0  0  0  0
    2.3158   -3.5616   -0.8776 H   0  0  0  0  0  0  0  0  0  0  0  0
    3.3944   -2.2498   -0.3646 H   0  0  0  0  0  0  0  0  0  0  0  0
  1  2  1  0  0  0  0
  2  3  1  0  0  0  0
  2  4  1  0  0  0  0
  2  5  1  0  0  0  0
  5  6  2  0  0  0  0
  5  7  1  0  0  0  0
  7  8  1  0  0  0  0
  7  9  1  0  0  0  0
  9 10  1  0  0  0  0
  9 11  1  0  0  0  0
  9 19  1  0  0  0  0
 11 12  1  0  0  0  0
 11 13  1  0  0  0  0
 11 17  1  0  0  0  0
 13 14  1  0  0  0  0
 13 15  1  0  0  0  0
 13 16  1  0  0  0  0
 17 18  1  0  0  0  0
 19 20  2  0  0  0  0
 19 21  1  0  0  0  0
 21 22  1  0  0  0  0
 21 23  1  0  0  0  0
 23 24  1  0  0  0  0
 23 25  1  0  0  0  0
 23 26  1  0  0  0  0
M  END
$$$$

  -OEChem-01062216093D

 26 25  0     1  0  0  0  0  0999 V2000
   -3.2949   -2.8187    1.5207 H   0  0  0  0  0  0  0  0  0  0  0  0
   -3.1638   -1.8483    1.0334 C   0  0  0  0  0  0  0  0  0  0  0  0
   -3.6518   -1.0827    1.6416 H   0  0  0  0  0  0  0  0  0  0  0  0
   -3.6374   -1.8819    0.0495 H   0  0  0  0  0  0  0  0  0  0  0  0
   -1.6872   -1.5302    0.8908 C   0  0  0  0  0  0  0  0  0  0  0  0
   -0.8684   -2.3411    1.2849 O   0  0  0  0  0  0  0  0  0  0  0  0
   -1.3180   -0.3395    0.2897 N   0  0  0  0  0  0  0  0  0  0  0  0
   -2.0979    0.2839    0.1062 H   0  0  0  0  0  0  0  0  0  0  0  0
    0.0188    0.3052    0.3453 C   0  0  1  0  0  0  0  0  0  0  0  0
    0.1670    0.8241   -0.6058 H   0  0  0  0  0  0  0  0  0  0  0  0
    0.0130    1.3764    1.4639 C   0  0  1  0  0  0  0  0  0  0  0  0
    0.9936    1.8650    1.4955 H   0  0  0  0  0  0  0  0  0  0  0  0
   -1.0411    2.4593    1.2269 C   0  0  0  0  0  0  0  0  0  0  0  0
   -2.0513    2.0445    1.2847 H   0  0  0  0  0  0  0  0  0  0  0  0
   -0.9471    3.2387    1.9892 H   0  0  0  0  0  0  0  0  0  0  0  0
   -0.9026    2.9199    0.2445 H   0  0  0  0  0  0  0  0  0  0  0  0
   -0.2520    0.7697    2.7295 O   0  0  0  0  0  0  0  0  0  0  0  0
    0.4345    0.0944    2.9086 H   0  0  0  0  0  0  0  0  0  0  0  0
    1.2524   -0.6265    0.4840 C   0  0  0  0  0  0  0  0  0  0  0  0
    2.0761   -0.4679    1.3805 O   0  0  0  0  0  0  0  0  0  0  0  0
    1.4983   -1.5746   -0.4934 N   0  0  0  0  0  0  0  0  0  0  0  0
    0.6967   -1.8209   -1.0666 H   0  0  0  0  0  0  0  0  0  0  0  0
    2.5671   -2.5579   -0.3685 C   0  0  0  0  0  0  0  0  0  0  0  0
    2.4129   -3.1781    0.5209 H   0  0  0  0  0  0  0  0  0  0  0  0
    2.5850   -3.2091   -1.2475 H   0  0  0  0  0  0  0  0  0  0  0  0
    3.5397   -2.0612   -0.2889 H   0  0  0  0  0  0  0  0  0  0  0  0
  1  2  1  0  0  0  0
  2  3  1  0  0  0  0
  2  4  1  0  0  0  0
  2  5  1  0  0  0  0
  5  6  2  0  0  0  0
  5  7  1  0  0  0  0
  7  8  1  0  0  0  0
  7  9  1  0  0  0  0
  9 10  1  0  0  0  0
  9 11  1  0  0  0  0
  9 19  1  0  0  0  0
 11 12  1  0  0  0  0
 11 13  1  0  0  0  0
 11 17  1  0  0  0  0
 13 14  1  0  0  0  0
 13 15  1  0  0  0  0
 13 16  1  0  0  0  0
 17 18  1  0  0  0  0
 19 20  2  0  0  0  0
 19 21  1  0  0  0  0
 21 22  1  0  0  0  0
 21 23  1  0  0  0  0
 23 24  1  0  0  0  0
 23 25  1  0  0  0  0
 23 26  1  0  0  0  0
M  END
$$$$

  -OEChem-01062216093D

 26 25  0     1  0  0  0  0  0999 V2000
   -3.2813   -2.8033    1.5706 H   0  0  0  0  0  0  0  0  0  0  0  0
   -3.1546   -1.8444    1.0597 C   0  0  0  0  0  0  0  0  0  0  0  0
   -3.6263   -1.0633    1.6611 H   0  0  0  0  0  0  0  0  0  0  0  0
   -3.6478   -1.8961    0.0863 H   0  0  0  0  0  0  0  0  0  0  0  0
   -1.6792   -1.5385    0.8803 C   0  0  0  0  0  0  0  0  0  0  0  0
   -0.8579   -2.3665    1.2311 O   0  0  0  0  0  0  0  0  0  0  0  0
   -1.3147   -0.3477    0.2762 N   0  0  0  0  0  0  0  0  0  0  0  0
   -2.0965    0.2794    0.1156 H   0  0  0  0  0  0  0  0  0  0  0  0
    0.0191    0.3002    0.3427 C   0  0  1  0  0  0  0  0  0  0  0  0
    0.1742    0.8224   -0.6055 H   0  0  0  0  0  0  0  0  0  0  0  0
    0.0045    1.3693    1.4623 C   0  0  1  0  0  0  0  0  0  0  0  0
    0.9878    1.8521    1.5012 H   0  0  0  0  0  0  0  0  0  0  0  0
   -1.0447    2.4557    1.2203 C   0  0  0  0  0  0  0  0  0  0  0  0
   -2.0563    2.0432    1.2686 H   0  0  0  0  0  0  0  0  0  0  0  0
   -0.9554    3.2326    1.9859 H   0  0  0  0  0  0  0  0  0  0  0  0
   -0.8975    2.9191    0.2403 H   0  0  0  0  0  0  0  0  0  0  0  0
   -0.2676    0.7597    2.7247 O   0  0  0  0  0  0  0  0  0  0  0  0
    0.4063    0.0655    2.8880 H   0  0  0  0  0  0  0  0  0  0  0  0
    1.2502   -0.6313    0.4976 C   0  0  0  0  0  0  0  0  0  0  0  0
    1.9393   -0.6160    1.5142 O   0  0  0  0  0  0  0  0  0  0  0  0
    1.6865   -1.3579   -0.5962 N   0  0  0  0  0  0  0  0  0  0  0  0
    1.0118   -1.4792   -1.3452 H   0  0  0  0  0  0  0  0  0  0  0  0
    2.7890   -2.3079   -0.5098 C   0  0  0  0  0  0  0  0  0  0  0  0
    2.5624   -3.0904    0.2224 H   0  0  0  0  0  0  0  0  0  0  0  0
    2.9577   -2.7804   -1.4821 H   0  0  0  0  0  0  0  0  0  0  0  0
    3.7116   -1.8003   -0.2094 H   0  0  0  0  0  0  0  0  0  0  0  0
  1  2  1  0  0  0  0
  2  3  1  0  0  0  0
  2  4  1  0  0  0  0
  2  5  1  0  0  0  0
  5  6  2  0  0  0  0
  5  7  1  0  0  0  0
  7  8  1  0  0  0  0
  7  9  1  0  0  0  0
  9 10  1  0  0  0  0
  9 11  1  0  0  0  0
  9 19  1  0  0  0  0
 11 12  1  0  0  0  0
 11 13  1  0  0  0  0
 11 17  1  0  0  0  0
 13 14  1  0  0  0  0
 13 15  1  0  0  0  0
 13 16  1  0  0  0  0
 17 18  1  0  0  0  0
 19 20  2  0  0  0  0
 19 21  1  0  0  0  0
 21 22  1  0  0  0  0
 21 23  1  0  0  0  0
 23 24  1  0  0  0  0
 23 25  1  0  0  0  0
 23 26  1  0  0  0  0
M  END
$$$$

  -OEChem-01062216093D

 26 25  0     1  0  0  0  0  0999 V2000
   -3.2974   -2.7994    1.5789 H   0  0  0  0  0  0  0  0  0  0  0  0
   -3.1667   -1.8312    1.0870 C   0  0  0  0  0  0  0  0  0  0  0  0
   -3.6099   -1.0560    1.7171 H   0  0  0  0  0  0  0  0  0  0  0  0
   -3.6843   -1.8528    0.1252 H   0  0  0  0  0  0  0  0  0  0  0  0
   -1.6911   -1.5460    0.8786 C   0  0  0  0  0  0  0  0  0  0  0  0
   -0.8759   -2.3905    1.2019 O   0  0  0  0  0  0  0  0  0  0  0  0
   -1.3215   -0.3613    0.2664 N   0  0  0  0  0  0  0  0  0  0  0  0
   -2.1000    0.2728    0.1193 H   0  0  0  0  0  0  0  0  0  0  0  0
    0.0143    0.2811    0.3336 C   0  0  1  0  0  0  0  0  0  0  0  0
    0.1704    0.8020   -0.6150 H   0  0  0  0  0  0  0  0  0  0  0  0
    0.0016    1.3523    1.4507 C   0  0  1  0  0  0  0  0  0  0  0  0
    0.9888    1.8267    1.4914 H   0  0  0  0  0  0  0  0  0  0  0  0
   -1.0399    2.4450    1.2064 C   0  0  0  0  0  0  0  0  0  0  0  0
   -2.0540    2.0374    1.2462 H   0  0  0  0  0  0  0  0  0  0  0  0
   -0.9512    3.2178    1.9761 H   0  0  0  0  0  0  0  0  0  0  0  0
   -0.8834    2.9117    0.2295 H   0  0  0  0  0  0  0  0  0  0  0  0
   -0.2757    0.7448    2.7129 O   0  0  0  0  0  0  0  0  0  0  0  0
    0.3733    0.0210    2.8575 H   0  0  0  0  0  0  0  0  0  0  0  0
    1.2478   -0.6459    0.5014 C   0  0  0  0  0  0  0  0  0  0  0  0
    1.8079   -0.7666    1.5883 O   0  0  0  0  0  0  0  0  0  0  0  0
    1.8827   -1.1354   -0.6270 N   0  0  0  0  0  0  0  0  0  0  0  0
    1.3446   -1.1264   -1.4880 H   0  0  0  0  0  0  0  0  0  0  0  0
    3.0434   -2.0149   -0.5510 C   0  0  0  0  0  0  0  0  0  0  0  0
    2.7936   -2.9306   -0.0044 H   0  0  0  0  0  0  0  0  0  0  0  0
    3.3755   -2.2901   -1.5566 H   0  0  0  0  0  0  0  0  0  0  0  0
    3.8725   -1.5142   -0.0400 H   0  0  0  0  0  0  0  0  0  0  0  0
  1  2  1  0  0  0  0
  2  3  1  0  0  0  0
  2  4  1  0  0  0  0
  2  5  1  0  0  0  0
  5  6  2  0  0  0  0
  5  7  1  0  0  0  0
  7  8  1  0  0  0  0
  7  9  1  0  0  0  0
  9 10  1  0  0  0  0
  9 11  1  0  0  0  0
  9 19  1  0  0  0  0
 11 12  1  0  0  0  0
 11 13  1  0  0  0  0
 11 17  1  0  0  0  0
 13 14  1  0  0  0  0
 13 15  1  0  0  0  0
 13 16  1  0  0  0  0
 17 18  1  0  0  0  0
 19 20  2  0  0  0  0
 19 21  1  0  0  0  0
 21 22  1  0  0  0  0
 21 23  1  0  0  0  0
 23 24  1  0  0  0  0
 23 25  1  0  0  0  0
 23 26  1  0  0  0  0
M  END
$$$$

  -OEChem-01062216093D

 26 25  0     1  0  0  0  0  0999 V2000
   -3.3276   -2.7532    1.6460 H   0  0  0  0  0  0  0  0  0  0  0  0
   -3.1882   -1.8053    1.1183 C   0  0  0  0  0  0  0  0  0  0  0  0
   -3.5993   -1.0001    1.7321 H   0  0  0  0  0  0  0  0  0  0  0  0
   -3.7287   -1.8474    0.1698 H   0  0  0  0  0  0  0  0  0  0  0  0
   -1.7126   -1.5592    0.8661 C   0  0  0  0  0  0  0  0  0  0  0  0
   -0.9130   -2.4339    1.1430 O   0  0  0  0  0  0  0  0  0  0  0  0
   -1.3305   -0.3803    0.2513 N   0  0  0  0  0  0  0  0  0  0  0  0
   -2.1020    0.2662    0.1231 H   0  0  0  0  0  0  0  0  0  0  0  0
    0.0105    0.2508    0.3209 C   0  0  1  0  0  0  0  0  0  0  0  0
    0.1665    0.7720   -0.6274 H   0  0  0  0  0  0  0  0  0  0  0  0
    0.0033    1.3203    1.4391 C   0  0  1  0  0  0  0  0  0  0  0  0
    0.9955    1.7839    1.4837 H   0  0  0  0  0  0  0  0  0  0  0  0
   -1.0269    2.4237    1.1938 C   0  0  0  0  0  0  0  0  0  0  0  0
   -2.0452    2.0271    1.2364 H   0  0  0  0  0  0  0  0  0  0  0  0
   -0.9290    3.1981    1.9609 H   0  0  0  0  0  0  0  0  0  0  0  0
   -0.8672    2.8858    0.2152 H   0  0  0  0  0  0  0  0  0  0  0  0
   -0.2820    0.7127    2.6993 O   0  0  0  0  0  0  0  0  0  0  0  0
    0.3387   -0.0399    2.8276 H   0  0  0  0  0  0  0  0  0  0  0  0
    1.2481   -0.6698    0.4969 C   0  0  0  0  0  0  0  0  0  0  0  0
    1.6849   -0.9300    1.6156 O   0  0  0  0  0  0  0  0  0  0  0  0
    2.0713   -0.9084   -0.5910 N   0  0  0  0  0  0  0  0  0  0  0  0
    1.6737   -0.7477   -1.5113 H   0  0  0  0  0  0  0  0  0  0  0  0
    3.2955   -1.6954   -0.4950 C   0  0  0  0  0  0  0  0  0  0  0  0
    3.0732   -2.7051   -0.1338 H   0  0  0  0  0  0  0  0  0  0  0  0
    3.7722   -1.7751   -1.4766 H   0  0  0  0  0  0  0  0  0  0  0  0
    4.0034   -1.2222    0.1935 H   0  0  0  0  0  0  0  0  0  0  0  0
  1  2  1  0  0  0  0
  2  3  1  0  0  0  0
  2  4  1  0  0  0  0
  2  5  1  0  0  0  0
  5  6  2  0  0  0  0
  5  7  1  0  0  0  0
  7  8  1  0  0  0  0
  7  9  1  0  0  0  0
  9 10  1  0  0  0  0
  9 11  1  0  0  0  0
  9 19  1  0  0  0  0
 11 12  1  0  0  0  0
 11 13  1  0  0  0  0
 11 17  1  0  0  0  0
 13 14  1  0  0  0  0
 13 15  1  0  0  0  0
 13 16  1  0  0  0  0
 17 18  1  0  0  0  0
 19 20  2  0  0  0  0
 19 21  1  0  0  0  0
 21 22  1  0  0  0  0
 21 23  1  0  0  0  0
 23 24  1  0  0  0  0
 23 25  1  0  0  0  0
 23 26  1  0  0  0  0
M  END
$$$$

  -OEChem-01062216093D

 26 25  0     1  0  0  0  0  0999 V2000
   -3.3532   -2.7418    1.6462 H   0  0  0  0  0  0  0  0  0  0  0  0
   -3.1999   -1.7715    1.1651 C   0  0  0  0  0  0  0  0  0  0  0  0
   -3.5391   -0.9863    1.8453 H   0  0  0  0  0  0  0  0  0  0  0  0
   -3.7931   -1.7352    0.2484 H   0  0  0  0  0  0  0  0  0  0  0  0
   -1.7304   -1.5746    0.8436 C   0  0  0  0  0  0  0  0  0  0  0  0
   -0.9547   -2.4894    1.0467 O   0  0  0  0  0  0  0  0  0  0  0  0
   -1.3360   -0.4035    0.2226 N   0  0  0  0  0  0  0  0  0  0  0  0
   -2.0997    0.2572    0.1238 H   0  0  0  0  0  0  0  0  0  0  0  0
    0.0099    0.2178    0.2948 C   0  0  1  0  0  0  0  0  0  0  0  0
    0.1659    0.7362   -0.6549 H   0  0  0  0  0  0  0  0  0  0  0  0
    0.0061    1.2850    1.4145 C   0  0  1  0  0  0  0  0  0  0  0  0
    1.0017    1.7406    1.4645 H   0  0  0  0  0  0  0  0  0  0  0  0
   -1.0137    2.3980    1.1686 C   0  0  0  0  0  0  0  0  0  0  0  0
   -2.0355    2.0096    1.2029 H   0  0  0  0  0  0  0  0  0  0  0  0
   -0.9140    3.1674    1.9404 H   0  0  0  0  0  0  0  0  0  0  0  0
   -0.8444    2.8641    0.1935 H   0  0  0  0  0  0  0  0  0  0  0  0
   -0.2868    0.6741    2.6718 O   0  0  0  0  0  0  0  0  0  0  0  0
    0.3068   -0.1032    2.7860 H   0  0  0  0  0  0  0  0  0  0  0  0
    1.2538   -0.6919    0.4850 C   0  0  0  0  0  0  0  0  0  0  0  0
    1.5723   -1.0862    1.6041 O   0  0  0  0  0  0  0  0  0  0  0  0
    2.2424   -0.6858   -0.4858 N   0  0  0  0  0  0  0  0  0  0  0  0
    1.9754   -0.3782   -1.4157 H   0  0  0  0  0  0  0  0  0  0  0  0
    3.5136   -1.3838   -0.3274 C   0  0  0  0  0  0  0  0  0  0  0  0
    3.3447   -2.4516   -0.1515 H   0  0  0  0  0  0  0  0  0  0  0  0
    4.1210   -1.2734   -1.2307 H   0  0  0  0  0  0  0  0  0  0  0  0
    4.0754   -0.9716    0.5175 H   0  0  0  0  0  0  0  0  0  0  0  0
  1  2  1  0  0  0  0
  2  3  1  0  0  0  0
  2  4  1  0  0  0  0
  2  5  1  0  0  0  0
  5  6  2  0  0  0  0
  5  7  1  0  0  0  0
  7  8  1  0  0  0  0
  7  9  1  0  0  0  0
  9 10  1  0  0  0  0
  9 11  1  0  0  0  0
  9 19  1  0  0  0  0
 11 12  1  0  0  0  0
 11 13  1  0  0  0  0
 11 17  1  0  0  0  0
 13 14  1  0  0  0  0
 13 15  1  0  0  0  0
 13 16  1  0  0  0  0
 17 18  1  0  0  0  0
 19 20  2  0  0  0  0
 19 21  1  0  0  0  0
 21 22  1  0  0  0  0
 21 23  1  0  0  0  0
 23 24  1  0  0  0  0
 23 25  1  0  0  0  0
 23 26  1  0  0  0  0
M  END
$$$$

  -OEChem-01062216093D

 26 25  0     1  0  0  0  0  0999 V2000
   -3.3898   -2.7217    1.6459 H   0  0  0  0  0  0  0  0  0  0  0  0
   -3.2095   -1.7337    1.2128 C   0  0  0  0  0  0  0  0  0  0  0  0
   -3.4774   -0.9738    1.9510 H   0  0  0  0  0  0  0  0  0  0  0  0
   -3.8410   -1.6164    0.3291 H   0  0  0  0  0  0  0  0  0  0  0  0
   -1.7480   -1.5889    0.8328 C   0  0  0  0  0  0  0  0  0  0  0  0
   -1.0063   -2.5424    0.9730 O   0  0  0  0  0  0  0  0  0  0  0  0
   -1.3375   -0.4298    0.2008 N   0  0  0  0  0  0  0  0  0  0  0  0
   -2.0913    0.2446    0.1213 H   0  0  0  0  0  0  0  0  0  0  0  0
    0.0143    0.1812    0.2653 C   0  0  1  0  0  0  0  0  0  0  0  0
    0.1672    0.6949   -0.6874 H   0  0  0  0  0  0  0  0  0  0  0  0
    0.0196    1.2448    1.3878 C   0  0  1  0  0  0  0  0  0  0  0  0
    1.0171    1.6965    1.4355 H   0  0  0  0  0  0  0  0  0  0  0  0
   -0.9978    2.3620    1.1504 C   0  0  0  0  0  0  0  0  0  0  0  0
   -2.0210    1.9786    1.1973 H   0  0  0  0  0  0  0  0  0  0  0  0
   -0.8862    3.1328    1.9189 H   0  0  0  0  0  0  0  0  0  0  0  0
   -0.8380    2.8243    0.1720 H   0  0  0  0  0  0  0  0  0  0  0  0
   -0.2720    0.6298    2.6437 O   0  0  0  0  0  0  0  0  0  0  0  0
    0.2942   -0.1700    2.7429 H   0  0  0  0  0  0  0  0  0  0  0  0
    1.2669   -0.7141    0.4665 C   0  0  0  0  0  0  0  0  0  0  0  0
    1.4845   -1.2431    1.5529 O   0  0  0  0  0  0  0  0  0  0  0  0
    2.3776   -0.4809   -0.3295 N   0  0  0  0  0  0  0  0  0  0  0  0
    2.2257   -0.0072   -1.2145 H   0  0  0  0  0  0  0  0  0  0  0  0
    3.6796   -1.0939   -0.0871 C   0  0  0  0  0  0  0  0  0  0  0  0
    3.5921   -2.1855   -0.0699 H   0  0  0  0  0  0  0  0  0  0  0  0
    4.3815   -0.8159   -0.8791 H   0  0  0  0  0  0  0  0  0  0  0  0
    4.0903   -0.7577    0.8708 H   0  0  0  0  0  0  0  0  0  0  0  0
  1  2  1  0  0  0  0
  2  3  1  0  0  0  0
  2  4  1  0  0  0  0
  2  5  1  0  0  0  0
  5  6  2  0  0  0  0
  5  7  1  0  0  0  0
  7  8  1  0  0  0  0
  7  9  1  0  0  0  0
  9 10  1  0  0  0  0
  9 11  1  0  0  0  0
  9 19  1  0  0  0  0
 11 12  1  0  0  0  0
 11 13  1  0  0  0  0
 11 17  1  0  0  0  0
 13 14  1  0  0  0  0
 13 15  1  0  0  0  0
 13 16  1  0  0  0  0
 17 18  1  0  0  0  0
 19 20  2  0  0  0  0
 19 21  1  0  0  0  0
 21 22  1  0  0  0  0
 21 23  1  0  0  0  0
 23 24  1  0  0  0  0
 23 25  1  0  0  0  0
 23 26  1  0  0  0  0
M  END
$$$$

  -OEChem-01062216093D

 26 25  0     1  0  0  0  0  0999 V2000
   -3.2047   -3.0991    1.3184 H   0  0  0  0  0  0  0  0  0  0  0  0
   -3.0138   -2.2127    0.7065 C   0  0  0  0  0  0  0  0  0  0  0  0
   -3.8947   -1.5674    0.7360 H   0  0  0  0  0  0  0  0  0  0  0  0
   -2.8328   -2.5313   -0.3227 H   0  0  0  0  0  0  0  0  0  0  0  0
   -1.8036   -1.4662    1.2371 C   0  0  0  0  0  0  0  0  0  0  0  0
   -1.3350   -1.8086    2.3078 O   0  0  0  0  0  0  0  0  0  0  0  0
   -1.3985   -0.3140    0.5833 N   0  0  0  0  0  0  0  0  0  0  0  0
   -1.9681   -0.1036   -0.2277 H   0  0  0  0  0  0  0  0  0  0  0  0
   -0.0195    0.2428    0.5490 C   0  0  1  0  0  0  0  0  0  0  0  0
    0.0718    0.7000   -0.4395 H   0  0  0  0  0  0  0  0  0  0  0  0
    0.1745    1.3823    1.5798 C   0  0  1  0  0  0  0  0  0  0  0  0
    1.1959    1.7682    1.4927 H   0  0  0  0  0  0  0  0  0  0  0  0
   -0.7957    2.5365    1.3241 C   0  0  0  0  0  0  0  0  0  0  0  0
   -1.8300    2.2131    1.4774 H   0  0  0  0  0  0  0  0  0  0  0  0
   -0.5869    3.3638    2.0088 H   0  0  0  0  0  0  0  0  0  0  0  0
   -0.6922    2.9046    0.2993 H   0  0  0  0  0  0  0  0  0  0  0  0
   -0.0340    0.9344    2.9161 O   0  0  0  0  0  0  0  0  0  0  0  0
    0.0429    1.6585    3.5575 H   0  0  0  0  0  0  0  0  0  0  0  0
    1.2021   -0.7160    0.6320 C   0  0  0  0  0  0  0  0  0  0  0  0
    1.1076   -1.9224    0.8112 O   0  0  0  0  0  0  0  0  0  0  0  0
    2.3667   -0.3102   -0.0060 N   0  0  0  0  0  0  0  0  0  0  0  0
    2.4586    0.6755   -0.2278 H   0  0  0  0  0  0  0  0  0  0  0  0
    3.5273   -1.1748   -0.1980 C   0  0  0  0  0  0  0  0  0  0  0  0
    3.2774   -2.0124   -0.8576 H   0  0  0  0  0  0  0  0  0  0  0  0
    4.3474   -0.6107   -0.6521 H   0  0  0  0  0  0  0  0  0  0  0  0
    3.8719   -1.5731    0.7622 H   0  0  0  0  0  0  0  0  0  0  0  0
  1  2  1  0  0  0  0
  2  3  1  0  0  0  0
  2  4  1  0  0  0  0
  2  5  1  0  0  0  0
  5  6  2  0  0  0  0
  5  7  1  0  0  0  0
  7  8  1  0  0  0  0
  7  9  1  0  0  0  0
  9 10  1  0  0  0  0
  9 11  1  0  0  0  0
  9 19  1  0  0  0  0
 11 12  1  0  0  0  0
 11 13  1  0  0  0  0
 11 17  1  0  0  0  0
 13 14  1  0  0  0  0
 13 15  1  0  0  0  0
 13 16  1  0  0  0  0
 17 18  1  0  0  0  0
 19 20  2  0  0  0  0
 19 21  1  0  0  0  0
 21 22  1  0  0  0  0
 21 23  1  0  0  0  0
 23 24  1  0  0  0  0
 23 25  1  0  0  0  0
 23 26  1  0  0  0  0
M  END
$$$$

  -OEChem-01062216093D

 26 25  0     1  0  0  0  0  0999 V2000
   -3.1553   -3.1099    1.3191 H   0  0  0  0  0  0  0  0  0  0  0  0
   -3.0009   -2.2047    0.7248 C   0  0  0  0  0  0  0  0  0  0  0  0
   -3.8855   -1.5699    0.8117 H   0  0  0  0  0  0  0  0  0  0  0  0
   -2.8630   -2.4927   -0.3199 H   0  0  0  0  0  0  0  0  0  0  0  0
   -1.7760   -1.4594    1.2212 C   0  0  0  0  0  0  0  0  0  0  0  0
   -1.2489   -1.8265    2.2572 O   0  0  0  0  0  0  0  0  0  0  0  0
   -1.3916   -0.3011    0.5651 N   0  0  0  0  0  0  0  0  0  0  0  0
   -1.9641   -0.0936   -0.2446 H   0  0  0  0  0  0  0  0  0  0  0  0
   -0.0166    0.2639    0.5392 C   0  0  1  0  0  0  0  0  0  0  0  0
    0.0929    0.7235   -0.4465 H   0  0  0  0  0  0  0  0  0  0  0  0
    0.1560    1.3989    1.5809 C   0  0  1  0  0  0  0  0  0  0  0  0
    1.1715    1.8013    1.5071 H   0  0  0  0  0  0  0  0  0  0  0  0
   -0.8255    2.5438    1.3249 C   0  0  0  0  0  0  0  0  0  0  0  0
   -1.8577    2.2088    1.4669 H   0  0  0  0  0  0  0  0  0  0  0  0
   -0.6317    3.3687    2.0168 H   0  0  0  0  0  0  0  0  0  0  0  0
   -0.7171    2.9198    0.3034 H   0  0  0  0  0  0  0  0  0  0  0  0
   -0.0589    0.9384    2.9122 O   0  0  0  0  0  0  0  0  0  0  0  0
   -0.0157    1.6628    3.5565 H   0  0  0  0  0  0  0  0  0  0  0  0
    1.1864   -0.7163    0.6301 C   0  0  0  0  0  0  0  0  0  0  0  0
    1.0470   -1.9240    0.4750 O   0  0  0  0  0  0  0  0  0  0  0  0
    2.4436   -0.2303    0.2970 N   0  0  0  0  0  0  0  0  0  0  0  0
    2.5850    0.7718    0.3647 H   0  0  0  0  0  0  0  0  0  0  0  0
    3.6152   -1.0828    0.1209 C   0  0  0  0  0  0  0  0  0  0  0  0
    3.4820   -1.7448   -0.7411 H   0  0  0  0  0  0  0  0  0  0  0  0
    4.5061   -0.4709   -0.0488 H   0  0  0  0  0  0  0  0  0  0  0  0
    3.7813   -1.6951    1.0137 H   0  0  0  0  0  0  0  0  0  0  0  0
  1  2  1  0  0  0  0
  2  3  1  0  0  0  0
  2  4  1  0  0  0  0
  2  5  1  0  0  0  0
  5  6  2  0  0  0  0
  5  7  1  0  0  0  0
  7  8  1  0  0  0  0
  7  9  1  0  0  0  0
  9 10  1  0  0  0  0
  9 11  1  0  0  0  0
  9 19  1  0  0  0  0
 11 12  1  0  0  0  0
 11 13  1  0  0  0  0
 11 17  1  0  0  0  0
 13 14  1  0  0  0  0
 13 15  1  0  0  0  0
 13 16  1  0  0  0  0
 17 18  1  0  0  0  0
 19 20  2  0  0  0  0
 19 21  1  0  0  0  0
 21 22  1  0  0  0  0
 21 23  1  0  0  0  0
 23 24  1  0  0  0  0
 23 25  1  0  0  0  0
 23 26  1  0  0  0  0
M  END
$$$$

  -OEChem-01062216093D

 26 25  0     1  0  0  0  0  0999 V2000
   -3.1079   -3.1327    1.3029 H   0  0  0  0  0  0  0  0  0  0  0  0
   -2.9983   -2.1843    0.7693 C   0  0  0  0  0  0  0  0  0  0  0  0
   -3.8217   -1.5242    1.0514 H   0  0  0  0  0  0  0  0  0  0  0  0
   -3.0441   -2.3800   -0.3046 H   0  0  0  0  0  0  0  0  0  0  0  0
   -1.6709   -1.5382    1.1209 C   0  0  0  0  0  0  0  0  0  0  0  0
   -0.9571   -2.0815    1.9466 O   0  0  0  0  0  0  0  0  0  0  0  0
   -1.3408   -0.3361    0.5154 N   0  0  0  0  0  0  0  0  0  0  0  0
   -1.9793   -0.0452   -0.2160 H   0  0  0  0  0  0  0  0  0  0  0  0
    0.0071    0.2852    0.5147 C   0  0  1  0  0  0  0  0  0  0  0  0
    0.0151    0.9781   -0.3305 H   0  0  0  0  0  0  0  0  0  0  0  0
    0.2914    1.1491    1.7727 C   0  0  1  0  0  0  0  0  0  0  0  0
    1.2828    1.6033    1.6791 H   0  0  0  0  0  0  0  0  0  0  0  0
   -0.7332    2.2774    1.8980 C   0  0  0  0  0  0  0  0  0  0  0  0
   -1.7369    1.8723    2.0607 H   0  0  0  0  0  0  0  0  0  0  0  0
   -0.4806    2.9262    2.7417 H   0  0  0  0  0  0  0  0  0  0  0  0
   -0.7450    2.8857    0.9888 H   0  0  0  0  0  0  0  0  0  0  0  0
    0.2411    0.4006    2.9831 O   0  0  0  0  0  0  0  0  0  0  0  0
    0.3276    0.9710    3.7635 H   0  0  0  0  0  0  0  0  0  0  0  0
    1.1735   -0.6893    0.2033 C   0  0  0  0  0  0  0  0  0  0  0  0
    0.9592   -1.7162   -0.4337 O   0  0  0  0  0  0  0  0  0  0  0  0
    2.4774   -0.2163    0.1819 N   0  0  0  0  0  0  0  0  0  0  0  0
    2.6697    0.6049    0.7458 H   0  0  0  0  0  0  0  0  0  0  0  0
    3.6084   -1.0323   -0.2468 C   0  0  0  0  0  0  0  0  0  0  0  0
    3.4948   -1.3269   -1.2954 H   0  0  0  0  0  0  0  0  0  0  0  0
    4.5408   -0.4683   -0.1481 H   0  0  0  0  0  0  0  0  0  0  0  0
    3.6824   -1.9362    0.3672 H   0  0  0  0  0  0  0  0  0  0  0  0
  1  2  1  0  0  0  0
  2  3  1  0  0  0  0
  2  4  1  0  0  0  0
  2  5  1  0  0  0  0
  5  6  2  0  0  0  0
  5  7  1  0  0  0  0
  7  8  1  0  0  0  0
  7  9  1  0  0  0  0
  9 10  1  0  0  0  0
  9 11  1  0  0  0  0
  9 19  1  0  0  0  0
 11 12  1  0  0  0  0
 11 13  1  0  0  0  0
 11 17  1  0  0  0  0
 13 14  1  0  0  0  0
 13 15  1  0  0  0  0
 13 16  1  0  0  0  0
 17 18  1  0  0  0  0
 19 20  2  0  0  0  0
 19 21  1  0  0  0  0
 21 22  1  0  0  0  0
 21 23  1  0  0  0  0
 23 24  1  0  0  0  0
 23 25  1  0  0  0  0
 23 26  1  0  0  0  0
M  END
$$$$

  -OEChem-01062216093D

 26 25  0     1  0  0  0  0  0999 V2000
   -3.0612   -3.1390    1.3110 H   0  0  0  0  0  0  0  0  0  0  0  0
   -2.9683   -2.1886    0.7780 C   0  0  0  0  0  0  0  0  0  0  0  0
   -3.7898   -1.5346    1.0788 H   0  0  0  0  0  0  0  0  0  0  0  0
   -3.0353   -2.3811   -0.2954 H   0  0  0  0  0  0  0  0  0  0  0  0
   -1.6379   -1.5353    1.1041 C   0  0  0  0  0  0  0  0  0  0  0  0
   -0.8882   -2.0911    1.8892 O   0  0  0  0  0  0  0  0  0  0  0  0
   -1.3295   -0.3245    0.5060 N   0  0  0  0  0  0  0  0  0  0  0  0
   -1.9814   -0.0234   -0.2095 H   0  0  0  0  0  0  0  0  0  0  0  0
    0.0085    0.3152    0.5147 C   0  0  1  0  0  0  0  0  0  0  0  0
    0.0184    1.0098   -0.3292 H   0  0  0  0  0  0  0  0  0  0  0  0
    0.2775    1.1800    1.7754 C   0  0  1  0  0  0  0  0  0  0  0  0
    1.2609    1.6519    1.6840 H   0  0  0  0  0  0  0  0  0  0  0  0
   -0.7653    2.2916    1.8997 C   0  0  0  0  0  0  0  0  0  0  0  0
   -1.7627    1.8706    2.0608 H   0  0  0  0  0  0  0  0  0  0  0  0
   -0.5236    2.9446    2.7435 H   0  0  0  0  0  0  0  0  0  0  0  0
   -0.7856    2.9001    0.9907 H   0  0  0  0  0  0  0  0  0  0  0  0
    0.2330    0.4281    2.9846 O   0  0  0  0  0  0  0  0  0  0  0  0
    0.2804    1.0019    3.7665 H   0  0  0  0  0  0  0  0  0  0  0  0
    1.1680   -0.6652    0.1994 C   0  0  0  0  0  0  0  0  0  0  0  0
    0.9820   -1.5577   -0.6231 O   0  0  0  0  0  0  0  0  0  0  0  0
    2.4831   -0.3199    0.4695 N   0  0  0  0  0  0  0  0  0  0  0  0
    2.6164    0.3219    1.2447 H   0  0  0  0  0  0  0  0  0  0  0  0
    3.6089   -1.1642    0.0861 C   0  0  0  0  0  0  0  0  0  0  0  0
    3.6548   -1.2727   -1.0027 H   0  0  0  0  0  0  0  0  0  0  0  0
    4.5482   -0.7182    0.4264 H   0  0  0  0  0  0  0  0  0  0  0  0
    3.5128   -2.1582    0.5359 H   0  0  0  0  0  0  0  0  0  0  0  0
  1  2  1  0  0  0  0
  2  3  1  0  0  0  0
  2  4  1  0  0  0  0
  2  5  1  0  0  0  0
  5  6  2  0  0  0  0
  5  7  1  0  0  0  0
  7  8  1  0  0  0  0
  7  9  1  0  0  0  0
  9 10  1  0  0  0  0
  9 11  1  0  0  0  0
  9 19  1  0  0  0  0
 11 12  1  0  0  0  0
 11 13  1  0  0  0  0
 11 17  1  0  0  0  0
 13 14  1  0  0  0  0
 13 15  1  0  0  0  0
 13 16  1  0  0  0  0
 17 18  1  0  0  0  0
 19 20  2  0  0  0  0
 19 21  1  0  0  0  0
 21 22  1  0  0  0  0
 21 23  1  0  0  0  0
 23 24  1  0  0  0  0
 23 25  1  0  0  0  0
 23 26  1  0  0  0  0
M  END
$$$$

  -OEChem-01062216093D

 26 25  0     1  0  0  0  0  0999 V2000
   -3.0405   -3.1359    1.3179 H   0  0  0  0  0  0  0  0  0  0  0  0
   -2.9576   -2.1817    0.7898 C   0  0  0  0  0  0  0  0  0  0  0  0
   -3.7662   -1.5253    1.1198 H   0  0  0  0  0  0  0  0  0  0  0  0
   -3.0572   -2.3653   -0.2826 H   0  0  0  0  0  0  0  0  0  0  0  0
   -1.6145   -1.5384    1.0821 C   0  0  0  0  0  0  0  0  0  0  0  0
   -0.8388   -2.1104    1.8297 O   0  0  0  0  0  0  0  0  0  0  0  0
   -1.3168   -0.3228    0.4894 N   0  0  0  0  0  0  0  0  0  0  0  0
   -1.9858   -0.0029   -0.2019 H   0  0  0  0  0  0  0  0  0  0  0  0
    0.0120    0.3338    0.5069 C   0  0  1  0  0  0  0  0  0  0  0  0
    0.0217    1.0310   -0.3354 H   0  0  0  0  0  0  0  0  0  0  0  0
    0.2707    1.1968    1.7703 C   0  0  1  0  0  0  0  0  0  0  0  0
    1.2490    1.6806    1.6788 H   0  0  0  0  0  0  0  0  0  0  0  0
   -0.7848    2.2958    1.8988 C   0  0  0  0  0  0  0  0  0  0  0  0
   -1.7773    1.8630    2.0596 H   0  0  0  0  0  0  0  0  0  0  0  0
   -0.5500    2.9492    2.7443 H   0  0  0  0  0  0  0  0  0  0  0  0
   -0.8127    2.9065    0.9914 H   0  0  0  0  0  0  0  0  0  0  0  0
    0.2338    0.4377    2.9761 O   0  0  0  0  0  0  0  0  0  0  0  0
    0.2574    1.0111    3.7597 H   0  0  0  0  0  0  0  0  0  0  0  0
    1.1721   -0.6443    0.1949 C   0  0  0  0  0  0  0  0  0  0  0  0
    1.0570   -1.3985   -0.7670 O   0  0  0  0  0  0  0  0  0  0  0  0
    2.4361   -0.4583    0.7298 N   0  0  0  0  0  0  0  0  0  0  0  0
    2.4474    0.0050    1.6346 H   0  0  0  0  0  0  0  0  0  0  0  0
    3.5522   -1.3400    0.4094 C   0  0  0  0  0  0  0  0  0  0  0  0
    3.7710   -1.3090   -0.6632 H   0  0  0  0  0  0  0  0  0  0  0  0
    4.4489   -1.0255    0.9518 H   0  0  0  0  0  0  0  0  0  0  0  0
    3.3179   -2.3719    0.6923 H   0  0  0  0  0  0  0  0  0  0  0  0
  1  2  1  0  0  0  0
  2  3  1  0  0  0  0
  2  4  1  0  0  0  0
  2  5  1  0  0  0  0
  5  6  2  0  0  0  0
  5  7  1  0  0  0  0
  7  8  1  0  0  0  0
  7  9  1  0  0  0  0
  9 10  1  0  0  0  0
  9 11  1  0  0  0  0
  9 19  1  0  0  0  0
 11 12  1  0  0  0  0
 11 13  1  0  0  0  0
 11 17  1  0  0  0  0
 13 14  1  0  0  0  0
 13 15  1  0  0  0  0
 13 16  1  0  0  0  0
 17 18  1  0  0  0  0
 19 20  2  0  0  0  0
 19 21  1  0  0  0  0
 21 22  1  0  0  0  0
 21 23  1  0  0  0  0
 23 24  1  0  0  0  0
 23 25  1  0  0  0  0
 23 26  1  0  0  0  0
M  END
$$$$

  -OEChem-01062216093D

 26 25  0     1  0  0  0  0  0999 V2000
   -3.0404   -3.1217    1.3287 H   0  0  0  0  0  0  0  0  0  0  0  0
   -2.9588   -2.1664    0.8025 C   0  0  0  0  0  0  0  0  0  0  0  0
   -3.7478   -1.5001    1.1588 H   0  0  0  0  0  0  0  0  0  0  0  0
   -3.0925   -2.3428   -0.2675 H   0  0  0  0  0  0  0  0  0  0  0  0
   -1.5988   -1.5437    1.0585 C   0  0  0  0  0  0  0  0  0  0  0  0
   -0.8041   -2.1347    1.7708 O   0  0  0  0  0  0  0  0  0  0  0  0
   -1.3033   -0.3261    0.4700 N   0  0  0  0  0  0  0  0  0  0  0  0
   -1.9929    0.0230   -0.1862 H   0  0  0  0  0  0  0  0  0  0  0  0
    0.0187    0.3417    0.4958 C   0  0  1  0  0  0  0  0  0  0  0  0
    0.0283    1.0420   -0.3441 H   0  0  0  0  0  0  0  0  0  0  0  0
    0.2674    1.1989    1.7645 C   0  0  1  0  0  0  0  0  0  0  0  0
    1.2448    1.6859    1.6757 H   0  0  0  0  0  0  0  0  0  0  0  0
   -0.7947    2.2906    1.8967 C   0  0  0  0  0  0  0  0  0  0  0  0
   -1.7847    1.8508    2.0522 H   0  0  0  0  0  0  0  0  0  0  0  0
   -0.5656    2.9399    2.7469 H   0  0  0  0  0  0  0  0  0  0  0  0
   -0.8238    2.9068    0.9930 H   0  0  0  0  0  0  0  0  0  0  0  0
    0.2338    0.4315    2.9668 O   0  0  0  0  0  0  0  0  0  0  0  0
    0.2480    1.0038    3.7520 H   0  0  0  0  0  0  0  0  0  0  0  0
    1.1845   -0.6286    0.1905 C   0  0  0  0  0  0  0  0  0  0  0  0
    1.1726   -1.2382   -0.8745 O   0  0  0  0  0  0  0  0  0  0  0  0
    2.3417   -0.6286    0.9491 N   0  0  0  0  0  0  0  0  0  0  0  0
    2.2020   -0.3193    1.9094 H   0  0  0  0  0  0  0  0  0  0  0  0
    3.4361   -1.5555    0.6907 C   0  0  0  0  0  0  0  0  0  0  0  0
    3.8309   -1.4119   -0.3206 H   0  0  0  0  0  0  0  0  0  0  0  0
    4.2490   -1.3878    1.4035 H   0  0  0  0  0  0  0  0  0  0  0  0
    3.0915   -2.5902    0.7914 H   0  0  0  0  0  0  0  0  0  0  0  0
  1  2  1  0  0  0  0
  2  3  1  0  0  0  0
  2  4  1  0  0  0  0
  2  5  1  0  0  0  0
  5  6  2  0  0  0  0
  5  7  1  0  0  0  0
  7  8  1  0  0  0  0
  7  9  1  0  0  0  0
  9 10  1  0  0  0  0
  9 11  1  0  0  0  0
  9 19  1  0  0  0  0
 11 12  1  0  0  0  0
 11 13  1  0  0  0  0
 11 17  1  0  0  0  0
 13 14  1  0  0  0  0
 13 15  1  0  0  0  0
 13 16  1  0  0  0  0
 17 18  1  0  0  0  0
 19 20  2  0  0  0  0
 19 21  1  0  0  0  0
 21 22  1  0  0  0  0
 21 23  1  0  0  0  0
 23 24  1  0  0  0  0
 23 25  1  0  0  0  0
 23 26  1  0  0  0  0
M  END
$$$$

  -OEChem-01062216093D

 26 25  0     1  0  0  0  0  0999 V2000
   -3.0550   -3.1057    1.3366 H   0  0  0  0  0  0  0  0  0  0  0  0
   -2.9717   -2.1473    0.8161 C   0  0  0  0  0  0  0  0  0  0  0  0
   -3.7384   -1.4708    1.2007 H   0  0  0  0  0  0  0  0  0  0  0  0
   -3.1396   -2.3121   -0.2509 H   0  0  0  0  0  0  0  0  0  0  0  0
   -1.5944   -1.5503    1.0381 C   0  0  0  0  0  0  0  0  0  0  0  0
   -0.7890   -2.1617    1.7204 O   0  0  0  0  0  0  0  0  0  0  0  0
   -1.2932   -0.3332    0.4521 N   0  0  0  0  0  0  0  0  0  0  0  0
   -1.9993    0.0463   -0.1691 H   0  0  0  0  0  0  0  0  0  0  0  0
    0.0264    0.3377    0.4869 C   0  0  1  0  0  0  0  0  0  0  0  0
    0.0381    1.0415   -0.3504 H   0  0  0  0  0  0  0  0  0  0  0  0
    0.2593    1.1890    1.7627 C   0  0  1  0  0  0  0  0  0  0  0  0
    1.2405    1.6709    1.6848 H   0  0  0  0  0  0  0  0  0  0  0  0
   -0.7999    2.2843    1.8898 C   0  0  0  0  0  0  0  0  0  0  0  0
   -1.7948    1.8479    2.0223 H   0  0  0  0  0  0  0  0  0  0  0  0
   -0.5829    2.9222    2.7518 H   0  0  0  0  0  0  0  0  0  0  0  0
   -0.8092    2.9113    0.9932 H   0  0  0  0  0  0  0  0  0  0  0  0
    0.2173    0.4144    2.9623 O   0  0  0  0  0  0  0  0  0  0  0  0
    0.2563    0.9834    3.7494 H   0  0  0  0  0  0  0  0  0  0  0  0
    1.2023   -0.6218    0.1928 C   0  0  0  0  0  0  0  0  0  0  0  0
    1.3196   -1.0750   -0.9409 O   0  0  0  0  0  0  0  0  0  0  0  0
    2.2079   -0.8325    1.1179 N   0  0  0  0  0  0  0  0  0  0  0  0
    1.9175   -0.6512    2.0791 H   0  0  0  0  0  0  0  0  0  0  0  0
    3.2759   -1.7986    0.8996 C   0  0  0  0  0  0  0  0  0  0  0  0
    3.8370   -1.5530   -0.0081 H   0  0  0  0  0  0  0  0  0  0  0  0
    3.9702   -1.7899    1.7451 H   0  0  0  0  0  0  0  0  0  0  0  0
    2.8630   -2.8076    0.7974 H   0  0  0  0  0  0  0  0  0  0  0  0
  1  2  1  0  0  0  0
  2  3  1  0  0  0  0
  2  4  1  0  0  0  0
  2  5  1  0  0  0  0
  5  6  2  0  0  0  0
  5  7  1  0  0  0  0
  7  8  1  0  0  0  0
  7  9  1  0  0  0  0
  9 10  1  0  0  0  0
  9 11  1  0  0  0  0
  9 19  1  0  0  0  0
 11 12  1  0  0  0  0
 11 13  1  0  0  0  0
 11 17  1  0  0  0  0
 13 14  1  0  0  0  0
 13 15  1  0  0  0  0
 13 16  1  0  0  0  0
 17 18  1  0  0  0  0
 19 20  2  0  0  0  0
 19 21  1  0  0  0  0
 21 22  1  0  0  0  0
 21 23  1  0  0  0  0
 23 24  1  0  0  0  0
 23 25  1  0  0  0  0
 23 26  1  0  0  0  0
M  END
$$$$

  -OEChem-01062216093D

 26 25  0     1  0  0  0  0  0999 V2000
   -3.0875   -3.0773    1.3508 H   0  0  0  0  0  0  0  0  0  0  0  0
   -2.9910   -2.1223    0.8264 C   0  0  0  0  0  0  0  0  0  0  0  0
   -3.7345   -1.4270    1.2230 H   0  0  0  0  0  0  0  0  0  0  0  0
   -3.1813   -2.2850   -0.2373 H   0  0  0  0  0  0  0  0  0  0  0  0
   -1.5967   -1.5571    1.0226 C   0  0  0  0  0  0  0  0  0  0  0  0
   -0.7902   -2.1910    1.6825 O   0  0  0  0  0  0  0  0  0  0  0  0
   -1.2822   -0.3431    0.4380 N   0  0  0  0  0  0  0  0  0  0  0  0
   -2.0044    0.0727   -0.1401 H   0  0  0  0  0  0  0  0  0  0  0  0
    0.0371    0.3280    0.4816 C   0  0  1  0  0  0  0  0  0  0  0  0
    0.0516    1.0348   -0.3532 H   0  0  0  0  0  0  0  0  0  0  0  0
    0.2491    1.1741    1.7633 C   0  0  1  0  0  0  0  0  0  0  0  0
    1.2332    1.6519    1.6987 H   0  0  0  0  0  0  0  0  0  0  0  0
   -0.8105    2.2702    1.8802 C   0  0  0  0  0  0  0  0  0  0  0  0
   -1.8069    1.8344    2.0025 H   0  0  0  0  0  0  0  0  0  0  0  0
   -0.6016    2.9072    2.7446 H   0  0  0  0  0  0  0  0  0  0  0  0
   -0.8106    2.8978    0.9840 H   0  0  0  0  0  0  0  0  0  0  0  0
    0.1934    0.3953    2.9610 O   0  0  0  0  0  0  0  0  0  0  0  0
    0.2751    0.9599    3.7482 H   0  0  0  0  0  0  0  0  0  0  0  0
    1.2288   -0.6156    0.2036 C   0  0  0  0  0  0  0  0  0  0  0  0
    1.4940   -0.9031   -0.9586 O   0  0  0  0  0  0  0  0  0  0  0  0
    2.0541   -1.0503    1.2229 N   0  0  0  0  0  0  0  0  0  0  0  0
    1.6232   -0.9835    2.1468 H   0  0  0  0  0  0  0  0  0  0  0  0
    3.0815   -2.0618    1.0190 C   0  0  0  0  0  0  0  0  0  0  0  0
    3.7970   -1.7360    0.2569 H   0  0  0  0  0  0  0  0  0  0  0  0
    3.6277   -2.2361    1.9508 H   0  0  0  0  0  0  0  0  0  0  0  0
    2.6291   -3.0060    0.6981 H   0  0  0  0  0  0  0  0  0  0  0  0
  1  2  1  0  0  0  0
  2  3  1  0  0  0  0
  2  4  1  0  0  0  0
  2  5  1  0  0  0  0
  5  6  2  0  0  0  0
  5  7  1  0  0  0  0
  7  8  1  0  0  0  0
  7  9  1  0  0  0  0
  9 10  1  0  0  0  0
  9 11  1  0  0  0  0
  9 19  1  0  0  0  0
 11 12  1  0  0  0  0
 11 13  1  0  0  0  0
 11 17  1  0  0  0  0
 13 14  1  0  0  0  0
 13 15  1  0  0  0  0
 13 16  1  0  0  0  0
 17 18  1  0  0  0  0
 19 20  2  0  0  0  0
 19 21  1  0  0  0  0
 21 22  1  0  0  0  0
 21 23  1  0  0  0  0
 23 24  1  0  0  0  0
 23 25  1  0  0  0  0
 23 26  1  0  0  0  0
M  END
$$$$

  -OEChem-01062216093D

 26 25  0     1  0  0  0  0  0999 V2000
   -3.1714   -3.0297    1.3652 H   0  0  0  0  0  0  0  0  0  0  0  0
   -3.0447   -2.0829    0.8325 C   0  0  0  0  0  0  0  0  0  0  0  0
   -3.7642   -1.3605    1.2251 H   0  0  0  0  0  0  0  0  0  0  0  0
   -3.2436   -2.2481   -0.2291 H   0  0  0  0  0  0  0  0  0  0  0  0
   -1.6316   -1.5624    1.0201 C   0  0  0  0  0  0  0  0  0  0  0  0
   -0.8449   -2.2208    1.6793 O   0  0  0  0  0  0  0  0  0  0  0  0
   -1.2837   -0.3592    0.4318 N   0  0  0  0  0  0  0  0  0  0  0  0
   -2.0084    0.0883   -0.1190 H   0  0  0  0  0  0  0  0  0  0  0  0
    0.0423    0.3008    0.4806 C   0  0  1  0  0  0  0  0  0  0  0  0
    0.0623    1.0060   -0.3556 H   0  0  0  0  0  0  0  0  0  0  0  0
    0.2401    1.1473    1.7630 C   0  0  1  0  0  0  0  0  0  0  0  0
    1.2298    1.6154    1.7121 H   0  0  0  0  0  0  0  0  0  0  0  0
   -0.8112    2.2528    1.8664 C   0  0  0  0  0  0  0  0  0  0  0  0
   -1.8114    1.8259    1.9874 H   0  0  0  0  0  0  0  0  0  0  0  0
   -0.6011    2.8942    2.7274 H   0  0  0  0  0  0  0  0  0  0  0  0
   -0.8018    2.8740    0.9658 H   0  0  0  0  0  0  0  0  0  0  0  0
    0.1623    0.3662    2.9586 O   0  0  0  0  0  0  0  0  0  0  0  0
    0.2908    0.9206    3.7466 H   0  0  0  0  0  0  0  0  0  0  0  0
    1.2511   -0.6289    0.2274 C   0  0  0  0  0  0  0  0  0  0  0  0
    1.6863   -0.7307   -0.9144 O   0  0  0  0  0  0  0  0  0  0  0  0
    1.8858   -1.2892    1.2611 N   0  0  0  0  0  0  0  0  0  0  0  0
    1.3180   -1.3510    2.1095 H   0  0  0  0  0  0  0  0  0  0  0  0
    2.9033   -2.3071    1.0407 C   0  0  0  0  0  0  0  0  0  0  0  0
    3.7330   -1.9020    0.4520 H   0  0  0  0  0  0  0  0  0  0  0  0
    3.2998   -2.6548    1.9992 H   0  0  0  0  0  0  0  0  0  0  0  0
    2.4764   -3.1633    0.5082 H   0  0  0  0  0  0  0  0  0  0  0  0
  1  2  1  0  0  0  0
  2  3  1  0  0  0  0
  2  4  1  0  0  0  0
  2  5  1  0  0  0  0
  5  6  2  0  0  0  0
  5  7  1  0  0  0  0
  7  8  1  0  0  0  0
  7  9  1  0  0  0  0
  9 10  1  0  0  0  0
  9 11  1  0  0  0  0
  9 19  1  0  0  0  0
 11 12  1  0  0  0  0
 11 13  1  0  0  0  0
 11 17  1  0  0  0  0
 13 14  1  0  0  0  0
 13 15  1  0  0  0  0
 13 16  1  0  0  0  0
 17 18  1  0  0  0  0
 19 20  2  0  0  0  0
 19 21  1  0  0  0  0
 21 22  1  0  0  0  0
 21 23  1  0  0  0  0
 23 24  1  0  0  0  0
 23 25  1  0  0  0  0
 23 26  1  0  0  0  0
M  END
$$$$

  -OEChem-01062216093D

 26 25  0     1  0  0  0  0  0999 V2000
   -3.3025   -2.9754    1.3698 H   0  0  0  0  0  0  0  0  0  0  0  0
   -3.1362   -2.0353    0.8360 C   0  0  0  0  0  0  0  0  0  0  0  0
   -3.8333   -1.2865    1.2195 H   0  0  0  0  0  0  0  0  0  0  0  0
   -3.3310   -2.1966   -0.2269 H   0  0  0  0  0  0  0  0  0  0  0  0
   -1.7070   -1.5655    1.0363 C   0  0  0  0  0  0  0  0  0  0  0  0
   -0.9569   -2.2461    1.7150 O   0  0  0  0  0  0  0  0  0  0  0  0
   -1.3120   -0.3811    0.4395 N   0  0  0  0  0  0  0  0  0  0  0  0
   -2.0269    0.0889   -0.1056 H   0  0  0  0  0  0  0  0  0  0  0  0
    0.0279    0.2555    0.4810 C   0  0  1  0  0  0  0  0  0  0  0  0
    0.0511    0.9541   -0.3611 H   0  0  0  0  0  0  0  0  0  0  0  0
    0.2366    1.1082    1.7555 C   0  0  1  0  0  0  0  0  0  0  0  0
    1.2361    1.5549    1.7054 H   0  0  0  0  0  0  0  0  0  0  0  0
   -0.7908    2.2366    1.8502 C   0  0  0  0  0  0  0  0  0  0  0  0
   -1.8022    1.8325    1.9570 H   0  0  0  0  0  0  0  0  0  0  0  0
   -0.5770    2.8696    2.7164 H   0  0  0  0  0  0  0  0  0  0  0  0
   -0.7551    2.8607    0.9522 H   0  0  0  0  0  0  0  0  0  0  0  0
    0.1413    0.3332    2.9523 O   0  0  0  0  0  0  0  0  0  0  0  0
    0.3315    0.8763    3.7353 H   0  0  0  0  0  0  0  0  0  0  0  0
    1.2489   -0.6654    0.2488 C   0  0  0  0  0  0  0  0  0  0  0  0
    1.8604   -0.5683   -0.8094 O   0  0  0  0  0  0  0  0  0  0  0  0
    1.7069   -1.5409    1.2126 N   0  0  0  0  0  0  0  0  0  0  0  0
    1.0257   -1.7322    1.9530 H   0  0  0  0  0  0  0  0  0  0  0  0
    2.7620   -2.5149    0.9729 C   0  0  0  0  0  0  0  0  0  0  0  0
    3.6782   -2.0157    0.6407 H   0  0  0  0  0  0  0  0  0  0  0  0
    2.9836   -3.0622    1.8940 H   0  0  0  0  0  0  0  0  0  0  0  0
    2.4522   -3.2328    0.2066 H   0  0  0  0  0  0  0  0  0  0  0  0
  1  2  1  0  0  0  0
  2  3  1  0  0  0  0
  2  4  1  0  0  0  0
  2  5  1  0  0  0  0
  5  6  2  0  0  0  0
  5  7  1  0  0  0  0
  7  8  1  0  0  0  0
  7  9  1  0  0  0  0
  9 10  1  0  0  0  0
  9 11  1  0  0  0  0
  9 19  1  0  0  0  0
 11 12  1  0  0  0  0
 11 13  1  0  0  0  0
 11 17  1  0  0  0  0
 13 14  1  0  0  0  0
 13 15  1  0  0  0  0
 13 16  1  0  0  0  0
 17 18  1  0  0  0  0
 19 20  2  0  0  0  0
 19 21  1  0  0  0  0
 21 22  1  0  0  0  0
 21 23  1  0  0  0  0
 23 24  1  0  0  0  0
 23 25  1  0  0  0  0
 23 26  1  0  0  0  0
M  END
$$$$

  -OEChem-01062216093D

 26 25  0     1  0  0  0  0  0999 V2000
   -3.4555   -2.8876    1.3932 H   0  0  0  0  0  0  0  0  0  0  0  0
   -3.2411   -1.9640    0.8477 C   0  0  0  0  0  0  0  0  0  0  0  0
   -3.8963   -1.1748    1.2242 H   0  0  0  0  0  0  0  0  0  0  0  0
   -3.4474   -2.1268   -0.2129 H   0  0  0  0  0  0  0  0  0  0  0  0
   -1.7886   -1.5678    1.0382 C   0  0  0  0  0  0  0  0  0  0  0  0
   -1.0739   -2.2884    1.7127 O   0  0  0  0  0  0  0  0  0  0  0  0
   -1.3438   -0.4034    0.4366 N   0  0  0  0  0  0  0  0  0  0  0  0
   -2.0533    0.1011   -0.0844 H   0  0  0  0  0  0  0  0  0  0  0  0
    0.0103    0.2093    0.4675 C   0  0  1  0  0  0  0  0  0  0  0  0
    0.0343    0.9040   -0.3777 H   0  0  0  0  0  0  0  0  0  0  0  0
    0.2349    1.0596    1.7395 C   0  0  1  0  0  0  0  0  0  0  0  0
    1.2410    1.4913    1.6894 H   0  0  0  0  0  0  0  0  0  0  0  0
   -0.7744    2.2038    1.8390 C   0  0  0  0  0  0  0  0  0  0  0  0
   -1.7916    1.8159    1.9502 H   0  0  0  0  0  0  0  0  0  0  0  0
   -0.5468    2.8327    2.7048 H   0  0  0  0  0  0  0  0  0  0  0  0
   -0.7328    2.8277    0.9412 H   0  0  0  0  0  0  0  0  0  0  0  0
    0.1280    0.2793    2.9313 O   0  0  0  0  0  0  0  0  0  0  0  0
    0.3469    0.8081    3.7165 H   0  0  0  0  0  0  0  0  0  0  0  0
    1.2435   -0.7009    0.2497 C   0  0  0  0  0  0  0  0  0  0  0  0
    2.0044   -0.4303   -0.6729 O   0  0  0  0  0  0  0  0  0  0  0  0
    1.5516   -1.7673    1.0693 N   0  0  0  0  0  0  0  0  0  0  0  0
    0.8121   -2.0346    1.7262 H   0  0  0  0  0  0  0  0  0  0  0  0
    2.6483   -2.6936    0.8274 C   0  0  0  0  0  0  0  0  0  0  0  0
    3.5987   -2.1546    0.7581 H   0  0  0  0  0  0  0  0  0  0  0  0
    2.7199   -3.4122    1.6494 H   0  0  0  0  0  0  0  0  0  0  0  0
    2.4846   -3.2444   -0.1044 H   0  0  0  0  0  0  0  0  0  0  0  0
  1  2  1  0  0  0  0
  2  3  1  0  0  0  0
  2  4  1  0  0  0  0
  2  5  1  0  0  0  0
  5  6  2  0  0  0  0
  5  7  1  0  0  0  0
  7  8  1  0  0  0  0
  7  9  1  0  0  0  0
  9 10  1  0  0  0  0
  9 11  1  0  0  0  0
  9 19  1  0  0  0  0
 11 12  1  0  0  0  0
 11 13  1  0  0  0  0
 11 17  1  0  0  0  0
 13 14  1  0  0  0  0
 13 15  1  0  0  0  0
 13 16  1  0  0  0  0
 17 18  1  0  0  0  0
 19 20  2  0  0  0  0
 19 21  1  0  0  0  0
 21 22  1  0  0  0  0
 21 23  1  0  0  0  0
 23 24  1  0  0  0  0
 23 25  1  0  0  0  0
 23 26  1  0  0  0  0
M  END
$$$$

  -OEChem-01062216093D

 26 25  0     1  0  0  0  0  0999 V2000
   -3.5814   -2.8165    1.4119 H   0  0  0  0  0  0  0  0  0  0  0  0
   -3.3398   -1.8950    0.8744 C   0  0  0  0  0  0  0  0  0  0  0  0
   -3.9536   -1.0849    1.2752 H   0  0  0  0  0  0  0  0  0  0  0  0
   -3.5750   -2.0342   -0.1834 H   0  0  0  0  0  0  0  0  0  0  0  0
   -1.8682   -1.5618    1.0396 C   0  0  0  0  0  0  0  0  0  0  0  0
   -1.1767   -2.3146    1.7024 O   0  0  0  0  0  0  0  0  0  0  0  0
   -1.3891   -0.4131    0.4330 N   0  0  0  0  0  0  0  0  0  0  0  0
   -2.0953    0.1210   -0.0618 H   0  0  0  0  0  0  0  0  0  0  0  0
   -0.0197    0.1699    0.4379 C   0  0  1  0  0  0  0  0  0  0  0  0
    0.0003    0.8656   -0.4067 H   0  0  0  0  0  0  0  0  0  0  0  0
    0.2428    1.0079    1.7100 C   0  0  1  0  0  0  0  0  0  0  0  0
    1.2554    1.4230    1.6471 H   0  0  0  0  0  0  0  0  0  0  0  0
   -0.7447    2.1687    1.8356 C   0  0  0  0  0  0  0  0  0  0  0  0
   -1.7643    1.7976    1.9774 H   0  0  0  0  0  0  0  0  0  0  0  0
   -0.4819    2.7956    2.6928 H   0  0  0  0  0  0  0  0  0  0  0  0
   -0.7194    2.7905    0.9357 H   0  0  0  0  0  0  0  0  0  0  0  0
    0.1391    0.2175    2.8949 O   0  0  0  0  0  0  0  0  0  0  0  0
    0.3824    0.7330    3.6816 H   0  0  0  0  0  0  0  0  0  0  0  0
    1.2103   -0.7425    0.2047 C   0  0  0  0  0  0  0  0  0  0  0  0
    2.0881   -0.3331   -0.5473 O   0  0  0  0  0  0  0  0  0  0  0  0
    1.3908   -1.9685    0.8101 N   0  0  0  0  0  0  0  0  0  0  0  0
    0.6406   -2.2729    1.4372 H   0  0  0  0  0  0  0  0  0  0  0  0
    2.5528   -2.8241    0.6197 C   0  0  0  0  0  0  0  0  0  0  0  0
    3.4654   -2.3045    0.9290 H   0  0  0  0  0  0  0  0  0  0  0  0
    2.4510   -3.7327    1.2206 H   0  0  0  0  0  0  0  0  0  0  0  0
    2.6478   -3.1128   -0.4320 H   0  0  0  0  0  0  0  0  0  0  0  0
  1  2  1  0  0  0  0
  2  3  1  0  0  0  0
  2  4  1  0  0  0  0
  2  5  1  0  0  0  0
  5  6  2  0  0  0  0
  5  7  1  0  0  0  0
  7  8  1  0  0  0  0
  7  9  1  0  0  0  0
  9 10  1  0  0  0  0
  9 11  1  0  0  0  0
  9 19  1  0  0  0  0
 11 12  1  0  0  0  0
 11 13  1  0  0  0  0
 11 17  1  0  0  0  0
 13 14  1  0  0  0  0
 13 15  1  0  0  0  0
 13 16  1  0  0  0  0
 17 18  1  0  0  0  0
 19 20  2  0  0  0  0
 19 21  1  0  0  0  0
 21 22  1  0  0  0  0
 21 23  1  0  0  0  0
 23 24  1  0  0  0  0
 23 25  1  0  0  0  0
 23 26  1  0  0  0  0
M  END
$$$$

  -OEChem-01062216093D

 26 25  0     1  0  0  0  0  0999 V2000
   -3.6505   -2.7771    1.3190 H   0  0  0  0  0  0  0  0  0  0  0  0
   -3.3862   -1.8497    0.8026 C   0  0  0  0  0  0  0  0  0  0  0  0
   -3.9768   -1.0333    1.2253 H   0  0  0  0  0  0  0  0  0  0  0  0
   -3.6283   -1.9570   -0.2574 H   0  0  0  0  0  0  0  0  0  0  0  0
   -1.9060   -1.5592    0.9705 C   0  0  0  0  0  0  0  0  0  0  0  0
   -1.2313   -2.3497    1.6063 O   0  0  0  0  0  0  0  0  0  0  0  0
   -1.4006   -0.4056    0.3956 N   0  0  0  0  0  0  0  0  0  0  0  0
   -2.0973    0.1598   -0.0778 H   0  0  0  0  0  0  0  0  0  0  0  0
   -0.0238    0.1606    0.4313 C   0  0  1  0  0  0  0  0  0  0  0  0
    0.0156    0.8738   -0.3974 H   0  0  0  0  0  0  0  0  0  0  0  0
    0.2205    0.9663    1.7288 C   0  0  1  0  0  0  0  0  0  0  0  0
    1.2373    1.3747    1.6985 H   0  0  0  0  0  0  0  0  0  0  0  0
   -0.7587    2.1330    1.8653 C   0  0  0  0  0  0  0  0  0  0  0  0
   -1.7852    1.7690    1.9705 H   0  0  0  0  0  0  0  0  0  0  0  0
   -0.5110    2.7303    2.7477 H   0  0  0  0  0  0  0  0  0  0  0  0
   -0.7040    2.7816    0.9859 H   0  0  0  0  0  0  0  0  0  0  0  0
    0.0861    0.1464    2.8900 O   0  0  0  0  0  0  0  0  0  0  0  0
    0.3338    0.6344    3.6927 H   0  0  0  0  0  0  0  0  0  0  0  0
    1.2112   -0.7468    0.1987 C   0  0  0  0  0  0  0  0  0  0  0  0
    2.1912   -0.2365   -0.3337 O   0  0  0  0  0  0  0  0  0  0  0  0
    1.2754   -2.0866    0.5227 N   0  0  0  0  0  0  0  0  0  0  0  0
    0.4958   -2.4448    1.0804 H   0  0  0  0  0  0  0  0  0  0  0  0
    2.4712   -2.9054    0.3802 C   0  0  0  0  0  0  0  0  0  0  0  0
    3.2829   -2.5096    0.9991 H   0  0  0  0  0  0  0  0  0  0  0  0
    2.2620   -3.9318    0.6961 H   0  0  0  0  0  0  0  0  0  0  0  0
    2.7998   -2.9261   -0.6640 H   0  0  0  0  0  0  0  0  0  0  0  0
  1  2  1  0  0  0  0
  2  3  1  0  0  0  0
  2  4  1  0  0  0  0
  2  5  1  0  0  0  0
  5  6  2  0  0  0  0
  5  7  1  0  0  0  0
  7  8  1  0  0  0  0
  7  9  1  0  0  0  0
  9 10  1  0  0  0  0
  9 11  1  0  0  0  0
  9 19  1  0  0  0  0
 11 12  1  0  0  0  0
 11 13  1  0  0  0  0
 11 17  1  0  0  0  0
 13 14  1  0  0  0  0
 13 15  1  0  0  0  0
 13 16  1  0  0  0  0
 17 18  1  0  0  0  0
 19 20  2  0  0  0  0
 19 21  1  0  0  0  0
 21 22  1  0  0  0  0
 21 23  1  0  0  0  0
 23 24  1  0  0  0  0
 23 25  1  0  0  0  0
 23 26  1  0  0  0  0
M  END
$$$$

  -OEChem-01062216093D

 26 25  0     1  0  0  0  0  0999 V2000
   -3.6438   -2.7386    1.4856 H   0  0  0  0  0  0  0  0  0  0  0  0
   -3.3992   -1.8212    0.9425 C   0  0  0  0  0  0  0  0  0  0  0  0
   -3.9468   -0.9910    1.3946 H   0  0  0  0  0  0  0  0  0  0  0  0
   -3.7131   -1.9343   -0.0979 H   0  0  0  0  0  0  0  0  0  0  0  0
   -1.9065   -1.5556    1.0080 C   0  0  0  0  0  0  0  0  0  0  0  0
   -1.1981   -2.3704    1.5725 O   0  0  0  0  0  0  0  0  0  0  0  0
   -1.4217   -0.4063    0.4077 N   0  0  0  0  0  0  0  0  0  0  0  0
   -2.1414    0.1860    0.0071 H   0  0  0  0  0  0  0  0  0  0  0  0
   -0.0418    0.1535    0.3942 C   0  0  1  0  0  0  0  0  0  0  0  0
   -0.0238    0.8617   -0.4394 H   0  0  0  0  0  0  0  0  0  0  0  0
    0.2366    0.9636    1.6833 C   0  0  1  0  0  0  0  0  0  0  0  0
    1.2517    1.3730    1.6283 H   0  0  0  0  0  0  0  0  0  0  0  0
   -0.7371    2.1323    1.8418 C   0  0  0  0  0  0  0  0  0  0  0  0
   -1.7604    1.7708    1.9801 H   0  0  0  0  0  0  0  0  0  0  0  0
   -0.4626    2.7348    2.7128 H   0  0  0  0  0  0  0  0  0  0  0  0
   -0.7076    2.7751    0.9570 H   0  0  0  0  0  0  0  0  0  0  0  0
    0.1308    0.1447    2.8484 O   0  0  0  0  0  0  0  0  0  0  0  0
    0.4309    0.6225    3.6392 H   0  0  0  0  0  0  0  0  0  0  0  0
    1.1844   -0.7576    0.1262 C   0  0  0  0  0  0  0  0  0  0  0  0
    2.2195   -0.2152   -0.2475 O   0  0  0  0  0  0  0  0  0  0  0  0
    1.1612   -2.1373    0.1782 N   0  0  0  0  0  0  0  0  0  0  0  0
    0.3620   -2.5351    0.6764 H   0  0  0  0  0  0  0  0  0  0  0  0
    2.3449   -2.9681    0.0053 C   0  0  0  0  0  0  0  0  0  0  0  0
    3.0930   -2.7325    0.7692 H   0  0  0  0  0  0  0  0  0  0  0  0
    2.0770   -4.0252    0.0952 H   0  0  0  0  0  0  0  0  0  0  0  0
    2.7858   -2.8072   -0.9838 H   0  0  0  0  0  0  0  0  0  0  0  0
  1  2  1  0  0  0  0
  2  3  1  0  0  0  0
  2  4  1  0  0  0  0
  2  5  1  0  0  0  0
  5  6  2  0  0  0  0
  5  7  1  0  0  0  0
  7  8  1  0  0  0  0
  7  9  1  0  0  0  0
  9 10  1  0  0  0  0
  9 11  1  0  0  0  0
  9 19  1  0  0  0  0
 11 12  1  0  0  0  0
 11 13  1  0  0  0  0
 11 17  1  0  0  0  0
 13 14  1  0  0  0  0
 13 15  1  0  0  0  0
 13 16  1  0  0  0  0
 17 18  1  0  0  0  0
 19 20  2  0  0  0  0
 19 21  1  0  0  0  0
 21 22  1  0  0  0  0
 21 23  1  0  0  0  0
 23 24  1  0  0  0  0
 23 25  1  0  0  0  0
 23 26  1  0  0  0  0
M  END
$$$$

  -OEChem-01062216093D

 26 25  0     1  0  0  0  0  0999 V2000
   -3.5945   -2.7388    1.5123 H   0  0  0  0  0  0  0  0  0  0  0  0
   -3.3719   -1.7987    0.9994 C   0  0  0  0  0  0  0  0  0  0  0  0
   -3.8631   -0.9835    1.5359 H   0  0  0  0  0  0  0  0  0  0  0  0
   -3.7682   -1.8503   -0.0175 H   0  0  0  0  0  0  0  0  0  0  0  0
   -1.8732   -1.5646    0.9617 C   0  0  0  0  0  0  0  0  0  0  0  0
   -1.1385   -2.4220    1.4197 O   0  0  0  0  0  0  0  0  0  0  0  0
   -1.4059   -0.4037    0.3708 N   0  0  0  0  0  0  0  0  0  0  0  0
   -2.1384    0.2256    0.0602 H   0  0  0  0  0  0  0  0  0  0  0  0
   -0.0282    0.1607    0.3766 C   0  0  1  0  0  0  0  0  0  0  0  0
    0.0008    0.8751   -0.4511 H   0  0  0  0  0  0  0  0  0  0  0  0
    0.2174    0.9617    1.6799 C   0  0  1  0  0  0  0  0  0  0  0  0
    1.2291    1.3818    1.6520 H   0  0  0  0  0  0  0  0  0  0  0  0
   -0.7687    2.1209    1.8322 C   0  0  0  0  0  0  0  0  0  0  0  0
   -1.7911    1.7505    1.9516 H   0  0  0  0  0  0  0  0  0  0  0  0
   -0.5124    2.7176    2.7125 H   0  0  0  0  0  0  0  0  0  0  0  0
   -0.7305    2.7719    0.9537 H   0  0  0  0  0  0  0  0  0  0  0  0
    0.0936    0.1293    2.8340 O   0  0  0  0  0  0  0  0  0  0  0  0
    0.4088    0.5889    3.6299 H   0  0  0  0  0  0  0  0  0  0  0  0
    1.2003   -0.7497    0.1107 C   0  0  0  0  0  0  0  0  0  0  0  0
    2.2893   -0.2085   -0.0541 O   0  0  0  0  0  0  0  0  0  0  0  0
    1.1104   -2.1055   -0.1414 N   0  0  0  0  0  0  0  0  0  0  0  0
    0.2690   -2.5450    0.2374 H   0  0  0  0  0  0  0  0  0  0  0  0
    2.2777   -2.9519   -0.3515 C   0  0  0  0  0  0  0  0  0  0  0  0
    2.9238   -2.9393    0.5323 H   0  0  0  0  0  0  0  0  0  0  0  0
    1.9643   -3.9833   -0.5385 H   0  0  0  0  0  0  0  0  0  0  0  0
    2.8538   -2.6055   -1.2158 H   0  0  0  0  0  0  0  0  0  0  0  0
  1  2  1  0  0  0  0
  2  3  1  0  0  0  0
  2  4  1  0  0  0  0
  2  5  1  0  0  0  0
  5  6  2  0  0  0  0
  5  7  1  0  0  0  0
  7  8  1  0  0  0  0
  7  9  1  0  0  0  0
  9 10  1  0  0  0  0
  9 11  1  0  0  0  0
  9 19  1  0  0  0  0
 11 12  1  0  0  0  0
 11 13  1  0  0  0  0
 11 17  1  0  0  0  0
 13 14  1  0  0  0  0
 13 15  1  0  0  0  0
 13 16  1  0  0  0  0
 17 18  1  0  0  0  0
 19 20  2  0  0  0  0
 19 21  1  0  0  0  0
 21 22  1  0  0  0  0
 21 23  1  0  0  0  0
 23 24  1  0  0  0  0
 23 25  1  0  0  0  0
 23 26  1  0  0  0  0
M  END
$$$$

  -OEChem-01062216093D

 26 25  0     1  0  0  0  0  0999 V2000
   -3.5074   -2.7629    1.5273 H   0  0  0  0  0  0  0  0  0  0  0  0
   -3.3147   -1.7966    1.0521 C   0  0  0  0  0  0  0  0  0  0  0  0
   -3.7479   -1.0089    1.6733 H   0  0  0  0  0  0  0  0  0  0  0  0
   -3.7943   -1.7852    0.0705 H   0  0  0  0  0  0  0  0  0  0  0  0
   -1.8210   -1.5756    0.9043 C   0  0  0  0  0  0  0  0  0  0  0  0
   -1.0611   -2.4678    1.2379 O   0  0  0  0  0  0  0  0  0  0  0  0
   -1.3805   -0.3983    0.3257 N   0  0  0  0  0  0  0  0  0  0  0  0
   -2.1240    0.2594    0.1169 H   0  0  0  0  0  0  0  0  0  0  0  0
   -0.0078    0.1746    0.3651 C   0  0  1  0  0  0  0  0  0  0  0  0
    0.0388    0.8953   -0.4557 H   0  0  0  0  0  0  0  0  0  0  0  0
    0.1937    0.9671    1.6826 C   0  0  1  0  0  0  0  0  0  0  0  0
    1.2015    1.3968    1.6878 H   0  0  0  0  0  0  0  0  0  0  0  0
   -0.8038    2.1190    1.8183 C   0  0  0  0  0  0  0  0  0  0  0  0
   -1.8266    1.7423    1.9109 H   0  0  0  0  0  0  0  0  0  0  0  0
   -0.5728    2.7117    2.7084 H   0  0  0  0  0  0  0  0  0  0  0  0
   -0.7476    2.7756    0.9448 H   0  0  0  0  0  0  0  0  0  0  0  0
    0.0449    0.1211    2.8244 O   0  0  0  0  0  0  0  0  0  0  0  0
    0.3854    0.5557    3.6242 H   0  0  0  0  0  0  0  0  0  0  0  0
    1.2190   -0.7418    0.1098 C   0  0  0  0  0  0  0  0  0  0  0  0
    2.3427   -0.2518    0.1701 O   0  0  0  0  0  0  0  0  0  0  0  0
    1.0939   -2.0012   -0.4473 N   0  0  0  0  0  0  0  0  0  0  0  0
    0.2108   -2.4578   -0.2130 H   0  0  0  0  0  0  0  0  0  0  0  0
    2.2423   -2.8626   -0.6999 C   0  0  0  0  0  0  0  0  0  0  0  0
    2.7712   -3.0785    0.2342 H   0  0  0  0  0  0  0  0  0  0  0  0
    1.9125   -3.8084   -1.1399 H   0  0  0  0  0  0  0  0  0  0  0  0
    2.9374   -2.3833   -1.3971 H   0  0  0  0  0  0  0  0  0  0  0  0
  1  2  1  0  0  0  0
  2  3  1  0  0  0  0
  2  4  1  0  0  0  0
  2  5  1  0  0  0  0
  5  6  2  0  0  0  0
  5  7  1  0  0  0  0
  7  8  1  0  0  0  0
  7  9  1  0  0  0  0
  9 10  1  0  0  0  0
  9 11  1  0  0  0  0
  9 19  1  0  0  0  0
 11 12  1  0  0  0  0
 11 13  1  0  0  0  0
 11 17  1  0  0  0  0
 13 14  1  0  0  0  0
 13 15  1  0  0  0  0
 13 16  1  0  0  0  0
 17 18  1  0  0  0  0
 19 20  2  0  0  0  0
 19 21  1  0  0  0  0
 21 22  1  0  0  0  0
 21 23  1  0  0  0  0
 23 24  1  0  0  0  0
 23 25  1  0  0  0  0
 23 26  1  0  0  0  0
M  END
$$$$

  -OEChem-01062216093D

 26 25  0     1  0  0  0  0  0999 V2000
   -3.4031   -2.7825    1.5526 H   0  0  0  0  0  0  0  0  0  0  0  0
   -3.2397   -1.7997    1.1014 C   0  0  0  0  0  0  0  0  0  0  0  0
   -3.6144   -1.0345    1.7856 H   0  0  0  0  0  0  0  0  0  0  0  0
   -3.7959   -1.7460    0.1625 H   0  0  0  0  0  0  0  0  0  0  0  0
   -1.7602   -1.5826    0.8444 C   0  0  0  0  0  0  0  0  0  0  0  0
   -0.9835   -2.4974    1.0553 O   0  0  0  0  0  0  0  0  0  0  0  0
   -1.3506   -0.3899    0.2761 N   0  0  0  0  0  0  0  0  0  0  0  0
   -2.1021    0.2815    0.1599 H   0  0  0  0  0  0  0  0  0  0  0  0
    0.0144    0.1938    0.3540 C   0  0  1  0  0  0  0  0  0  0  0  0
    0.0822    0.9223   -0.4584 H   0  0  0  0  0  0  0  0  0  0  0  0
    0.1707    0.9756    1.6845 C   0  0  1  0  0  0  0  0  0  0  0  0
    1.1730    1.4163    1.7211 H   0  0  0  0  0  0  0  0  0  0  0  0
   -0.8433    2.1149    1.8065 C   0  0  0  0  0  0  0  0  0  0  0  0
   -1.8640    1.7260    1.8645 H   0  0  0  0  0  0  0  0  0  0  0  0
   -0.6451    2.6971    2.7113 H   0  0  0  0  0  0  0  0  0  0  0  0
   -0.7699    2.7848    0.9445 H   0  0  0  0  0  0  0  0  0  0  0  0
   -0.0019    0.1146    2.8121 O   0  0  0  0  0  0  0  0  0  0  0  0
    0.3828    0.5119    3.6115 H   0  0  0  0  0  0  0  0  0  0  0  0
    1.2341   -0.7356    0.1140 C   0  0  0  0  0  0  0  0  0  0  0  0
    2.3607   -0.3505    0.4125 O   0  0  0  0  0  0  0  0  0  0  0  0
    1.1243   -1.8310   -0.7240 N   0  0  0  0  0  0  0  0  0  0  0  0
    0.2010   -2.2622   -0.6915 H   0  0  0  0  0  0  0  0  0  0  0  0
    2.2537   -2.7083   -1.0062 C   0  0  0  0  0  0  0  0  0  0  0  0
    2.6301   -3.1567   -0.0808 H   0  0  0  0  0  0  0  0  0  0  0  0
    1.9454   -3.5117   -1.6818 H   0  0  0  0  0  0  0  0  0  0  0  0
    3.0657   -2.1504   -1.4841 H   0  0  0  0  0  0  0  0  0  0  0  0
  1  2  1  0  0  0  0
  2  3  1  0  0  0  0
  2  4  1  0  0  0  0
  2  5  1  0  0  0  0
  5  6  2  0  0  0  0
  5  7  1  0  0  0  0
  7  8  1  0  0  0  0
  7  9  1  0  0  0  0
  9 10  1  0  0  0  0
  9 11  1  0  0  0  0
  9 19  1  0  0  0  0
 11 12  1  0  0  0  0
 11 13  1  0  0  0  0
 11 17  1  0  0  0  0
 13 14  1  0  0  0  0
 13 15  1  0  0  0  0
 13 16  1  0  0  0  0
 17 18  1  0  0  0  0
 19 20  2  0  0  0  0
 19 21  1  0  0  0  0
 21 22  1  0  0  0  0
 21 23  1  0  0  0  0
 23 24  1  0  0  0  0
 23 25  1  0  0  0  0
 23 26  1  0  0  0  0
M  END
$$$$

  -OEChem-01062216093D

 26 25  0     1  0  0  0  0  0999 V2000
   -3.2247   -2.8750    1.5553 H   0  0  0  0  0  0  0  0  0  0  0  0
   -3.1278   -1.8948    1.0797 C   0  0  0  0  0  0  0  0  0  0  0  0
   -3.6237   -1.1508    1.7079 H   0  0  0  0  0  0  0  0  0  0  0  0
   -3.6191   -1.9273    0.1044 H   0  0  0  0  0  0  0  0  0  0  0  0
   -1.6629   -1.5365    0.9145 C   0  0  0  0  0  0  0  0  0  0  0  0
   -0.8102   -2.3213    1.2924 O   0  0  0  0  0  0  0  0  0  0  0  0
   -1.3272   -0.3372    0.3105 N   0  0  0  0  0  0  0  0  0  0  0  0
   -2.1152    0.2796    0.1390 H   0  0  0  0  0  0  0  0  0  0  0  0
    0.0104    0.3041    0.3657 C   0  0  1  0  0  0  0  0  0  0  0  0
    0.0536    1.0239   -0.4562 H   0  0  0  0  0  0  0  0  0  0  0  0
    0.1617    1.1065    1.6834 C   0  0  1  0  0  0  0  0  0  0  0  0
    1.1460    1.5881    1.6953 H   0  0  0  0  0  0  0  0  0  0  0  0
   -0.8957    2.2037    1.8115 C   0  0  0  0  0  0  0  0  0  0  0  0
   -1.8987    1.7746    1.8902 H   0  0  0  0  0  0  0  0  0  0  0  0
   -0.7049    2.7980    2.7103 H   0  0  0  0  0  0  0  0  0  0  0  0
   -0.8624    2.8702    0.9448 H   0  0  0  0  0  0  0  0  0  0  0  0
    0.0458    0.2530    2.8229 O   0  0  0  0  0  0  0  0  0  0  0  0
    0.6788   -0.4886    2.7458 H   0  0  0  0  0  0  0  0  0  0  0  0
    1.2246   -0.6305    0.1263 C   0  0  0  0  0  0  0  0  0  0  0  0
    2.2609   -0.5053    0.7695 O   0  0  0  0  0  0  0  0  0  0  0  0
    1.1891   -1.5432   -0.9131 N   0  0  0  0  0  0  0  0  0  0  0  0
    0.2618   -1.7595   -1.2664 H   0  0  0  0  0  0  0  0  0  0  0  0
    2.2455   -2.5246   -1.1271 C   0  0  0  0  0  0  0  0  0  0  0  0
    2.3347   -3.1847   -0.2580 H   0  0  0  0  0  0  0  0  0  0  0  0
    2.0202   -3.1358   -2.0062 H   0  0  0  0  0  0  0  0  0  0  0  0
    3.2066   -2.0264   -1.2923 H   0  0  0  0  0  0  0  0  0  0  0  0
  1  2  1  0  0  0  0
  2  3  1  0  0  0  0
  2  4  1  0  0  0  0
  2  5  1  0  0  0  0
  5  6  2  0  0  0  0
  5  7  1  0  0  0  0
  7  8  1  0  0  0  0
  7  9  1  0  0  0  0
  9 10  1  0  0  0  0
  9 11  1  0  0  0  0
  9 19  1  0  0  0  0
 11 12  1  0  0  0  0
 11 13  1  0  0  0  0
 11 17  1  0  0  0  0
 13 14  1  0  0  0  0
 13 15  1  0  0  0  0
 13 16  1  0  0  0  0
 17 18  1  0  0  0  0
 19 20  2  0  0  0  0
 19 21  1  0  0  0  0
 21 22  1  0  0  0  0
 21 23  1  0  0  0  0
 23 24  1  0  0  0  0
 23 25  1  0  0  0  0
 23 26  1  0  0  0  0
M  END
$$$$

  -OEChem-01062216093D

 26 25  0     1  0  0  0  0  0999 V2000
   -3.1952   -2.8707    1.5886 H   0  0  0  0  0  0  0  0  0  0  0  0
   -3.1062   -1.9004    1.0916 C   0  0  0  0  0  0  0  0  0  0  0  0
   -3.5985   -1.1452    1.7091 H   0  0  0  0  0  0  0  0  0  0  0  0
   -3.6065   -1.9546    0.1220 H   0  0  0  0  0  0  0  0  0  0  0  0
   -1.6437   -1.5424    0.9054 C   0  0  0  0  0  0  0  0  0  0  0  0
   -0.7876   -2.3307    1.2674 O   0  0  0  0  0  0  0  0  0  0  0  0
   -1.3161   -0.3420    0.2983 N   0  0  0  0  0  0  0  0  0  0  0  0
   -2.1084    0.2728    0.1406 H   0  0  0  0  0  0  0  0  0  0  0  0
    0.0154    0.3090    0.3638 C   0  0  1  0  0  0  0  0  0  0  0  0
    0.0639    1.0307   -0.4560 H   0  0  0  0  0  0  0  0  0  0  0  0
    0.1561    1.1090    1.6836 C   0  0  1  0  0  0  0  0  0  0  0  0
    1.1403    1.5908    1.7001 H   0  0  0  0  0  0  0  0  0  0  0  0
   -0.9063    2.2013    1.8121 C   0  0  0  0  0  0  0  0  0  0  0  0
   -1.9071    1.7664    1.8847 H   0  0  0  0  0  0  0  0  0  0  0  0
   -0.7224    2.7918    2.7149 H   0  0  0  0  0  0  0  0  0  0  0  0
   -0.8736    2.8724    0.9489 H   0  0  0  0  0  0  0  0  0  0  0  0
    0.0408    0.2492    2.8176 O   0  0  0  0  0  0  0  0  0  0  0  0
    0.6759   -0.4915    2.7275 H   0  0  0  0  0  0  0  0  0  0  0  0
    1.2278   -0.6298    0.1383 C   0  0  0  0  0  0  0  0  0  0  0  0
    2.1597   -0.6765    0.9348 O   0  0  0  0  0  0  0  0  0  0  0  0
    1.3336   -1.3153   -1.0590 N   0  0  0  0  0  0  0  0  0  0  0  0
    0.4822   -1.3836   -1.6080 H   0  0  0  0  0  0  0  0  0  0  0  0
    2.3972   -2.2781   -1.3176 C   0  0  0  0  0  0  0  0  0  0  0  0
    2.3623   -3.0921   -0.5857 H   0  0  0  0  0  0  0  0  0  0  0  0
    2.2842   -2.7057   -2.3184 H   0  0  0  0  0  0  0  0  0  0  0  0
    3.3773   -1.7931   -1.2594 H   0  0  0  0  0  0  0  0  0  0  0  0
  1  2  1  0  0  0  0
  2  3  1  0  0  0  0
  2  4  1  0  0  0  0
  2  5  1  0  0  0  0
  5  6  2  0  0  0  0
  5  7  1  0  0  0  0
  7  8  1  0  0  0  0
  7  9  1  0  0  0  0
  9 10  1  0  0  0  0
  9 11  1  0  0  0  0
  9 19  1  0  0  0  0
 11 12  1  0  0  0  0
 11 13  1  0  0  0  0
 11 17  1  0  0  0  0
 13 14  1  0  0  0  0
 13 15  1  0  0  0  0
 13 16  1  0  0  0  0
 17 18  1  0  0  0  0
 19 20  2  0  0  0  0
 19 21  1  0  0  0  0
 21 22  1  0  0  0  0
 21 23  1  0  0  0  0
 23 24  1  0  0  0  0
 23 25  1  0  0  0  0
 23 26  1  0  0  0  0
M  END
$$$$

  -OEChem-01062216093D

 26 25  0     1  0  0  0  0  0999 V2000
   -3.2111   -2.8540    1.6241 H   0  0  0  0  0  0  0  0  0  0  0  0
   -3.1166   -1.8947    1.1071 C   0  0  0  0  0  0  0  0  0  0  0  0
   -3.6031   -1.1239    1.7100 H   0  0  0  0  0  0  0  0  0  0  0  0
   -3.6187   -1.9652    0.1393 H   0  0  0  0  0  0  0  0  0  0  0  0
   -1.6521   -1.5499    0.9112 C   0  0  0  0  0  0  0  0  0  0  0  0
   -0.8012   -2.3458    1.2671 O   0  0  0  0  0  0  0  0  0  0  0  0
   -1.3200   -0.3546    0.2975 N   0  0  0  0  0  0  0  0  0  0  0  0
   -2.1109    0.2615    0.1396 H   0  0  0  0  0  0  0  0  0  0  0  0
    0.0116    0.2949    0.3607 C   0  0  1  0  0  0  0  0  0  0  0  0
    0.0597    1.0165   -0.4594 H   0  0  0  0  0  0  0  0  0  0  0  0
    0.1532    1.0972    1.6782 C   0  0  1  0  0  0  0  0  0  0  0  0
    1.1404    1.5731    1.6923 H   0  0  0  0  0  0  0  0  0  0  0  0
   -0.9048    2.1940    1.8046 C   0  0  0  0  0  0  0  0  0  0  0  0
   -1.9077    1.7637    1.8805 H   0  0  0  0  0  0  0  0  0  0  0  0
   -0.7167    2.7867    2.7050 H   0  0  0  0  0  0  0  0  0  0  0  0
   -0.8705    2.8613    0.9386 H   0  0  0  0  0  0  0  0  0  0  0  0
    0.0371    0.2390    2.8130 O   0  0  0  0  0  0  0  0  0  0  0  0
    0.6540   -0.5169    2.7053 H   0  0  0  0  0  0  0  0  0  0  0  0
    1.2275   -0.6422    0.1447 C   0  0  0  0  0  0  0  0  0  0  0  0
    2.0480   -0.8440    1.0348 O   0  0  0  0  0  0  0  0  0  0  0  0
    1.5115   -1.0875   -1.1346 N   0  0  0  0  0  0  0  0  0  0  0  0
    0.7630   -1.0112   -1.8163 H   0  0  0  0  0  0  0  0  0  0  0  0
    2.6222   -1.9861   -1.4248 C   0  0  0  0  0  0  0  0  0  0  0  0
    2.5141   -2.9204   -0.8637 H   0  0  0  0  0  0  0  0  0  0  0  0
    2.6472   -2.2232   -2.4925 H   0  0  0  0  0  0  0  0  0  0  0  0
    3.5752   -1.5197   -1.1535 H   0  0  0  0  0  0  0  0  0  0  0  0
  1  2  1  0  0  0  0
  2  3  1  0  0  0  0
  2  4  1  0  0  0  0
  2  5  1  0  0  0  0
  5  6  2  0  0  0  0
  5  7  1  0  0  0  0
  7  8  1  0  0  0  0
  7  9  1  0  0  0  0
  9 10  1  0  0  0  0
  9 11  1  0  0  0  0
  9 19  1  0  0  0  0
 11 12  1  0  0  0  0
 11 13  1  0  0  0  0
 11 17  1  0  0  0  0
 13 14  1  0  0  0  0
 13 15  1  0  0  0  0
 13 16  1  0  0  0  0
 17 18  1  0  0  0  0
 19 20  2  0  0  0  0
 19 21  1  0  0  0  0
 21 22  1  0  0  0  0
 21 23  1  0  0  0  0
 23 24  1  0  0  0  0
 23 25  1  0  0  0  0
 23 26  1  0  0  0  0
M  END
$$$$

  -OEChem-01062216093D

 26 25  0     1  0  0  0  0  0999 V2000
   -3.2394   -2.8618    1.6202 H   0  0  0  0  0  0  0  0  0  0  0  0
   -3.1373   -1.8934    1.1218 C   0  0  0  0  0  0  0  0  0  0  0  0
   -3.6139   -1.1297    1.7412 H   0  0  0  0  0  0  0  0  0  0  0  0
   -3.6436   -1.9405    0.1549 H   0  0  0  0  0  0  0  0  0  0  0  0
   -1.6700   -1.5593    0.9275 C   0  0  0  0  0  0  0  0  0  0  0  0
   -0.8272   -2.3584    1.2927 O   0  0  0  0  0  0  0  0  0  0  0  0
   -1.3290   -0.3722    0.3030 N   0  0  0  0  0  0  0  0  0  0  0  0
   -2.1177    0.2429    0.1322 H   0  0  0  0  0  0  0  0  0  0  0  0
    0.0048    0.2744    0.3526 C   0  0  1  0  0  0  0  0  0  0  0  0
    0.0447    0.9932   -0.4704 H   0  0  0  0  0  0  0  0  0  0  0  0
    0.1567    1.0840    1.6642 C   0  0  1  0  0  0  0  0  0  0  0  0
    1.1468    1.5539    1.6687 H   0  0  0  0  0  0  0  0  0  0  0  0
   -0.8952    2.1863    1.7921 C   0  0  0  0  0  0  0  0  0  0  0  0
   -1.8995    1.7604    1.8704 H   0  0  0  0  0  0  0  0  0  0  0  0
   -0.7024    2.7786    2.6918 H   0  0  0  0  0  0  0  0  0  0  0  0
   -0.8598    2.8530    0.9257 H   0  0  0  0  0  0  0  0  0  0  0  0
    0.0458    0.2326    2.8045 O   0  0  0  0  0  0  0  0  0  0  0  0
    0.6328   -0.5457    2.6766 H   0  0  0  0  0  0  0  0  0  0  0  0
    1.2273   -0.6570    0.1422 C   0  0  0  0  0  0  0  0  0  0  0  0
    1.9360   -1.0041    1.0823 O   0  0  0  0  0  0  0  0  0  0  0  0
    1.7011   -0.8627   -1.1425 N   0  0  0  0  0  0  0  0  0  0  0  0
    1.0772   -0.6246   -1.9070 H   0  0  0  0  0  0  0  0  0  0  0  0
    2.8721   -1.6823   -1.4316 C   0  0  0  0  0  0  0  0  0  0  0  0
    2.7244   -2.7039   -1.0656 H   0  0  0  0  0  0  0  0  0  0  0  0
    3.0477   -1.7229   -2.5107 H   0  0  0  0  0  0  0  0  0  0  0  0
    3.7631   -1.2619   -0.9536 H   0  0  0  0  0  0  0  0  0  0  0  0
  1  2  1  0  0  0  0
  2  3  1  0  0  0  0
  2  4  1  0  0  0  0
  2  5  1  0  0  0  0
  5  6  2  0  0  0  0
  5  7  1  0  0  0  0
  7  8  1  0  0  0  0
  7  9  1  0  0  0  0
  9 10  1  0  0  0  0
  9 11  1  0  0  0  0
  9 19  1  0  0  0  0
 11 12  1  0  0  0  0
 11 13  1  0  0  0  0
 11 17  1  0  0  0  0
 13 14  1  0  0  0  0
 13 15  1  0  0  0  0
 13 16  1  0  0  0  0
 17 18  1  0  0  0  0
 19 20  2  0  0  0  0
 19 21  1  0  0  0  0
 21 22  1  0  0  0  0
 21 23  1  0  0  0  0
 23 24  1  0  0  0  0
 23 25  1  0  0  0  0
 23 26  1  0  0  0  0
M  END
$$$$

  -OEChem-01062216093D

 26 25  0     1  0  0  0  0  0999 V2000
   -3.2910   -2.8444    1.6459 H   0  0  0  0  0  0  0  0  0  0  0  0
   -3.1724   -1.8841    1.1356 C   0  0  0  0  0  0  0  0  0  0  0  0
   -3.6445   -1.1063    1.7408 H   0  0  0  0  0  0  0  0  0  0  0  0
   -3.6713   -1.9379    0.1651 H   0  0  0  0  0  0  0  0  0  0  0  0
   -1.6993   -1.5710    0.9486 C   0  0  0  0  0  0  0  0  0  0  0  0
   -0.8717   -2.3760    1.3321 O   0  0  0  0  0  0  0  0  0  0  0  0
   -1.3412   -0.3958    0.3116 N   0  0  0  0  0  0  0  0  0  0  0  0
   -2.1241    0.2202    0.1195 H   0  0  0  0  0  0  0  0  0  0  0  0
   -0.0018    0.2413    0.3408 C   0  0  1  0  0  0  0  0  0  0  0  0
    0.0261    0.9548   -0.4868 H   0  0  0  0  0  0  0  0  0  0  0  0
    0.1693    1.0578    1.6452 C   0  0  1  0  0  0  0  0  0  0  0  0
    1.1648    1.5161    1.6363 H   0  0  0  0  0  0  0  0  0  0  0  0
   -0.8686    2.1725    1.7781 C   0  0  0  0  0  0  0  0  0  0  0  0
   -1.8779    1.7594    1.8615 H   0  0  0  0  0  0  0  0  0  0  0  0
   -0.6642    2.7627    2.6765 H   0  0  0  0  0  0  0  0  0  0  0  0
   -0.8289    2.8382    0.9111 H   0  0  0  0  0  0  0  0  0  0  0  0
    0.0642    0.2131    2.7909 O   0  0  0  0  0  0  0  0  0  0  0  0
    0.6061   -0.5947    2.6407 H   0  0  0  0  0  0  0  0  0  0  0  0
    1.2301   -0.6797    0.1332 C   0  0  0  0  0  0  0  0  0  0  0  0
    1.8303   -1.1689    1.0852 O   0  0  0  0  0  0  0  0  0  0  0  0
    1.8864   -0.6499   -1.0866 N   0  0  0  0  0  0  0  0  0  0  0  0
    1.3846   -0.2561   -1.8762 H   0  0  0  0  0  0  0  0  0  0  0  0
    3.1292   -1.3702   -1.3411 C   0  0  0  0  0  0  0  0  0  0  0  0
    2.9892   -2.4442   -1.1786 H   0  0  0  0  0  0  0  0  0  0  0  0
    3.4513   -1.2153   -2.3753 H   0  0  0  0  0  0  0  0  0  0  0  0
    3.9231   -1.0133   -0.6765 H   0  0  0  0  0  0  0  0  0  0  0  0
  1  2  1  0  0  0  0
  2  3  1  0  0  0  0
  2  4  1  0  0  0  0
  2  5  1  0  0  0  0
  5  6  2  0  0  0  0
  5  7  1  0  0  0  0
  7  8  1  0  0  0  0
  7  9  1  0  0  0  0
  9 10  1  0  0  0  0
  9 11  1  0  0  0  0
  9 19  1  0  0  0  0
 11 12  1  0  0  0  0
 11 13  1  0  0  0  0
 11 17  1  0  0  0  0
 13 14  1  0  0  0  0
 13 15  1  0  0  0  0
 13 16  1  0  0  0  0
 17 18  1  0  0  0  0
 19 20  2  0  0  0  0
 19 21  1  0  0  0  0
 21 22  1  0  0  0  0
 21 23  1  0  0  0  0
 23 24  1  0  0  0  0
 23 25  1  0  0  0  0
 23 26  1  0  0  0  0
M  END
$$$$

  -OEChem-01062216093D

 26 25  0     1  0  0  0  0  0999 V2000
   -3.3360   -2.8806    1.5818 H   0  0  0  0  0  0  0  0  0  0  0  0
   -3.2004   -1.8975    1.1219 C   0  0  0  0  0  0  0  0  0  0  0  0
   -3.6938   -1.1478    1.7452 H   0  0  0  0  0  0  0  0  0  0  0  0
   -3.6647   -1.9063    0.1331 H   0  0  0  0  0  0  0  0  0  0  0  0
   -1.7221   -1.5768    1.0026 C   0  0  0  0  0  0  0  0  0  0  0  0
   -0.9152   -2.3530    1.4761 O   0  0  0  0  0  0  0  0  0  0  0  0
   -1.3451   -0.4212    0.3410 N   0  0  0  0  0  0  0  0  0  0  0  0
   -2.1239    0.1716    0.0739 H   0  0  0  0  0  0  0  0  0  0  0  0
   -0.0036    0.2148    0.3328 C   0  0  1  0  0  0  0  0  0  0  0  0
    0.0018    0.9146   -0.5068 H   0  0  0  0  0  0  0  0  0  0  0  0
    0.1941    1.0484    1.6214 C   0  0  1  0  0  0  0  0  0  0  0  0
    1.1903    1.5036    1.5870 H   0  0  0  0  0  0  0  0  0  0  0  0
   -0.8382    2.1675    1.7601 C   0  0  0  0  0  0  0  0  0  0  0  0
   -1.8459    1.7571    1.8718 H   0  0  0  0  0  0  0  0  0  0  0  0
   -0.6128    2.7704    2.6449 H   0  0  0  0  0  0  0  0  0  0  0  0
   -0.8170    2.8203    0.8826 H   0  0  0  0  0  0  0  0  0  0  0  0
    0.1113    0.2191    2.7802 O   0  0  0  0  0  0  0  0  0  0  0  0
    0.5787   -0.6299    2.6035 H   0  0  0  0  0  0  0  0  0  0  0  0
    1.2424   -0.6888    0.1300 C   0  0  0  0  0  0  0  0  0  0  0  0
    1.7331   -1.3277    1.0538 O   0  0  0  0  0  0  0  0  0  0  0  0
    2.0601   -0.4513   -0.9638 N   0  0  0  0  0  0  0  0  0  0  0  0
    1.6836    0.1118   -1.7198 H   0  0  0  0  0  0  0  0  0  0  0  0
    3.3513   -1.1032   -1.1572 C   0  0  0  0  0  0  0  0  0  0  0  0
    3.2351   -2.1921   -1.1555 H   0  0  0  0  0  0  0  0  0  0  0  0
    3.7860   -0.8036   -2.1156 H   0  0  0  0  0  0  0  0  0  0  0  0
    4.0471   -0.8218   -0.3597 H   0  0  0  0  0  0  0  0  0  0  0  0
  1  2  1  0  0  0  0
  2  3  1  0  0  0  0
  2  4  1  0  0  0  0
  2  5  1  0  0  0  0
  5  6  2  0  0  0  0
  5  7  1  0  0  0  0
  7  8  1  0  0  0  0
  7  9  1  0  0  0  0
  9 10  1  0  0  0  0
  9 11  1  0  0  0  0
  9 19  1  0  0  0  0
 11 12  1  0  0  0  0
 11 13  1  0  0  0  0
 11 17  1  0  0  0  0
 13 14  1  0  0  0  0
 13 15  1  0  0  0  0
 13 16  1  0  0  0  0
 17 18  1  0  0  0  0
 19 20  2  0  0  0  0
 19 21  1  0  0  0  0
 21 22  1  0  0  0  0
 21 23  1  0  0  0  0
 23 24  1  0  0  0  0
 23 25  1  0  0  0  0
 23 26  1  0  0  0  0
M  END
$$$$

  -OEChem-01062216093D

 26 25  0     1  0  0  0  0  0999 V2000
   -3.2184   -3.1309    1.2651 H   0  0  0  0  0  0  0  0  0  0  0  0
   -3.0553   -2.1934    0.7257 C   0  0  0  0  0  0  0  0  0  0  0  0
   -3.8879   -1.5178    0.9344 H   0  0  0  0  0  0  0  0  0  0  0  0
   -3.0235   -2.4079   -0.3450 H   0  0  0  0  0  0  0  0  0  0  0  0
   -1.7487   -1.5591    1.1667 C   0  0  0  0  0  0  0  0  0  0  0  0
   -1.1584   -2.0595    2.1053 O   0  0  0  0  0  0  0  0  0  0  0  0
   -1.3595   -0.3780    0.5542 N   0  0  0  0  0  0  0  0  0  0  0  0
   -1.9908   -0.0767   -0.1788 H   0  0  0  0  0  0  0  0  0  0  0  0
    0.0023    0.2166    0.5260 C   0  0  1  0  0  0  0  0  0  0  0  0
   -0.0241    0.9022   -0.3246 H   0  0  0  0  0  0  0  0  0  0  0  0
    0.3331    1.0971    1.7572 C   0  0  1  0  0  0  0  0  0  0  0  0
    1.3409    1.5075    1.6296 H   0  0  0  0  0  0  0  0  0  0  0  0
   -0.6505    2.2612    1.8795 C   0  0  0  0  0  0  0  0  0  0  0  0
   -1.6632    1.8910    2.0678 H   0  0  0  0  0  0  0  0  0  0  0  0
   -0.3613    2.9153    2.7074 H   0  0  0  0  0  0  0  0  0  0  0  0
   -0.6595    2.8539    0.9602 H   0  0  0  0  0  0  0  0  0  0  0  0
    0.2882    0.3763    2.9838 O   0  0  0  0  0  0  0  0  0  0  0  0
    0.4833    0.9440    3.7457 H   0  0  0  0  0  0  0  0  0  0  0  0
    1.2042   -0.7166    0.2155 C   0  0  0  0  0  0  0  0  0  0  0  0
    1.2296   -1.9136    0.4598 O   0  0  0  0  0  0  0  0  0  0  0  0
    2.1578   -0.2594   -0.6835 N   0  0  0  0  0  0  0  0  0  0  0  0
    2.1299    0.7207   -0.9443 H   0  0  0  0  0  0  0  0  0  0  0  0
    3.2549   -1.0829   -1.1819 C   0  0  0  0  0  0  0  0  0  0  0  0
    2.8676   -1.9304   -1.7573 H   0  0  0  0  0  0  0  0  0  0  0  0
    3.9061   -0.4921   -1.8331 H   0  0  0  0  0  0  0  0  0  0  0  0
    3.8549   -1.4670   -0.3501 H   0  0  0  0  0  0  0  0  0  0  0  0
  1  2  1  0  0  0  0
  2  3  1  0  0  0  0
  2  4  1  0  0  0  0
  2  5  1  0  0  0  0
  5  6  2  0  0  0  0
  5  7  1  0  0  0  0
  7  8  1  0  0  0  0
  7  9  1  0  0  0  0
  9 10  1  0  0  0  0
  9 11  1  0  0  0  0
  9 19  1  0  0  0  0
 11 12  1  0  0  0  0
 11 13  1  0  0  0  0
 11 17  1  0  0  0  0
 13 14  1  0  0  0  0
 13 15  1  0  0  0  0
 13 16  1  0  0  0  0
 17 18  1  0  0  0  0
 19 20  2  0  0  0  0
 19 21  1  0  0  0  0
 21 22  1  0  0  0  0
 21 23  1  0  0  0  0
 23 24  1  0  0  0  0
 23 25  1  0  0  0  0
 23 26  1  0  0  0  0
M  END
$$$$

  -OEChem-01062216093D

 26 25  0     1  0  0  0  0  0999 V2000
   -3.1783   -3.1402    1.2728 H   0  0  0  0  0  0  0  0  0  0  0  0
   -3.0289   -2.2050    0.7257 C   0  0  0  0  0  0  0  0  0  0  0  0
   -3.8745   -1.5425    0.9226 H   0  0  0  0  0  0  0  0  0  0  0  0
   -2.9856   -2.4285   -0.3428 H   0  0  0  0  0  0  0  0  0  0  0  0
   -1.7368   -1.5435    1.1681 C   0  0  0  0  0  0  0  0  0  0  0  0
   -1.1264   -2.0333    2.1012 O   0  0  0  0  0  0  0  0  0  0  0  0
   -1.3623   -0.3599    0.5509 N   0  0  0  0  0  0  0  0  0  0  0  0
   -1.9757   -0.0872   -0.2081 H   0  0  0  0  0  0  0  0  0  0  0  0
    0.0009    0.2309    0.5343 C   0  0  1  0  0  0  0  0  0  0  0  0
   -0.0074    0.9131   -0.3195 H   0  0  0  0  0  0  0  0  0  0  0  0
    0.3289    1.1093    1.7689 C   0  0  1  0  0  0  0  0  0  0  0  0
    1.3365    1.5212    1.6485 H   0  0  0  0  0  0  0  0  0  0  0  0
   -0.6554    2.2736    1.8852 C   0  0  0  0  0  0  0  0  0  0  0  0
   -1.6685    1.9034    2.0709 H   0  0  0  0  0  0  0  0  0  0  0  0
   -0.3691    2.9302    2.7120 H   0  0  0  0  0  0  0  0  0  0  0  0
   -0.6624    2.8640    0.9643 H   0  0  0  0  0  0  0  0  0  0  0  0
    0.2759    0.3886    2.9953 O   0  0  0  0  0  0  0  0  0  0  0  0
    0.4299    0.9644    3.7609 H   0  0  0  0  0  0  0  0  0  0  0  0
    1.1882   -0.7227    0.2328 C   0  0  0  0  0  0  0  0  0  0  0  0
    1.0526   -1.9335    0.1115 O   0  0  0  0  0  0  0  0  0  0  0  0
    2.3030   -0.1823   -0.3932 N   0  0  0  0  0  0  0  0  0  0  0  0
    2.4186    0.8249   -0.3538 H   0  0  0  0  0  0  0  0  0  0  0  0
    3.4038   -0.9876   -0.9127 C   0  0  0  0  0  0  0  0  0  0  0  0
    3.0556   -1.6365   -1.7231 H   0  0  0  0  0  0  0  0  0  0  0  0
    4.1938   -0.3402   -1.3049 H   0  0  0  0  0  0  0  0  0  0  0  0
    3.8296   -1.6114   -0.1196 H   0  0  0  0  0  0  0  0  0  0  0  0
  1  2  1  0  0  0  0
  2  3  1  0  0  0  0
  2  4  1  0  0  0  0
  2  5  1  0  0  0  0
  5  6  2  0  0  0  0
  5  7  1  0  0  0  0
  7  8  1  0  0  0  0
  7  9  1  0  0  0  0
  9 10  1  0  0  0  0
  9 11  1  0  0  0  0
  9 19  1  0  0  0  0
 11 12  1  0  0  0  0
 11 13  1  0  0  0  0
 11 17  1  0  0  0  0
 13 14  1  0  0  0  0
 13 15  1  0  0  0  0
 13 16  1  0  0  0  0
 17 18  1  0  0  0  0
 19 20  2  0  0  0  0
 19 21  1  0  0  0  0
 21 22  1  0  0  0  0
 21 23  1  0  0  0  0
 23 24  1  0  0  0  0
 23 25  1  0  0  0  0
 23 26  1  0  0  0  0
M  END
$$$$

  -OEChem-01062216093D

 26 25  0     1  0  0  0  0  0999 V2000
   -3.1460   -3.1364    1.2923 H   0  0  0  0  0  0  0  0  0  0  0  0
   -3.0149   -2.1974    0.7471 C   0  0  0  0  0  0  0  0  0  0  0  0
   -3.8539   -1.5366    0.9765 H   0  0  0  0  0  0  0  0  0  0  0  0
   -3.0073   -2.4137   -0.3238 H   0  0  0  0  0  0  0  0  0  0  0  0
   -1.7086   -1.5382    1.1498 C   0  0  0  0  0  0  0  0  0  0  0  0
   -1.0467   -2.0519    2.0347 O   0  0  0  0  0  0  0  0  0  0  0  0
   -1.3550   -0.3468    0.5357 N   0  0  0  0  0  0  0  0  0  0  0  0
   -1.9753   -0.0715   -0.2169 H   0  0  0  0  0  0  0  0  0  0  0  0
    0.0033    0.2543    0.5274 C   0  0  1  0  0  0  0  0  0  0  0  0
    0.0074    0.9408   -0.3232 H   0  0  0  0  0  0  0  0  0  0  0  0
    0.3116    1.1261    1.7736 C   0  0  1  0  0  0  0  0  0  0  0  0
    1.3135    1.5545    1.6680 H   0  0  0  0  0  0  0  0  0  0  0  0
   -0.6883    2.2770    1.8919 C   0  0  0  0  0  0  0  0  0  0  0  0
   -1.6991    1.8934    2.0631 H   0  0  0  0  0  0  0  0  0  0  0  0
   -0.4185    2.9288    2.7282 H   0  0  0  0  0  0  0  0  0  0  0  0
   -0.6922    2.8765    0.9768 H   0  0  0  0  0  0  0  0  0  0  0  0
    0.2563    0.3944    2.9935 O   0  0  0  0  0  0  0  0  0  0  0  0
    0.3739    0.9696    3.7662 H   0  0  0  0  0  0  0  0  0  0  0  0
    1.1775   -0.7141    0.2235 C   0  0  0  0  0  0  0  0  0  0  0  0
    0.9746   -1.8527   -0.1842 O   0  0  0  0  0  0  0  0  0  0  0  0
    2.4132   -0.1728   -0.1024 N   0  0  0  0  0  0  0  0  0  0  0  0
    2.5989    0.7748    0.2083 H   0  0  0  0  0  0  0  0  0  0  0  0
    3.5320   -0.9702   -0.5948 C   0  0  0  0  0  0  0  0  0  0  0  0
    3.2863   -1.4205   -1.5623 H   0  0  0  0  0  0  0  0  0  0  0  0
    4.4178   -0.3409   -0.7234 H   0  0  0  0  0  0  0  0  0  0  0  0
    3.7747   -1.7689    0.1142 H   0  0  0  0  0  0  0  0  0  0  0  0
  1  2  1  0  0  0  0
  2  3  1  0  0  0  0
  2  4  1  0  0  0  0
  2  5  1  0  0  0  0
  5  6  2  0  0  0  0
  5  7  1  0  0  0  0
  7  8  1  0  0  0  0
  7  9  1  0  0  0  0
  9 10  1  0  0  0  0
  9 11  1  0  0  0  0
  9 19  1  0  0  0  0
 11 12  1  0  0  0  0
 11 13  1  0  0  0  0
 11 17  1  0  0  0  0
 13 14  1  0  0  0  0
 13 15  1  0  0  0  0
 13 16  1  0  0  0  0
 17 18  1  0  0  0  0
 19 20  2  0  0  0  0
 19 21  1  0  0  0  0
 21 22  1  0  0  0  0
 21 23  1  0  0  0  0
 23 24  1  0  0  0  0
 23 25  1  0  0  0  0
 23 26  1  0  0  0  0
M  END
$$$$

  -OEChem-01062216093D

 26 25  0     1  0  0  0  0  0999 V2000
   -3.1511   -3.1303    1.2790 H   0  0  0  0  0  0  0  0  0  0  0  0
   -3.0287   -2.1675    0.7749 C   0  0  0  0  0  0  0  0  0  0  0  0
   -3.7826   -1.4737    1.1540 H   0  0  0  0  0  0  0  0  0  0  0  0
   -3.1783   -2.3122   -0.2977 H   0  0  0  0  0  0  0  0  0  0  0  0
   -1.6384   -1.6159    1.0324 C   0  0  0  0  0  0  0  0  0  0  0  0
   -0.8584   -2.2863    1.6852 O   0  0  0  0  0  0  0  0  0  0  0  0
   -1.3063   -0.3897    0.4810 N   0  0  0  0  0  0  0  0  0  0  0  0
   -1.9895   -0.0121   -0.1657 H   0  0  0  0  0  0  0  0  0  0  0  0
    0.0293    0.2553    0.5126 C   0  0  1  0  0  0  0  0  0  0  0  0
   -0.0591    1.1285   -0.1389 H   0  0  0  0  0  0  0  0  0  0  0  0
    0.4722    0.8263    1.8888 C   0  0  1  0  0  0  0  0  0  0  0  0
    1.4441    1.3164    1.7751 H   0  0  0  0  0  0  0  0  0  0  0  0
   -0.5305    1.8734    2.3752 C   0  0  0  0  0  0  0  0  0  0  0  0
   -1.5079    1.4153    2.5569 H   0  0  0  0  0  0  0  0  0  0  0  0
   -0.1820    2.3292    3.3067 H   0  0  0  0  0  0  0  0  0  0  0  0
   -0.6492    2.6653    1.6297 H   0  0  0  0  0  0  0  0  0  0  0  0
    0.5734   -0.1525    2.9164 O   0  0  0  0  0  0  0  0  0  0  0  0
    0.7456    0.2493    3.7828 H   0  0  0  0  0  0  0  0  0  0  0  0
    1.1333   -0.5906   -0.1708 C   0  0  0  0  0  0  0  0  0  0  0  0
    0.8287   -1.4665   -0.9747 O   0  0  0  0  0  0  0  0  0  0  0  0
    2.4377   -0.1221   -0.2183 N   0  0  0  0  0  0  0  0  0  0  0  0
    2.7037    0.5512    0.4925 H   0  0  0  0  0  0  0  0  0  0  0  0
    3.5001   -0.8107   -0.9433 C   0  0  0  0  0  0  0  0  0  0  0  0
    3.2613   -0.8718   -2.0103 H   0  0  0  0  0  0  0  0  0  0  0  0
    4.4445   -0.2693   -0.8339 H   0  0  0  0  0  0  0  0  0  0  0  0
    3.6338   -1.8254   -0.5536 H   0  0  0  0  0  0  0  0  0  0  0  0
  1  2  1  0  0  0  0
  2  3  1  0  0  0  0
  2  4  1  0  0  0  0
  2  5  1  0  0  0  0
  5  6  2  0  0  0  0
  5  7  1  0  0  0  0
  7  8  1  0  0  0  0
  7  9  1  0  0  0  0
  9 10  1  0  0  0  0
  9 11  1  0  0  0  0
  9 19  1  0  0  0  0
 11 12  1  0  0  0  0
 11 13  1  0  0  0  0
 11 17  1  0  0  0  0
 13 14  1  0  0  0  0
 13 15  1  0  0  0  0
 13 16  1  0  0  0  0
 17 18  1  0  0  0  0
 19 20  2  0  0  0  0
 19 21  1  0  0  0  0
 21 22  1  0  0  0  0
 21 23  1  0  0  0  0
 23 24  1  0  0  0  0
 23 25  1  0  0  0  0
 23 26  1  0  0  0  0
M  END
$$$$

  -OEChem-01062216093D

 26 25  0     1  0  0  0  0  0999 V2000
   -3.1105   -3.1344    1.2833 H   0  0  0  0  0  0  0  0  0  0  0  0
   -3.0031   -2.1671    0.7842 C   0  0  0  0  0  0  0  0  0  0  0  0
   -3.7504   -1.4793    1.1864 H   0  0  0  0  0  0  0  0  0  0  0  0
   -3.1771   -2.3031   -0.2859 H   0  0  0  0  0  0  0  0  0  0  0  0
   -1.6096   -1.6121    1.0135 C   0  0  0  0  0  0  0  0  0  0  0  0
   -0.8032   -2.2905    1.6253 O   0  0  0  0  0  0  0  0  0  0  0  0
   -1.2932   -0.3796    0.4692 N   0  0  0  0  0  0  0  0  0  0  0  0
   -1.9881    0.0100   -0.1580 H   0  0  0  0  0  0  0  0  0  0  0  0
    0.0334    0.2802    0.5152 C   0  0  1  0  0  0  0  0  0  0  0  0
   -0.0520    1.1545   -0.1354 H   0  0  0  0  0  0  0  0  0  0  0  0
    0.4589    0.8514    1.8968 C   0  0  1  0  0  0  0  0  0  0  0  0
    1.4239    1.3576    1.7921 H   0  0  0  0  0  0  0  0  0  0  0  0
   -0.5625    1.8818    2.3795 C   0  0  0  0  0  0  0  0  0  0  0  0
   -1.5346    1.4093    2.5523 H   0  0  0  0  0  0  0  0  0  0  0  0
   -0.2272    2.3390    3.3152 H   0  0  0  0  0  0  0  0  0  0  0  0
   -0.6870    2.6751    1.6363 H   0  0  0  0  0  0  0  0  0  0  0  0
    0.5630   -0.1318    2.9205 O   0  0  0  0  0  0  0  0  0  0  0  0
    0.7005    0.2703    3.7933 H   0  0  0  0  0  0  0  0  0  0  0  0
    1.1345   -0.5683   -0.1675 C   0  0  0  0  0  0  0  0  0  0  0  0
    0.8411   -1.2659   -1.1342 O   0  0  0  0  0  0  0  0  0  0  0  0
    2.4760   -0.2877    0.0375 N   0  0  0  0  0  0  0  0  0  0  0  0
    2.6996    0.1598    0.9210 H   0  0  0  0  0  0  0  0  0  0  0  0
    3.5422   -1.0088   -0.6478 C   0  0  0  0  0  0  0  0  0  0  0  0
    3.4605   -0.8772   -1.7319 H   0  0  0  0  0  0  0  0  0  0  0  0
    4.5181   -0.6306   -0.3292 H   0  0  0  0  0  0  0  0  0  0  0  0
    3.4911   -2.0782   -0.4173 H   0  0  0  0  0  0  0  0  0  0  0  0
  1  2  1  0  0  0  0
  2  3  1  0  0  0  0
  2  4  1  0  0  0  0
  2  5  1  0  0  0  0
  5  6  2  0  0  0  0
  5  7  1  0  0  0  0
  7  8  1  0  0  0  0
  7  9  1  0  0  0  0
  9 10  1  0  0  0  0
  9 11  1  0  0  0  0
  9 19  1  0  0  0  0
 11 12  1  0  0  0  0
 11 13  1  0  0  0  0
 11 17  1  0  0  0  0
 13 14  1  0  0  0  0
 13 15  1  0  0  0  0
 13 16  1  0  0  0  0
 17 18  1  0  0  0  0
 19 20  2  0  0  0  0
 19 21  1  0  0  0  0
 21 22  1  0  0  0  0
 21 23  1  0  0  0  0
 23 24  1  0  0  0  0
 23 25  1  0  0  0  0
 23 26  1  0  0  0  0
M  END
$$$$

  -OEChem-01062216093D

 26 25  0     1  0  0  0  0  0999 V2000
   -3.0817   -3.1300    1.2964 H   0  0  0  0  0  0  0  0  0  0  0  0
   -2.9866   -2.1619    0.7963 C   0  0  0  0  0  0  0  0  0  0  0  0
   -3.7220   -1.4742    1.2200 H   0  0  0  0  0  0  0  0  0  0  0  0
   -3.1899   -2.2953   -0.2690 H   0  0  0  0  0  0  0  0  0  0  0  0
   -1.5863   -1.6098    0.9901 C   0  0  0  0  0  0  0  0  0  0  0  0
   -0.7585   -2.2964    1.5636 O   0  0  0  0  0  0  0  0  0  0  0  0
   -1.2799   -0.3732    0.4507 N   0  0  0  0  0  0  0  0  0  0  0  0
   -1.9927    0.0386   -0.1414 H   0  0  0  0  0  0  0  0  0  0  0  0
    0.0380    0.3004    0.5109 C   0  0  1  0  0  0  0  0  0  0  0  0
   -0.0473    1.1762   -0.1376 H   0  0  0  0  0  0  0  0  0  0  0  0
    0.4511    0.8682    1.8969 C   0  0  1  0  0  0  0  0  0  0  0  0
    1.4115    1.3848    1.7969 H   0  0  0  0  0  0  0  0  0  0  0  0
   -0.5836    1.8846    2.3814 C   0  0  0  0  0  0  0  0  0  0  0  0
   -1.5503    1.4000    2.5506 H   0  0  0  0  0  0  0  0  0  0  0  0
   -0.2552    2.3426    3.3190 H   0  0  0  0  0  0  0  0  0  0  0  0
   -0.7164    2.6791    1.6410 H   0  0  0  0  0  0  0  0  0  0  0  0
    0.5604   -0.1217    2.9148 O   0  0  0  0  0  0  0  0  0  0  0  0
    0.6661    0.2785    3.7934 H   0  0  0  0  0  0  0  0  0  0  0  0
    1.1424   -0.5462   -0.1651 C   0  0  0  0  0  0  0  0  0  0  0  0
    0.9070   -1.0658   -1.2520 O   0  0  0  0  0  0  0  0  0  0  0  0
    2.4579   -0.4845    0.2631 N   0  0  0  0  0  0  0  0  0  0  0  0
    2.5715   -0.2446    1.2448 H   0  0  0  0  0  0  0  0  0  0  0  0
    3.5193   -1.2571   -0.3709 C   0  0  0  0  0  0  0  0  0  0  0  0
    3.6205   -0.9794   -1.4253 H   0  0  0  0  0  0  0  0  0  0  0  0
    4.4743   -1.0654    0.1274 H   0  0  0  0  0  0  0  0  0  0  0  0
    3.3021   -2.3285   -0.3073 H   0  0  0  0  0  0  0  0  0  0  0  0
  1  2  1  0  0  0  0
  2  3  1  0  0  0  0
  2  4  1  0  0  0  0
  2  5  1  0  0  0  0
  5  6  2  0  0  0  0
  5  7  1  0  0  0  0
  7  8  1  0  0  0  0
  7  9  1  0  0  0  0
  9 10  1  0  0  0  0
  9 11  1  0  0  0  0
  9 19  1  0  0  0  0
 11 12  1  0  0  0  0
 11 13  1  0  0  0  0
 11 17  1  0  0  0  0
 13 14  1  0  0  0  0
 13 15  1  0  0  0  0
 13 16  1  0  0  0  0
 17 18  1  0  0  0  0
 19 20  2  0  0  0  0
 19 21  1  0  0  0  0
 21 22  1  0  0  0  0
 21 23  1  0  0  0  0
 23 24  1  0  0  0  0
 23 25  1  0  0  0  0
 23 26  1  0  0  0  0
M  END
$$$$

  -OEChem-01062216093D

 26 25  0     1  0  0  0  0  0999 V2000
   -3.0763   -3.1127    1.3175 H   0  0  0  0  0  0  0  0  0  0  0  0
   -2.9827   -2.1472    0.8125 C   0  0  0  0  0  0  0  0  0  0  0  0
   -3.6975   -1.4490    1.2539 H   0  0  0  0  0  0  0  0  0  0  0  0
   -3.2165   -2.2802   -0.2465 H   0  0  0  0  0  0  0  0  0  0  0  0
   -1.5714   -1.6117    0.9663 C   0  0  0  0  0  0  0  0  0  0  0  0
   -0.7287   -2.3125    1.5001 O   0  0  0  0  0  0  0  0  0  0  0  0
   -1.2686   -0.3740    0.4286 N   0  0  0  0  0  0  0  0  0  0  0  0
   -2.0027    0.0679   -0.1137 H   0  0  0  0  0  0  0  0  0  0  0  0
    0.0433    0.3075    0.5015 C   0  0  1  0  0  0  0  0  0  0  0  0
   -0.0392    1.1851   -0.1453 H   0  0  0  0  0  0  0  0  0  0  0  0
    0.4434    0.8693    1.8930 C   0  0  1  0  0  0  0  0  0  0  0  0
    1.4044    1.3869    1.7988 H   0  0  0  0  0  0  0  0  0  0  0  0
   -0.5956    1.8806    2.3772 C   0  0  0  0  0  0  0  0  0  0  0  0
   -1.5645    1.3955    2.5309 H   0  0  0  0  0  0  0  0  0  0  0  0
   -0.2765    2.3279    3.3230 H   0  0  0  0  0  0  0  0  0  0  0  0
   -0.7190    2.6827    1.6435 H   0  0  0  0  0  0  0  0  0  0  0  0
    0.5519   -0.1279    2.9057 O   0  0  0  0  0  0  0  0  0  0  0  0
    0.6607    0.2702    3.7852 H   0  0  0  0  0  0  0  0  0  0  0  0
    1.1554   -0.5348   -0.1621 C   0  0  0  0  0  0  0  0  0  0  0  0
    1.0182   -0.8771   -1.3325 O   0  0  0  0  0  0  0  0  0  0  0  0
    2.3835   -0.7095    0.4503 N   0  0  0  0  0  0  0  0  0  0  0  0
    2.3507   -0.6366    1.4662 H   0  0  0  0  0  0  0  0  0  0  0  0
    3.4344   -1.5311   -0.1367 C   0  0  0  0  0  0  0  0  0  0  0  0
    3.7150   -1.1504   -1.1244 H   0  0  0  0  0  0  0  0  0  0  0  0
    4.3233   -1.5176    0.5010 H   0  0  0  0  0  0  0  0  0  0  0  0
    3.0955   -2.5672   -0.2413 H   0  0  0  0  0  0  0  0  0  0  0  0
  1  2  1  0  0  0  0
  2  3  1  0  0  0  0
  2  4  1  0  0  0  0
  2  5  1  0  0  0  0
  5  6  2  0  0  0  0
  5  7  1  0  0  0  0
  7  8  1  0  0  0  0
  7  9  1  0  0  0  0
  9 10  1  0  0  0  0
  9 11  1  0  0  0  0
  9 19  1  0  0  0  0
 11 12  1  0  0  0  0
 11 13  1  0  0  0  0
 11 17  1  0  0  0  0
 13 14  1  0  0  0  0
 13 15  1  0  0  0  0
 13 16  1  0  0  0  0
 17 18  1  0  0  0  0
 19 20  2  0  0  0  0
 19 21  1  0  0  0  0
 21 22  1  0  0  0  0
 21 23  1  0  0  0  0
 23 24  1  0  0  0  0
 23 25  1  0  0  0  0
 23 26  1  0  0  0  0
M  END
$$$$

  -OEChem-01062216093D

 26 25  0     1  0  0  0  0  0999 V2000
   -3.0655   -3.0965    1.3390 H   0  0  0  0  0  0  0  0  0  0  0  0
   -2.9776   -2.1321    0.8306 C   0  0  0  0  0  0  0  0  0  0  0  0
   -3.6710   -1.4262    1.2936 H   0  0  0  0  0  0  0  0  0  0  0  0
   -3.2458   -2.2630   -0.2205 H   0  0  0  0  0  0  0  0  0  0  0  0
   -1.5565   -1.6124    0.9404 C   0  0  0  0  0  0  0  0  0  0  0  0
   -0.7022   -2.3275    1.4362 O   0  0  0  0  0  0  0  0  0  0  0  0
   -1.2556   -0.3738    0.4040 N   0  0  0  0  0  0  0  0  0  0  0  0
   -2.0099    0.1011   -0.0798 H   0  0  0  0  0  0  0  0  0  0  0  0
    0.0525    0.3123    0.4904 C   0  0  1  0  0  0  0  0  0  0  0  0
   -0.0268    1.1933   -0.1528 H   0  0  0  0  0  0  0  0  0  0  0  0
    0.4334    0.8641    1.8909 C   0  0  1  0  0  0  0  0  0  0  0  0
    1.3973    1.3786    1.8086 H   0  0  0  0  0  0  0  0  0  0  0  0
   -0.6097    1.8734    2.3705 C   0  0  0  0  0  0  0  0  0  0  0  0
   -1.5810    1.3882    2.5090 H   0  0  0  0  0  0  0  0  0  0  0  0
   -0.3011    2.3129    3.3237 H   0  0  0  0  0  0  0  0  0  0  0  0
   -0.7229    2.6813    1.6414 H   0  0  0  0  0  0  0  0  0  0  0  0
    0.5345   -0.1420    2.8980 O   0  0  0  0  0  0  0  0  0  0  0  0
    0.6700    0.2509    3.7765 H   0  0  0  0  0  0  0  0  0  0  0  0
    1.1771   -0.5215   -0.1588 C   0  0  0  0  0  0  0  0  0  0  0  0
    1.1646   -0.6924   -1.3733 O   0  0  0  0  0  0  0  0  0  0  0  0
    2.2665   -0.9435    0.5799 N   0  0  0  0  0  0  0  0  0  0  0  0
    2.0814   -0.9945    1.5826 H   0  0  0  0  0  0  0  0  0  0  0  0
    3.2833   -1.8291    0.0287 C   0  0  0  0  0  0  0  0  0  0  0  0
    3.7540   -1.3748   -0.8496 H   0  0  0  0  0  0  0  0  0  0  0  0
    4.0606   -2.0209    0.7745 H   0  0  0  0  0  0  0  0  0  0  0  0
    2.8372   -2.7854   -0.2644 H   0  0  0  0  0  0  0  0  0  0  0  0
  1  2  1  0  0  0  0
  2  3  1  0  0  0  0
  2  4  1  0  0  0  0
  2  5  1  0  0  0  0
  5  6  2  0  0  0  0
  5  7  1  0  0  0  0
  7  8  1  0  0  0  0
  7  9  1  0  0  0  0
  9 10  1  0  0  0  0
  9 11  1  0  0  0  0
  9 19  1  0  0  0  0
 11 12  1  0  0  0  0
 11 13  1  0  0  0  0
 11 17  1  0  0  0  0
 13 14  1  0  0  0  0
 13 15  1  0  0  0  0
 13 16  1  0  0  0  0
 17 18  1  0  0  0  0
 19 20  2  0  0  0  0
 19 21  1  0  0  0  0
 21 22  1  0  0  0  0
 21 23  1  0  0  0  0
 23 24  1  0  0  0  0
 23 25  1  0  0  0  0
 23 26  1  0  0  0  0
M  END
$$$$

  -OEChem-01062216093D

 26 25  0     1  0  0  0  0  0999 V2000
   -3.0898   -3.0648    1.3725 H   0  0  0  0  0  0  0  0  0  0  0  0
   -2.9906   -2.1127    0.8433 C   0  0  0  0  0  0  0  0  0  0  0  0
   -3.6651   -1.3855    1.3011 H   0  0  0  0  0  0  0  0  0  0  0  0
   -3.2750   -2.2594   -0.2015 H   0  0  0  0  0  0  0  0  0  0  0  0
   -1.5587   -1.6168    0.9250 C   0  0  0  0  0  0  0  0  0  0  0  0
   -0.7058   -2.3476    1.4005 O   0  0  0  0  0  0  0  0  0  0  0  0
   -1.2477   -0.3801    0.3891 N   0  0  0  0  0  0  0  0  0  0  0  0
   -2.0111    0.1214   -0.0519 H   0  0  0  0  0  0  0  0  0  0  0  0
    0.0617    0.3027    0.4869 C   0  0  1  0  0  0  0  0  0  0  0  0
   -0.0128    1.1860   -0.1541 H   0  0  0  0  0  0  0  0  0  0  0  0
    0.4221    0.8495    1.8942 C   0  0  1  0  0  0  0  0  0  0  0  0
    1.3921    1.3547    1.8249 H   0  0  0  0  0  0  0  0  0  0  0  0
   -0.6181    1.8674    2.3621 C   0  0  0  0  0  0  0  0  0  0  0  0
   -1.5952    1.3909    2.4882 H   0  0  0  0  0  0  0  0  0  0  0  0
   -0.3179    2.3036    3.3196 H   0  0  0  0  0  0  0  0  0  0  0  0
   -0.7153    2.6771    1.6327 H   0  0  0  0  0  0  0  0  0  0  0  0
    0.5059   -0.1600    2.9011 O   0  0  0  0  0  0  0  0  0  0  0  0
    0.6838    0.2300    3.7735 H   0  0  0  0  0  0  0  0  0  0  0  0
    1.2022   -0.5218   -0.1445 C   0  0  0  0  0  0  0  0  0  0  0  0
    1.3378   -0.5170   -1.3632 O   0  0  0  0  0  0  0  0  0  0  0  0
    2.1149   -1.1908    0.6475 N   0  0  0  0  0  0  0  0  0  0  0  0
    1.7836   -1.3496    1.6014 H   0  0  0  0  0  0  0  0  0  0  0  0
    3.0980   -2.1155    0.1005 C   0  0  0  0  0  0  0  0  0  0  0  0
    3.7261   -1.6152   -0.6439 H   0  0  0  0  0  0  0  0  0  0  0  0
    3.7450   -2.4916    0.8987 H   0  0  0  0  0  0  0  0  0  0  0  0
    2.5981   -2.9665   -0.3737 H   0  0  0  0  0  0  0  0  0  0  0  0
  1  2  1  0  0  0  0
  2  3  1  0  0  0  0
  2  4  1  0  0  0  0
  2  5  1  0  0  0  0
  5  6  2  0  0  0  0
  5  7  1  0  0  0  0
  7  8  1  0  0  0  0
  7  9  1  0  0  0  0
  9 10  1  0  0  0  0
  9 11  1  0  0  0  0
  9 19  1  0  0  0  0
 11 12  1  0  0  0  0
 11 13  1  0  0  0  0
 11 17  1  0  0  0  0
 13 14  1  0  0  0  0
 13 15  1  0  0  0  0
 13 16  1  0  0  0  0
 17 18  1  0  0  0  0
 19 20  2  0  0  0  0
 19 21  1  0  0  0  0
 21 22  1  0  0  0  0
 21 23  1  0  0  0  0
 23 24  1  0  0  0  0
 23 25  1  0  0  0  0
 23 26  1  0  0  0  0
M  END
$$$$

  -OEChem-01062216093D

 26 25  0     1  0  0  0  0  0999 V2000
   -3.1441   -3.0426    1.3708 H   0  0  0  0  0  0  0  0  0  0  0  0
   -3.0306   -2.0798    0.8642 C   0  0  0  0  0  0  0  0  0  0  0  0
   -3.6784   -1.3479    1.3526 H   0  0  0  0  0  0  0  0  0  0  0  0
   -3.3379   -2.1928   -0.1783 H   0  0  0  0  0  0  0  0  0  0  0  0
   -1.5861   -1.6208    0.9317 C   0  0  0  0  0  0  0  0  0  0  0  0
   -0.7513   -2.3690    1.4128 O   0  0  0  0  0  0  0  0  0  0  0  0
   -1.2505   -0.3954    0.3841 N   0  0  0  0  0  0  0  0  0  0  0  0
   -2.0141    0.1272   -0.0316 H   0  0  0  0  0  0  0  0  0  0  0  0
    0.0649    0.2782    0.4800 C   0  0  1  0  0  0  0  0  0  0  0  0
   -0.0044    1.1585   -0.1664 H   0  0  0  0  0  0  0  0  0  0  0  0
    0.4149    0.8284    1.8869 C   0  0  1  0  0  0  0  0  0  0  0  0
    1.3905    1.3236    1.8234 H   0  0  0  0  0  0  0  0  0  0  0  0
   -0.6215    1.8553    2.3431 C   0  0  0  0  0  0  0  0  0  0  0  0
   -1.6013    1.3846    2.4692 H   0  0  0  0  0  0  0  0  0  0  0  0
   -0.3225    2.2961    3.2986 H   0  0  0  0  0  0  0  0  0  0  0  0
   -0.7117    2.6601    1.6075 H   0  0  0  0  0  0  0  0  0  0  0  0
    0.4813   -0.1804    2.8958 O   0  0  0  0  0  0  0  0  0  0  0  0
    0.7171    0.2018    3.7577 H   0  0  0  0  0  0  0  0  0  0  0  0
    1.2204   -0.5444   -0.1265 C   0  0  0  0  0  0  0  0  0  0  0  0
    1.5324   -0.3637   -1.2984 O   0  0  0  0  0  0  0  0  0  0  0  0
    1.9363   -1.4370    0.6456 N   0  0  0  0  0  0  0  0  0  0  0  0
    1.4594   -1.6978    1.5129 H   0  0  0  0  0  0  0  0  0  0  0  0
    2.9085   -2.3656    0.0872 C   0  0  0  0  0  0  0  0  0  0  0  0
    3.6987   -1.8238   -0.4428 H   0  0  0  0  0  0  0  0  0  0  0  0
    3.3703   -2.9510    0.8879 H   0  0  0  0  0  0  0  0  0  0  0  0
    2.4212   -3.0535   -0.6113 H   0  0  0  0  0  0  0  0  0  0  0  0
  1  2  1  0  0  0  0
  2  3  1  0  0  0  0
  2  4  1  0  0  0  0
  2  5  1  0  0  0  0
  5  6  2  0  0  0  0
  5  7  1  0  0  0  0
  7  8  1  0  0  0  0
  7  9  1  0  0  0  0
  9 10  1  0  0  0  0
  9 11  1  0  0  0  0
  9 19  1  0  0  0  0
 11 12  1  0  0  0  0
 11 13  1  0  0  0  0
 11 17  1  0  0  0  0
 13 14  1  0  0  0  0
 13 15  1  0  0  0  0
 13 16  1  0  0  0  0
 17 18  1  0  0  0  0
 19 20  2  0  0  0  0
 19 21  1  0  0  0  0
 21 22  1  0  0  0  0
 21 23  1  0  0  0  0
 23 24  1  0  0  0  0
 23 25  1  0  0  0  0
 23 26  1  0  0  0  0
M  END
$$$$

  -OEChem-01062216093D

 26 25  0     1  0  0  0  0  0999 V2000
   -3.2561   -2.9887    1.3993 H   0  0  0  0  0  0  0  0  0  0  0  0
   -3.1088   -2.0330    0.8882 C   0  0  0  0  0  0  0  0  0  0  0  0
   -3.7286   -1.2764    1.3754 H   0  0  0  0  0  0  0  0  0  0  0  0
   -3.4231   -2.1390   -0.1529 H   0  0  0  0  0  0  0  0  0  0  0  0
   -1.6480   -1.6266    0.9495 C   0  0  0  0  0  0  0  0  0  0  0  0
   -0.8440   -2.4004    1.4418 O   0  0  0  0  0  0  0  0  0  0  0  0
   -1.2733   -0.4180    0.3886 N   0  0  0  0  0  0  0  0  0  0  0  0
   -2.0274    0.1218   -0.0227 H   0  0  0  0  0  0  0  0  0  0  0  0
    0.0540    0.2384    0.4719 C   0  0  1  0  0  0  0  0  0  0  0  0
   -0.0132    1.1135   -0.1817 H   0  0  0  0  0  0  0  0  0  0  0  0
    0.4104    0.7946    1.8730 C   0  0  1  0  0  0  0  0  0  0  0  0
    1.3943    1.2728    1.8073 H   0  0  0  0  0  0  0  0  0  0  0  0
   -0.6077    1.8414    2.3257 C   0  0  0  0  0  0  0  0  0  0  0  0
   -1.5950    1.3881    2.4578 H   0  0  0  0  0  0  0  0  0  0  0  0
   -0.2974    2.2822    3.2777 H   0  0  0  0  0  0  0  0  0  0  0  0
   -0.6865    2.6438    1.5860 H   0  0  0  0  0  0  0  0  0  0  0  0
    0.4603   -0.2133    2.8828 O   0  0  0  0  0  0  0  0  0  0  0  0
    0.7388    0.1585    3.7361 H   0  0  0  0  0  0  0  0  0  0  0  0
    1.2239   -0.5821   -0.1125 C   0  0  0  0  0  0  0  0  0  0  0  0
    1.7183   -0.2352   -1.1795 O   0  0  0  0  0  0  0  0  0  0  0  0
    1.7484   -1.6677    0.5587 N   0  0  0  0  0  0  0  0  0  0  0  0
    1.1588   -2.0116    1.3233 H   0  0  0  0  0  0  0  0  0  0  0  0
    2.7440   -2.5627   -0.0128 C   0  0  0  0  0  0  0  0  0  0  0  0
    3.6411   -2.0057   -0.3021 H   0  0  0  0  0  0  0  0  0  0  0  0
    3.0320   -3.3212    0.7212 H   0  0  0  0  0  0  0  0  0  0  0  0
    2.3405   -3.0680   -0.8961 H   0  0  0  0  0  0  0  0  0  0  0  0
  1  2  1  0  0  0  0
  2  3  1  0  0  0  0
  2  4  1  0  0  0  0
  2  5  1  0  0  0  0
  5  6  2  0  0  0  0
  5  7  1  0  0  0  0
  7  8  1  0  0  0  0
  7  9  1  0  0  0  0
  9 10  1  0  0  0  0
  9 11  1  0  0  0  0
  9 19  1  0  0  0  0
 11 12  1  0  0  0  0
 11 13  1  0  0  0  0
 11 17  1  0  0  0  0
 13 14  1  0  0  0  0
 13 15  1  0  0  0  0
 13 16  1  0  0  0  0
 17 18  1  0  0  0  0
 19 20  2  0  0  0  0
 19 21  1  0  0  0  0
 21 22  1  0  0  0  0
 21 23  1  0  0  0  0
 23 24  1  0  0  0  0
 23 25  1  0  0  0  0
 23 26  1  0  0  0  0
M  END
$$$$

  -OEChem-01062216093D

 26 25  0     1  0  0  0  0  0999 V2000
   -3.3831   -2.9214    1.4360 H   0  0  0  0  0  0  0  0  0  0  0  0
   -3.2013   -1.9745    0.9195 C   0  0  0  0  0  0  0  0  0  0  0  0
   -3.7850   -1.1913    1.4089 H   0  0  0  0  0  0  0  0  0  0  0  0
   -3.5290   -2.0716   -0.1182 H   0  0  0  0  0  0  0  0  0  0  0  0
   -1.7250   -1.6272    0.9670 C   0  0  0  0  0  0  0  0  0  0  0  0
   -0.9530   -2.4298    1.4632 O   0  0  0  0  0  0  0  0  0  0  0  0
   -1.3123   -0.4363    0.3944 N   0  0  0  0  0  0  0  0  0  0  0  0
   -2.0582    0.1238   -0.0048 H   0  0  0  0  0  0  0  0  0  0  0  0
    0.0296    0.1981    0.4538 C   0  0  1  0  0  0  0  0  0  0  0  0
   -0.0374    1.0704   -0.2034 H   0  0  0  0  0  0  0  0  0  0  0  0
    0.4114    0.7524    1.8475 C   0  0  1  0  0  0  0  0  0  0  0  0
    1.4021    1.2144    1.7703 H   0  0  0  0  0  0  0  0  0  0  0  0
   -0.5840    1.8160    2.3112 C   0  0  0  0  0  0  0  0  0  0  0  0
   -1.5766    1.3790    2.4563 H   0  0  0  0  0  0  0  0  0  0  0  0
   -0.2551    2.2530    3.2587 H   0  0  0  0  0  0  0  0  0  0  0  0
   -0.6585    2.6182    1.5711 H   0  0  0  0  0  0  0  0  0  0  0  0
    0.4548   -0.2583    2.8537 O   0  0  0  0  0  0  0  0  0  0  0  0
    0.7568    0.1042    3.7029 H   0  0  0  0  0  0  0  0  0  0  0  0
    1.2036   -0.6228   -0.1245 C   0  0  0  0  0  0  0  0  0  0  0  0
    1.8653   -0.1402   -1.0368 O   0  0  0  0  0  0  0  0  0  0  0  0
    1.5517   -1.8617    0.3722 N   0  0  0  0  0  0  0  0  0  0  0  0
    0.9076   -2.2530    1.0669 H   0  0  0  0  0  0  0  0  0  0  0  0
    2.6001   -2.7051   -0.1825 C   0  0  0  0  0  0  0  0  0  0  0  0
    3.5583   -2.1754   -0.1842 H   0  0  0  0  0  0  0  0  0  0  0  0
    2.7090   -3.6121    0.4196 H   0  0  0  0  0  0  0  0  0  0  0  0
    2.3543   -2.9962   -1.2088 H   0  0  0  0  0  0  0  0  0  0  0  0
  1  2  1  0  0  0  0
  2  3  1  0  0  0  0
  2  4  1  0  0  0  0
  2  5  1  0  0  0  0
  5  6  2  0  0  0  0
  5  7  1  0  0  0  0
  7  8  1  0  0  0  0
  7  9  1  0  0  0  0
  9 10  1  0  0  0  0
  9 11  1  0  0  0  0
  9 19  1  0  0  0  0
 11 12  1  0  0  0  0
 11 13  1  0  0  0  0
 11 17  1  0  0  0  0
 13 14  1  0  0  0  0
 13 15  1  0  0  0  0
 13 16  1  0  0  0  0
 17 18  1  0  0  0  0
 19 20  2  0  0  0  0
 19 21  1  0  0  0  0
 21 22  1  0  0  0  0
 21 23  1  0  0  0  0
 23 24  1  0  0  0  0
 23 25  1  0  0  0  0
 23 26  1  0  0  0  0
M  END
$$$$

  -OEChem-01062216093D

 26 25  0     1  0  0  0  0  0999 V2000
   -3.4822   -2.8745    1.4726 H   0  0  0  0  0  0  0  0  0  0  0  0
   -3.2883   -1.9208    0.9733 C   0  0  0  0  0  0  0  0  0  0  0  0
   -3.8271   -1.1322    1.5040 H   0  0  0  0  0  0  0  0  0  0  0  0
   -3.6578   -1.9805   -0.0533 H   0  0  0  0  0  0  0  0  0  0  0  0
   -1.8003   -1.6231    0.9733 C   0  0  0  0  0  0  0  0  0  0  0  0
   -1.0420   -2.4563    1.4389 O   0  0  0  0  0  0  0  0  0  0  0  0
   -1.3678   -0.4430    0.3922 N   0  0  0  0  0  0  0  0  0  0  0  0
   -2.1127    0.1447    0.0332 H   0  0  0  0  0  0  0  0  0  0  0  0
   -0.0107    0.1646    0.4171 C   0  0  1  0  0  0  0  0  0  0  0  0
   -0.0804    1.0389   -0.2374 H   0  0  0  0  0  0  0  0  0  0  0  0
    0.4131    0.7050    1.8034 C   0  0  1  0  0  0  0  0  0  0  0  0
    1.4116    1.1470    1.7078 H   0  0  0  0  0  0  0  0  0  0  0  0
   -0.5479    1.7873    2.2951 C   0  0  0  0  0  0  0  0  0  0  0  0
   -1.5477    1.3731    2.4569 H   0  0  0  0  0  0  0  0  0  0  0  0
   -0.1898    2.2088    3.2390 H   0  0  0  0  0  0  0  0  0  0  0  0
   -0.6177    2.5972    1.5627 H   0  0  0  0  0  0  0  0  0  0  0  0
    0.4581   -0.3154    2.7993 O   0  0  0  0  0  0  0  0  0  0  0  0
    0.7988    0.0302    3.6408 H   0  0  0  0  0  0  0  0  0  0  0  0
    1.1528   -0.6574   -0.1824 C   0  0  0  0  0  0  0  0  0  0  0  0
    1.9609   -0.0796   -0.9009 O   0  0  0  0  0  0  0  0  0  0  0  0
    1.3370   -1.9999    0.0764 N   0  0  0  0  0  0  0  0  0  0  0  0
    0.6812   -2.4186    0.7426 H   0  0  0  0  0  0  0  0  0  0  0  0
    2.4752   -2.7792   -0.3881 C   0  0  0  0  0  0  0  0  0  0  0  0
    3.4076   -2.3715    0.0154 H   0  0  0  0  0  0  0  0  0  0  0  0
    2.3786   -3.8177   -0.0576 H   0  0  0  0  0  0  0  0  0  0  0  0
    2.5267   -2.7678   -1.4816 H   0  0  0  0  0  0  0  0  0  0  0  0
  1  2  1  0  0  0  0
  2  3  1  0  0  0  0
  2  4  1  0  0  0  0
  2  5  1  0  0  0  0
  5  6  2  0  0  0  0
  5  7  1  0  0  0  0
  7  8  1  0  0  0  0
  7  9  1  0  0  0  0
  9 10  1  0  0  0  0
  9 11  1  0  0  0  0
  9 19  1  0  0  0  0
 11 12  1  0  0  0  0
 11 13  1  0  0  0  0
 11 17  1  0  0  0  0
 13 14  1  0  0  0  0
 13 15  1  0  0  0  0
 13 16  1  0  0  0  0
 17 18  1  0  0  0  0
 19 20  2  0  0  0  0
 19 21  1  0  0  0  0
 21 22  1  0  0  0  0
 21 23  1  0  0  0  0
 23 24  1  0  0  0  0
 23 25  1  0  0  0  0
 23 26  1  0  0  0  0
M  END
$$$$

  -OEChem-01062216093D

 26 25  0     1  0  0  0  0  0999 V2000
   -3.5159   -2.8257    1.5352 H   0  0  0  0  0  0  0  0  0  0  0  0
   -3.3190   -1.8801    1.0219 C   0  0  0  0  0  0  0  0  0  0  0  0
   -3.8164   -1.0758    1.5691 H   0  0  0  0  0  0  0  0  0  0  0  0
   -3.7308   -1.9364    0.0113 H   0  0  0  0  0  0  0  0  0  0  0  0
   -1.8254   -1.6189    0.9599 C   0  0  0  0  0  0  0  0  0  0  0  0
   -1.0667   -2.4822    1.3661 O   0  0  0  0  0  0  0  0  0  0  0  0
   -1.3892   -0.4404    0.3786 N   0  0  0  0  0  0  0  0  0  0  0  0
   -2.1369    0.1727    0.0713 H   0  0  0  0  0  0  0  0  0  0  0  0
   -0.0262    0.1559    0.3930 C   0  0  1  0  0  0  0  0  0  0  0  0
   -0.0940    1.0340   -0.2559 H   0  0  0  0  0  0  0  0  0  0  0  0
    0.4053    0.6811    1.7833 C   0  0  1  0  0  0  0  0  0  0  0  0
    1.4058    1.1192    1.6912 H   0  0  0  0  0  0  0  0  0  0  0  0
   -0.5482    1.7631    2.2909 C   0  0  0  0  0  0  0  0  0  0  0  0
   -1.5469    1.3501    2.4617 H   0  0  0  0  0  0  0  0  0  0  0  0
   -0.1786    2.1782    3.2331 H   0  0  0  0  0  0  0  0  0  0  0  0
   -0.6240    2.5772    1.5640 H   0  0  0  0  0  0  0  0  0  0  0  0
    0.4450   -0.3517    2.7665 O   0  0  0  0  0  0  0  0  0  0  0  0
    0.8154   -0.0257    3.6033 H   0  0  0  0  0  0  0  0  0  0  0  0
    1.1369   -0.6613   -0.2166 C   0  0  0  0  0  0  0  0  0  0  0  0
    2.0581   -0.0455   -0.7419 O   0  0  0  0  0  0  0  0  0  0  0  0
    1.1746   -2.0412   -0.2243 N   0  0  0  0  0  0  0  0  0  0  0  0
    0.4803   -2.4975    0.3739 H   0  0  0  0  0  0  0  0  0  0  0  0
    2.3239   -2.8146   -0.6726 C   0  0  0  0  0  0  0  0  0  0  0  0
    3.1990   -2.5934   -0.0529 H   0  0  0  0  0  0  0  0  0  0  0  0
    2.1081   -3.8848   -0.5994 H   0  0  0  0  0  0  0  0  0  0  0  0
    2.5605   -2.5815   -1.7160 H   0  0  0  0  0  0  0  0  0  0  0  0
  1  2  1  0  0  0  0
  2  3  1  0  0  0  0
  2  4  1  0  0  0  0
  2  5  1  0  0  0  0
  5  6  2  0  0  0  0
  5  7  1  0  0  0  0
  7  8  1  0  0  0  0
  7  9  1  0  0  0  0
  9 10  1  0  0  0  0
  9 11  1  0  0  0  0
  9 19  1  0  0  0  0
 11 12  1  0  0  0  0
 11 13  1  0  0  0  0
 11 17  1  0  0  0  0
 13 14  1  0  0  0  0
 13 15  1  0  0  0  0
 13 16  1  0  0  0  0
 17 18  1  0  0  0  0
 19 20  2  0  0  0  0
 19 21  1  0  0  0  0
 21 22  1  0  0  0  0
 21 23  1  0  0  0  0
 23 24  1  0  0  0  0
 23 25  1  0  0  0  0
 23 26  1  0  0  0  0
M  END
$$$$

  -OEChem-01062216093D

 26 25  0     1  0  0  0  0  0999 V2000
   -3.4875   -2.8260    1.5529 H   0  0  0  0  0  0  0  0  0  0  0  0
   -3.3056   -1.8567    1.0797 C   0  0  0  0  0  0  0  0  0  0  0  0
   -3.7468   -1.0750    1.7026 H   0  0  0  0  0  0  0  0  0  0  0  0
   -3.7864   -1.8485    0.0987 H   0  0  0  0  0  0  0  0  0  0  0  0
   -1.8144   -1.6195    0.9296 C   0  0  0  0  0  0  0  0  0  0  0  0
   -1.0457   -2.5124    1.2423 O   0  0  0  0  0  0  0  0  0  0  0  0
   -1.3894   -0.4352    0.3528 N   0  0  0  0  0  0  0  0  0  0  0  0
   -2.1418    0.2061    0.1248 H   0  0  0  0  0  0  0  0  0  0  0  0
   -0.0239    0.1547    0.3788 C   0  0  1  0  0  0  0  0  0  0  0  0
   -0.0820    1.0355   -0.2670 H   0  0  0  0  0  0  0  0  0  0  0  0
    0.3837    0.6715    1.7806 C   0  0  1  0  0  0  0  0  0  0  0  0
    1.3875    1.1061    1.7115 H   0  0  0  0  0  0  0  0  0  0  0  0
   -0.5726    1.7563    2.2771 C   0  0  0  0  0  0  0  0  0  0  0  0
   -1.5780    1.3506    2.4238 H   0  0  0  0  0  0  0  0  0  0  0  0
   -0.2201    2.1616    3.2302 H   0  0  0  0  0  0  0  0  0  0  0  0
   -0.6263    2.5766    1.5551 H   0  0  0  0  0  0  0  0  0  0  0  0
    0.4017   -0.3692    2.7567 O   0  0  0  0  0  0  0  0  0  0  0  0
    0.7929   -0.0600    3.5905 H   0  0  0  0  0  0  0  0  0  0  0  0
    1.1437   -0.6585   -0.2299 C   0  0  0  0  0  0  0  0  0  0  0  0
    2.1581   -0.0522   -0.5586 O   0  0  0  0  0  0  0  0  0  0  0  0
    1.0563   -2.0058   -0.5210 N   0  0  0  0  0  0  0  0  0  0  0  0
    0.3063   -2.4958   -0.0272 H   0  0  0  0  0  0  0  0  0  0  0  0
    2.1833   -2.7907   -1.0059 C   0  0  0  0  0  0  0  0  0  0  0  0
    2.9886   -2.8018   -0.2641 H   0  0  0  0  0  0  0  0  0  0  0  0
    1.8688   -3.8217   -1.1941 H   0  0  0  0  0  0  0  0  0  0  0  0
    2.5693   -2.3726   -1.9413 H   0  0  0  0  0  0  0  0  0  0  0  0
  1  2  1  0  0  0  0
  2  3  1  0  0  0  0
  2  4  1  0  0  0  0
  2  5  1  0  0  0  0
  5  6  2  0  0  0  0
  5  7  1  0  0  0  0
  7  8  1  0  0  0  0
  7  9  1  0  0  0  0
  9 10  1  0  0  0  0
  9 11  1  0  0  0  0
  9 19  1  0  0  0  0
 11 12  1  0  0  0  0
 11 13  1  0  0  0  0
 11 17  1  0  0  0  0
 13 14  1  0  0  0  0
 13 15  1  0  0  0  0
 13 16  1  0  0  0  0
 17 18  1  0  0  0  0
 19 20  2  0  0  0  0
 19 21  1  0  0  0  0
 21 22  1  0  0  0  0
 21 23  1  0  0  0  0
 23 24  1  0  0  0  0
 23 25  1  0  0  0  0
 23 26  1  0  0  0  0
M  END
$$$$

  -OEChem-01062216093D

 26 25  0     1  0  0  0  0  0999 V2000
   -3.4218   -2.8252    1.5850 H   0  0  0  0  0  0  0  0  0  0  0  0
   -3.2606   -1.8390    1.1402 C   0  0  0  0  0  0  0  0  0  0  0  0
   -3.6354   -1.0790    1.8299 H   0  0  0  0  0  0  0  0  0  0  0  0
   -3.8183   -1.7801    0.2025 H   0  0  0  0  0  0  0  0  0  0  0  0
   -1.7821   -1.6183    0.8810 C   0  0  0  0  0  0  0  0  0  0  0  0
   -1.0048   -2.5368    1.0770 O   0  0  0  0  0  0  0  0  0  0  0  0
   -1.3775   -0.4248    0.3101 N   0  0  0  0  0  0  0  0  0  0  0  0
   -2.1332    0.2373    0.1692 H   0  0  0  0  0  0  0  0  0  0  0  0
   -0.0132    0.1643    0.3619 C   0  0  1  0  0  0  0  0  0  0  0  0
   -0.0553    1.0499   -0.2785 H   0  0  0  0  0  0  0  0  0  0  0  0
    0.3581    0.6667    1.7804 C   0  0  1  0  0  0  0  0  0  0  0  0
    1.3615    1.1055    1.7437 H   0  0  0  0  0  0  0  0  0  0  0  0
   -0.6125    1.7435    2.2667 C   0  0  0  0  0  0  0  0  0  0  0  0
   -1.6190    1.3332    2.3905 H   0  0  0  0  0  0  0  0  0  0  0  0
   -0.2802    2.1409    3.2303 H   0  0  0  0  0  0  0  0  0  0  0  0
   -0.6548    2.5696    1.5506 H   0  0  0  0  0  0  0  0  0  0  0  0
    0.3529   -0.3868    2.7436 O   0  0  0  0  0  0  0  0  0  0  0  0
    0.7680   -0.1015    3.5746 H   0  0  0  0  0  0  0  0  0  0  0  0
    1.1576   -0.6525   -0.2378 C   0  0  0  0  0  0  0  0  0  0  0  0
    2.2470   -0.1035   -0.3678 O   0  0  0  0  0  0  0  0  0  0  0  0
    0.9732   -1.8970   -0.8101 N   0  0  0  0  0  0  0  0  0  0  0  0
    0.1630   -2.3992   -0.4412 H   0  0  0  0  0  0  0  0  0  0  0  0
    2.0739   -2.6902   -1.3409 C   0  0  0  0  0  0  0  0  0  0  0  0
    2.7871   -2.9334   -0.5466 H   0  0  0  0  0  0  0  0  0  0  0  0
    1.6929   -3.6239   -1.7651 H   0  0  0  0  0  0  0  0  0  0  0  0
    2.5976   -2.1423   -2.1312 H   0  0  0  0  0  0  0  0  0  0  0  0
  1  2  1  0  0  0  0
  2  3  1  0  0  0  0
  2  4  1  0  0  0  0
  2  5  1  0  0  0  0
  5  6  2  0  0  0  0
  5  7  1  0  0  0  0
  7  8  1  0  0  0  0
  7  9  1  0  0  0  0
  9 10  1  0  0  0  0
  9 11  1  0  0  0  0
  9 19  1  0  0  0  0
 11 12  1  0  0  0  0
 11 13  1  0  0  0  0
 11 17  1  0  0  0  0
 13 14  1  0  0  0  0
 13 15  1  0  0  0  0
 13 16  1  0  0  0  0
 17 18  1  0  0  0  0
 19 20  2  0  0  0  0
 19 21  1  0  0  0  0
 21 22  1  0  0  0  0
 21 23  1  0  0  0  0
 23 24  1  0  0  0  0
 23 25  1  0  0  0  0
 23 26  1  0  0  0  0
M  END
$$$$

  -OEChem-01062216093D

 26 25  0     1  0  0  0  0  0999 V2000
   -3.3331   -2.8363    1.6147 H   0  0  0  0  0  0  0  0  0  0  0  0
   -3.1982   -1.8394    1.1852 C   0  0  0  0  0  0  0  0  0  0  0  0
   -3.5191   -1.0962    1.9191 H   0  0  0  0  0  0  0  0  0  0  0  0
   -3.8195   -1.7537    0.2905 H   0  0  0  0  0  0  0  0  0  0  0  0
   -1.7401   -1.6176    0.8297 C   0  0  0  0  0  0  0  0  0  0  0  0
   -0.9584   -2.5496    0.9108 O   0  0  0  0  0  0  0  0  0  0  0  0
   -1.3602   -0.4127    0.2677 N   0  0  0  0  0  0  0  0  0  0  0  0
   -2.1174    0.2594    0.2046 H   0  0  0  0  0  0  0  0  0  0  0  0
    0.0016    0.1763    0.3531 C   0  0  1  0  0  0  0  0  0  0  0  0
   -0.0215    1.0668   -0.2809 H   0  0  0  0  0  0  0  0  0  0  0  0
    0.3348    0.6659    1.7866 C   0  0  1  0  0  0  0  0  0  0  0  0
    1.3381    1.1060    1.7814 H   0  0  0  0  0  0  0  0  0  0  0  0
   -0.6474    1.7381    2.2600 C   0  0  0  0  0  0  0  0  0  0  0  0
   -1.6568    1.3273    2.3556 H   0  0  0  0  0  0  0  0  0  0  0  0
   -0.3379    2.1257    3.2352 H   0  0  0  0  0  0  0  0  0  0  0  0
   -0.6722    2.5719    1.5519 H   0  0  0  0  0  0  0  0  0  0  0  0
    0.3049   -0.3986    2.7377 O   0  0  0  0  0  0  0  0  0  0  0  0
    0.7452   -0.1383    3.5641 H   0  0  0  0  0  0  0  0  0  0  0  0
    1.1699   -0.6505   -0.2377 C   0  0  0  0  0  0  0  0  0  0  0  0
    2.3123   -0.2082   -0.1666 O   0  0  0  0  0  0  0  0  0  0  0  0
    0.9288   -1.7220   -1.0776 N   0  0  0  0  0  0  0  0  0  0  0  0
    0.0529   -2.2022   -0.8683 H   0  0  0  0  0  0  0  0  0  0  0  0
    2.0053   -2.5167   -1.6547 C   0  0  0  0  0  0  0  0  0  0  0  0
    2.6021   -2.9832   -0.8640 H   0  0  0  0  0  0  0  0  0  0  0  0
    1.5913   -3.3053   -2.2900 H   0  0  0  0  0  0  0  0  0  0  0  0
    2.6602   -1.8896   -2.2685 H   0  0  0  0  0  0  0  0  0  0  0  0
  1  2  1  0  0  0  0
  2  3  1  0  0  0  0
  2  4  1  0  0  0  0
  2  5  1  0  0  0  0
  5  6  2  0  0  0  0
  5  7  1  0  0  0  0
  7  8  1  0  0  0  0
  7  9  1  0  0  0  0
  9 10  1  0  0  0  0
  9 11  1  0  0  0  0
  9 19  1  0  0  0  0
 11 12  1  0  0  0  0
 11 13  1  0  0  0  0
 11 17  1  0  0  0  0
 13 14  1  0  0  0  0
 13 15  1  0  0  0  0
 13 16  1  0  0  0  0
 17 18  1  0  0  0  0
 19 20  2  0  0  0  0
 19 21  1  0  0  0  0
 21 22  1  0  0  0  0
 21 23  1  0  0  0  0
 23 24  1  0  0  0  0
 23 25  1  0  0  0  0
 23 26  1  0  0  0  0
M  END
$$$$

  -OEChem-01062216093D

 26 25  0     1  0  0  0  0  0999 V2000
   -3.1696   -2.9479    1.5546 H   0  0  0  0  0  0  0  0  0  0  0  0
   -3.0952   -1.9262    1.1713 C   0  0  0  0  0  0  0  0  0  0  0  0
   -3.5071   -1.2416    1.9168 H   0  0  0  0  0  0  0  0  0  0  0  0
   -3.6815   -1.8520    0.2523 H   0  0  0  0  0  0  0  0  0  0  0  0
   -1.6451   -1.5768    0.8962 C   0  0  0  0  0  0  0  0  0  0  0  0
   -0.7702   -2.3941    1.1326 O   0  0  0  0  0  0  0  0  0  0  0  0
   -1.3333   -0.3642    0.3074 N   0  0  0  0  0  0  0  0  0  0  0  0
   -2.1221    0.2687    0.2141 H   0  0  0  0  0  0  0  0  0  0  0  0
    0.0068    0.2685    0.3850 C   0  0  1  0  0  0  0  0  0  0  0  0
   -0.0330    1.1507   -0.2601 H   0  0  0  0  0  0  0  0  0  0  0  0
    0.3189    0.7887    1.8138 C   0  0  1  0  0  0  0  0  0  0  0  0
    1.3070    1.2626    1.8066 H   0  0  0  0  0  0  0  0  0  0  0  0
   -0.6983    1.8353    2.2702 C   0  0  0  0  0  0  0  0  0  0  0  0
   -1.6966    1.3970    2.3578 H   0  0  0  0  0  0  0  0  0  0  0  0
   -0.4092    2.2314    3.2485 H   0  0  0  0  0  0  0  0  0  0  0  0
   -0.7379    2.6667    1.5606 H   0  0  0  0  0  0  0  0  0  0  0  0
    0.3210   -0.2588    2.7847 O   0  0  0  0  0  0  0  0  0  0  0  0
    0.8115   -1.0350    2.4492 H   0  0  0  0  0  0  0  0  0  0  0  0
    1.1658   -0.5685   -0.2104 C   0  0  0  0  0  0  0  0  0  0  0  0
    2.3211   -0.3874    0.1540 O   0  0  0  0  0  0  0  0  0  0  0  0
    0.9245   -1.4404   -1.2571 N   0  0  0  0  0  0  0  0  0  0  0  0
   -0.0469   -1.7165   -1.3693 H   0  0  0  0  0  0  0  0  0  0  0  0
    1.9517   -2.3232   -1.7959 C   0  0  0  0  0  0  0  0  0  0  0  0
    2.3058   -3.0142   -1.0236 H   0  0  0  0  0  0  0  0  0  0  0  0
    1.5474   -2.9084   -2.6272 H   0  0  0  0  0  0  0  0  0  0  0  0
    2.8024   -1.7422   -2.1671 H   0  0  0  0  0  0  0  0  0  0  0  0
  1  2  1  0  0  0  0
  2  3  1  0  0  0  0
  2  4  1  0  0  0  0
  2  5  1  0  0  0  0
  5  6  2  0  0  0  0
  5  7  1  0  0  0  0
  7  8  1  0  0  0  0
  7  9  1  0  0  0  0
  9 10  1  0  0  0  0
  9 11  1  0  0  0  0
  9 19  1  0  0  0  0
 11 12  1  0  0  0  0
 11 13  1  0  0  0  0
 11 17  1  0  0  0  0
 13 14  1  0  0  0  0
 13 15  1  0  0  0  0
 13 16  1  0  0  0  0
 17 18  1  0  0  0  0
 19 20  2  0  0  0  0
 19 21  1  0  0  0  0
 21 22  1  0  0  0  0
 21 23  1  0  0  0  0
 23 24  1  0  0  0  0
 23 25  1  0  0  0  0
 23 26  1  0  0  0  0
M  END
$$$$

  -OEChem-01062216093D

 26 25  0     1  0  0  0  0  0999 V2000
   -3.1195   -2.9475    1.5966 H   0  0  0  0  0  0  0  0  0  0  0  0
   -3.0601   -1.9443    1.1648 C   0  0  0  0  0  0  0  0  0  0  0  0
   -3.4854   -1.2320    1.8760 H   0  0  0  0  0  0  0  0  0  0  0  0
   -3.6443   -1.9232    0.2419 H   0  0  0  0  0  0  0  0  0  0  0  0
   -1.6149   -1.5856    0.8762 C   0  0  0  0  0  0  0  0  0  0  0  0
   -0.7343   -2.3999    1.0995 O   0  0  0  0  0  0  0  0  0  0  0  0
   -1.3184   -0.3670    0.2917 N   0  0  0  0  0  0  0  0  0  0  0  0
   -2.1147    0.2582    0.2144 H   0  0  0  0  0  0  0  0  0  0  0  0
    0.0123    0.2805    0.3863 C   0  0  1  0  0  0  0  0  0  0  0  0
   -0.0268    1.1649   -0.2555 H   0  0  0  0  0  0  0  0  0  0  0  0
    0.3141    0.7982    1.8177 C   0  0  1  0  0  0  0  0  0  0  0  0
    1.2978    1.2811    1.8143 H   0  0  0  0  0  0  0  0  0  0  0  0
   -0.7167    1.8307    2.2742 C   0  0  0  0  0  0  0  0  0  0  0  0
   -1.7101    1.3805    2.3558 H   0  0  0  0  0  0  0  0  0  0  0  0
   -0.4360    2.2250    3.2555 H   0  0  0  0  0  0  0  0  0  0  0  0
   -0.7631    2.6648    1.5680 H   0  0  0  0  0  0  0  0  0  0  0  0
    0.3236   -0.2541    2.7819 O   0  0  0  0  0  0  0  0  0  0  0  0
    0.8604   -1.0038    2.4536 H   0  0  0  0  0  0  0  0  0  0  0  0
    1.1706   -0.5594   -0.2035 C   0  0  0  0  0  0  0  0  0  0  0  0
    2.2713   -0.5914    0.3343 O   0  0  0  0  0  0  0  0  0  0  0  0
    1.0027   -1.1811   -1.4280 N   0  0  0  0  0  0  0  0  0  0  0  0
    0.0419   -1.2796   -1.7417 H   0  0  0  0  0  0  0  0  0  0  0  0
    2.0084   -2.0657   -2.0033 C   0  0  0  0  0  0  0  0  0  0  0  0
    2.1843   -2.9234   -1.3454 H   0  0  0  0  0  0  0  0  0  0  0  0
    1.6725   -2.4366   -2.9762 H   0  0  0  0  0  0  0  0  0  0  0  0
    2.9536   -1.5320   -2.1476 H   0  0  0  0  0  0  0  0  0  0  0  0
  1  2  1  0  0  0  0
  2  3  1  0  0  0  0
  2  4  1  0  0  0  0
  2  5  1  0  0  0  0
  5  6  2  0  0  0  0
  5  7  1  0  0  0  0
  7  8  1  0  0  0  0
  7  9  1  0  0  0  0
  9 10  1  0  0  0  0
  9 11  1  0  0  0  0
  9 19  1  0  0  0  0
 11 12  1  0  0  0  0
 11 13  1  0  0  0  0
 11 17  1  0  0  0  0
 13 14  1  0  0  0  0
 13 15  1  0  0  0  0
 13 16  1  0  0  0  0
 17 18  1  0  0  0  0
 19 20  2  0  0  0  0
 19 21  1  0  0  0  0
 21 22  1  0  0  0  0
 21 23  1  0  0  0  0
 23 24  1  0  0  0  0
 23 25  1  0  0  0  0
 23 26  1  0  0  0  0
M  END
$$$$

  -OEChem-01062216093D

 26 25  0     1  0  0  0  0  0999 V2000
   -3.1134   -2.9446    1.6144 H   0  0  0  0  0  0  0  0  0  0  0  0
   -3.0564   -1.9567    1.1482 C   0  0  0  0  0  0  0  0  0  0  0  0
   -3.5091   -1.2257    1.8224 H   0  0  0  0  0  0  0  0  0  0  0  0
   -3.6166   -1.9770    0.2106 H   0  0  0  0  0  0  0  0  0  0  0  0
   -1.6089   -1.5894    0.8824 C   0  0  0  0  0  0  0  0  0  0  0  0
   -0.7294   -2.4003    1.1198 O   0  0  0  0  0  0  0  0  0  0  0  0
   -1.3121   -0.3715    0.2961 N   0  0  0  0  0  0  0  0  0  0  0  0
   -2.1110    0.2485    0.2080 H   0  0  0  0  0  0  0  0  0  0  0  0
    0.0149    0.2820    0.3908 C   0  0  1  0  0  0  0  0  0  0  0  0
   -0.0249    1.1675   -0.2498 H   0  0  0  0  0  0  0  0  0  0  0  0
    0.3200    0.7996    1.8208 C   0  0  1  0  0  0  0  0  0  0  0  0
    1.3039    1.2821    1.8113 H   0  0  0  0  0  0  0  0  0  0  0  0
   -0.7106    1.8298    2.2819 C   0  0  0  0  0  0  0  0  0  0  0  0
   -1.7028    1.3772    2.3652 H   0  0  0  0  0  0  0  0  0  0  0  0
   -0.4282    2.2232    3.2632 H   0  0  0  0  0  0  0  0  0  0  0  0
   -0.7607    2.6647    1.5772 H   0  0  0  0  0  0  0  0  0  0  0  0
    0.3375   -0.2542    2.7823 O   0  0  0  0  0  0  0  0  0  0  0  0
    0.8684   -1.0030    2.4384 H   0  0  0  0  0  0  0  0  0  0  0  0
    1.1704   -0.5628   -0.1964 C   0  0  0  0  0  0  0  0  0  0  0  0
    2.1857   -0.7944    0.4504 O   0  0  0  0  0  0  0  0  0  0  0  0
    1.1273   -0.9258   -1.5309 N   0  0  0  0  0  0  0  0  0  0  0  0
    0.2245   -0.8436   -1.9880 H   0  0  0  0  0  0  0  0  0  0  0  0
    2.1407   -1.7728   -2.1481 C   0  0  0  0  0  0  0  0  0  0  0  0
    2.1861   -2.7439   -1.6438 H   0  0  0  0  0  0  0  0  0  0  0  0
    1.9020   -1.9398   -3.2026 H   0  0  0  0  0  0  0  0  0  0  0  0
    3.1259   -1.2983   -2.0894 H   0  0  0  0  0  0  0  0  0  0  0  0
  1  2  1  0  0  0  0
  2  3  1  0  0  0  0
  2  4  1  0  0  0  0
  2  5  1  0  0  0  0
  5  6  2  0  0  0  0
  5  7  1  0  0  0  0
  7  8  1  0  0  0  0
  7  9  1  0  0  0  0
  9 10  1  0  0  0  0
  9 11  1  0  0  0  0
  9 19  1  0  0  0  0
 11 12  1  0  0  0  0
 11 13  1  0  0  0  0
 11 17  1  0  0  0  0
 13 14  1  0  0  0  0
 13 15  1  0  0  0  0
 13 16  1  0  0  0  0
 17 18  1  0  0  0  0
 19 20  2  0  0  0  0
 19 21  1  0  0  0  0
 21 22  1  0  0  0  0
 21 23  1  0  0  0  0
 23 24  1  0  0  0  0
 23 25  1  0  0  0  0
 23 26  1  0  0  0  0
M  END
$$$$

  -OEChem-01062216093D

 26 25  0     1  0  0  0  0  0999 V2000
   -3.1329   -2.9433    1.6289 H   0  0  0  0  0  0  0  0  0  0  0  0
   -3.0700   -1.9591    1.1559 C   0  0  0  0  0  0  0  0  0  0  0  0
   -3.5213   -1.2209    1.8232 H   0  0  0  0  0  0  0  0  0  0  0  0
   -3.6271   -1.9838    0.2164 H   0  0  0  0  0  0  0  0  0  0  0  0
   -1.6200   -1.5995    0.8929 C   0  0  0  0  0  0  0  0  0  0  0  0
   -0.7458   -2.4111    1.1441 O   0  0  0  0  0  0  0  0  0  0  0  0
   -1.3190   -0.3864    0.2989 N   0  0  0  0  0  0  0  0  0  0  0  0
   -2.1187    0.2302    0.1969 H   0  0  0  0  0  0  0  0  0  0  0  0
    0.0069    0.2698    0.3837 C   0  0  1  0  0  0  0  0  0  0  0  0
   -0.0402    1.1546   -0.2570 H   0  0  0  0  0  0  0  0  0  0  0  0
    0.3208    0.7925    1.8097 C   0  0  1  0  0  0  0  0  0  0  0  0
    1.3058    1.2723    1.7898 H   0  0  0  0  0  0  0  0  0  0  0  0
   -0.7046    1.8254    2.2757 C   0  0  0  0  0  0  0  0  0  0  0  0
   -1.6959    1.3731    2.3710 H   0  0  0  0  0  0  0  0  0  0  0  0
   -0.4127    2.2238    3.2523 H   0  0  0  0  0  0  0  0  0  0  0  0
   -0.7611    2.6566    1.5671 H   0  0  0  0  0  0  0  0  0  0  0  0
    0.3463   -0.2586    2.7736 O   0  0  0  0  0  0  0  0  0  0  0  0
    0.8514   -1.0189    2.4118 H   0  0  0  0  0  0  0  0  0  0  0  0
    1.1669   -0.5726   -0.1989 C   0  0  0  0  0  0  0  0  0  0  0  0
    2.0786   -0.9811    0.5119 O   0  0  0  0  0  0  0  0  0  0  0  0
    1.2951   -0.6844   -1.5727 N   0  0  0  0  0  0  0  0  0  0  0  0
    0.4860   -0.4273   -2.1295 H   0  0  0  0  0  0  0  0  0  0  0  0
    2.3556   -1.4604   -2.2047 C   0  0  0  0  0  0  0  0  0  0  0  0
    2.3070   -2.5066   -1.8844 H   0  0  0  0  0  0  0  0  0  0  0  0
    2.2526   -1.4258   -3.2934 H   0  0  0  0  0  0  0  0  0  0  0  0
    3.3377   -1.0553   -1.9391 H   0  0  0  0  0  0  0  0  0  0  0  0
  1  2  1  0  0  0  0
  2  3  1  0  0  0  0
  2  4  1  0  0  0  0
  2  5  1  0  0  0  0
  5  6  2  0  0  0  0
  5  7  1  0  0  0  0
  7  8  1  0  0  0  0
  7  9  1  0  0  0  0
  9 10  1  0  0  0  0
  9 11  1  0  0  0  0
  9 19  1  0  0  0  0
 11 12  1  0  0  0  0
 11 13  1  0  0  0  0
 11 17  1  0  0  0  0
 13 14  1  0  0  0  0
 13 15  1  0  0  0  0
 13 16  1  0  0  0  0
 17 18  1  0  0  0  0
 19 20  2  0  0  0  0
 19 21  1  0  0  0  0
 21 22  1  0  0  0  0
 21 23  1  0  0  0  0
 23 24  1  0  0  0  0
 23 25  1  0  0  0  0
 23 26  1  0  0  0  0
M  END
$$$$

  -OEChem-01062216093D

 26 25  0     1  0  0  0  0  0999 V2000
   -3.1635   -2.9383    1.6539 H   0  0  0  0  0  0  0  0  0  0  0  0
   -3.0930   -1.9636    1.1625 C   0  0  0  0  0  0  0  0  0  0  0  0
   -3.5549   -1.2125    1.8079 H   0  0  0  0  0  0  0  0  0  0  0  0
   -3.6349   -2.0074    0.2149 H   0  0  0  0  0  0  0  0  0  0  0  0
   -1.6385   -1.6098    0.9154 C   0  0  0  0  0  0  0  0  0  0  0  0
   -0.7721   -2.4188    1.1964 O   0  0  0  0  0  0  0  0  0  0  0  0
   -1.3284   -0.4046    0.3096 N   0  0  0  0  0  0  0  0  0  0  0  0
   -2.1271    0.2078    0.1800 H   0  0  0  0  0  0  0  0  0  0  0  0
   -0.0010    0.2522    0.3734 C   0  0  1  0  0  0  0  0  0  0  0  0
   -0.0598    1.1340   -0.2703 H   0  0  0  0  0  0  0  0  0  0  0  0
    0.3291    0.7842    1.7915 C   0  0  1  0  0  0  0  0  0  0  0  0
    1.3160    1.2591    1.7560 H   0  0  0  0  0  0  0  0  0  0  0  0
   -0.6867    1.8235    2.2646 C   0  0  0  0  0  0  0  0  0  0  0  0
   -1.6786    1.3756    2.3737 H   0  0  0  0  0  0  0  0  0  0  0  0
   -0.3814    2.2244    3.2360 H   0  0  0  0  0  0  0  0  0  0  0  0
   -0.7490    2.6522    1.5535 H   0  0  0  0  0  0  0  0  0  0  0  0
    0.3650   -0.2614    2.7604 O   0  0  0  0  0  0  0  0  0  0  0  0
    0.8215   -1.0431    2.3765 H   0  0  0  0  0  0  0  0  0  0  0  0
    1.1655   -0.5841   -0.2074 C   0  0  0  0  0  0  0  0  0  0  0  0
    1.9641   -1.1590    0.5239 O   0  0  0  0  0  0  0  0  0  0  0  0
    1.4813   -0.4609   -1.5503 N   0  0  0  0  0  0  0  0  0  0  0  0
    0.7910   -0.0221   -2.1514 H   0  0  0  0  0  0  0  0  0  0  0  0
    2.6015   -1.1598   -2.1701 C   0  0  0  0  0  0  0  0  0  0  0  0
    2.4895   -2.2429   -2.0523 H   0  0  0  0  0  0  0  0  0  0  0  0
    2.6459   -0.9301   -3.2390 H   0  0  0  0  0  0  0  0  0  0  0  0
    3.5471   -0.8516   -1.7120 H   0  0  0  0  0  0  0  0  0  0  0  0
  1  2  1  0  0  0  0
  2  3  1  0  0  0  0
  2  4  1  0  0  0  0
  2  5  1  0  0  0  0
  5  6  2  0  0  0  0
  5  7  1  0  0  0  0
  7  8  1  0  0  0  0
  7  9  1  0  0  0  0
  9 10  1  0  0  0  0
  9 11  1  0  0  0  0
  9 19  1  0  0  0  0
 11 12  1  0  0  0  0
 11 13  1  0  0  0  0
 11 17  1  0  0  0  0
 13 14  1  0  0  0  0
 13 15  1  0  0  0  0
 13 16  1  0  0  0  0
 17 18  1  0  0  0  0
 19 20  2  0  0  0  0
 19 21  1  0  0  0  0
 21 22  1  0  0  0  0
 21 23  1  0  0  0  0
 23 24  1  0  0  0  0
 23 25  1  0  0  0  0
 23 26  1  0  0  0  0
M  END
$$$$

  -OEChem-01062216093D

 26 25  0     1  0  0  0  0  0999 V2000
   -3.2079   -2.9605    1.6213 H   0  0  0  0  0  0  0  0  0  0  0  0
   -3.1202   -1.9781    1.1485 C   0  0  0  0  0  0  0  0  0  0  0  0
   -3.6056   -1.2372    1.7881 H   0  0  0  0  0  0  0  0  0  0  0  0
   -3.6273   -2.0071    0.1814 H   0  0  0  0  0  0  0  0  0  0  0  0
   -1.6580   -1.6196    0.9596 C   0  0  0  0  0  0  0  0  0  0  0  0
   -0.8033   -2.4087    1.3185 O   0  0  0  0  0  0  0  0  0  0  0  0
   -1.3342   -0.4258    0.3387 N   0  0  0  0  0  0  0  0  0  0  0  0
   -2.1321    0.1710    0.1471 H   0  0  0  0  0  0  0  0  0  0  0  0
   -0.0059    0.2329    0.3672 C   0  0  1  0  0  0  0  0  0  0  0  0
   -0.0871    1.1082   -0.2824 H   0  0  0  0  0  0  0  0  0  0  0  0
    0.3537    0.7800    1.7713 C   0  0  1  0  0  0  0  0  0  0  0  0
    1.3408    1.2519    1.7086 H   0  0  0  0  0  0  0  0  0  0  0  0
   -0.6497    1.8267    2.2541 C   0  0  0  0  0  0  0  0  0  0  0  0
   -1.6409    1.3828    2.3844 H   0  0  0  0  0  0  0  0  0  0  0  0
   -0.3256    2.2345    3.2165 H   0  0  0  0  0  0  0  0  0  0  0  0
   -0.7225    2.6497    1.5374 H   0  0  0  0  0  0  0  0  0  0  0  0
    0.4114   -0.2534    2.7521 O   0  0  0  0  0  0  0  0  0  0  0  0
    0.7629   -1.0764    2.3413 H   0  0  0  0  0  0  0  0  0  0  0  0
    1.1672   -0.5923   -0.2181 C   0  0  0  0  0  0  0  0  0  0  0  0
    1.8406   -1.3359    0.4848 O   0  0  0  0  0  0  0  0  0  0  0  0
    1.6680   -0.2607   -1.4668 N   0  0  0  0  0  0  0  0  0  0  0  0
    1.1115    0.3582   -2.0477 H   0  0  0  0  0  0  0  0  0  0  0  0
    2.8481   -0.8912   -2.0483 C   0  0  0  0  0  0  0  0  0  0  0  0
    2.7015   -1.9730   -2.1350 H   0  0  0  0  0  0  0  0  0  0  0  0
    3.0395   -0.4870   -3.0469 H   0  0  0  0  0  0  0  0  0  0  0  0
    3.7295   -0.7037   -1.4259 H   0  0  0  0  0  0  0  0  0  0  0  0
  1  2  1  0  0  0  0
  2  3  1  0  0  0  0
  2  4  1  0  0  0  0
  2  5  1  0  0  0  0
  5  6  2  0  0  0  0
  5  7  1  0  0  0  0
  7  8  1  0  0  0  0
  7  9  1  0  0  0  0
  9 10  1  0  0  0  0
  9 11  1  0  0  0  0
  9 19  1  0  0  0  0
 11 12  1  0  0  0  0
 11 13  1  0  0  0  0
 11 17  1  0  0  0  0
 13 14  1  0  0  0  0
 13 15  1  0  0  0  0
 13 16  1  0  0  0  0
 17 18  1  0  0  0  0
 19 20  2  0  0  0  0
 19 21  1  0  0  0  0
 21 22  1  0  0  0  0
 21 23  1  0  0  0  0
 23 24  1  0  0  0  0
 23 25  1  0  0  0  0
 23 26  1  0  0  0  0
M  END
$$$$

  -OEChem-01062216093D

 26 25  0     1  0  0  0  0  0999 V2000
   -2.9631   -3.1983    1.3579 H   0  0  0  0  0  0  0  0  0  0  0  0
   -2.8858   -2.2683    0.7870 C   0  0  0  0  0  0  0  0  0  0  0  0
   -3.7747   -1.6627    0.9787 H   0  0  0  0  0  0  0  0  0  0  0  0
   -2.8404   -2.5150   -0.2765 H   0  0  0  0  0  0  0  0  0  0  0  0
   -1.6389   -1.5075    1.1974 C   0  0  0  0  0  0  0  0  0  0  0  0
   -1.0045   -1.8888    2.1653 O   0  0  0  0  0  0  0  0  0  0  0  0
   -1.3232   -0.3290    0.5434 N   0  0  0  0  0  0  0  0  0  0  0  0
   -1.9497   -0.1153   -0.2259 H   0  0  0  0  0  0  0  0  0  0  0  0
    0.0064    0.3368    0.4994 C   0  0  1  0  0  0  0  0  0  0  0  0
   -0.1174    1.1925   -0.1695 H   0  0  0  0  0  0  0  0  0  0  0  0
    0.5151    0.9266    1.8390 C   0  0  1  0  0  0  0  0  0  0  0  0
    1.4787    1.4178    1.6652 H   0  0  0  0  0  0  0  0  0  0  0  0
   -0.4654    1.9707    2.3725 C   0  0  0  0  0  0  0  0  0  0  0  0
   -1.4316    1.5121    2.6037 H   0  0  0  0  0  0  0  0  0  0  0  0
   -0.0685    2.4204    3.2879 H   0  0  0  0  0  0  0  0  0  0  0  0
   -0.6200    2.7652    1.6369 H   0  0  0  0  0  0  0  0  0  0  0  0
    0.6855   -0.0436    2.8667 O   0  0  0  0  0  0  0  0  0  0  0  0
    0.0827   -0.8175    2.7090 H   0  0  0  0  0  0  0  0  0  0  0  0
    1.1236   -0.5308   -0.1304 C   0  0  0  0  0  0  0  0  0  0  0  0
    1.3060   -1.6970    0.1881 O   0  0  0  0  0  0  0  0  0  0  0  0
    1.7807   -0.0640   -1.2580 N   0  0  0  0  0  0  0  0  0  0  0  0
    1.6386    0.9059   -1.5217 H   0  0  0  0  0  0  0  0  0  0  0  0
    2.7852   -0.8415   -1.9758 C   0  0  0  0  0  0  0  0  0  0  0  0
    2.3542   -1.7781   -2.3455 H   0  0  0  0  0  0  0  0  0  0  0  0
    3.1616   -0.2743   -2.8325 H   0  0  0  0  0  0  0  0  0  0  0  0
    3.6289   -1.0775   -1.3185 H   0  0  0  0  0  0  0  0  0  0  0  0
  1  2  1  0  0  0  0
  2  3  1  0  0  0  0
  2  4  1  0  0  0  0
  2  5  1  0  0  0  0
  5  6  2  0  0  0  0
  5  7  1  0  0  0  0
  7  8  1  0  0  0  0
  7  9  1  0  0  0  0
  9 10  1  0  0  0  0
  9 11  1  0  0  0  0
  9 19  1  0  0  0  0
 11 12  1  0  0  0  0
 11 13  1  0  0  0  0
 11 17  1  0  0  0  0
 13 14  1  0  0  0  0
 13 15  1  0  0  0  0
 13 16  1  0  0  0  0
 17 18  1  0  0  0  0
 19 20  2  0  0  0  0
 19 21  1  0  0  0  0
 21 22  1  0  0  0  0
 21 23  1  0  0  0  0
 23 24  1  0  0  0  0
 23 25  1  0  0  0  0
 23 26  1  0  0  0  0
M  END
$$$$

  -OEChem-01062216093D

 26 25  0     1  0  0  0  0  0999 V2000
   -3.2215   -3.1544    1.2179 H   0  0  0  0  0  0  0  0  0  0  0  0
   -3.0658   -2.1929    0.7200 C   0  0  0  0  0  0  0  0  0  0  0  0
   -3.8535   -1.5034    1.0323 H   0  0  0  0  0  0  0  0  0  0  0  0
   -3.1270   -2.3459   -0.3601 H   0  0  0  0  0  0  0  0  0  0  0  0
   -1.7053   -1.6284    1.0876 C   0  0  0  0  0  0  0  0  0  0  0  0
   -1.0322   -2.2427    1.8931 O   0  0  0  0  0  0  0  0  0  0  0  0
   -1.3299   -0.4224    0.5156 N   0  0  0  0  0  0  0  0  0  0  0  0
   -1.9908   -0.0694   -0.1666 H   0  0  0  0  0  0  0  0  0  0  0  0
    0.0183    0.2015    0.5165 C   0  0  1  0  0  0  0  0  0  0  0  0
   -0.0955    1.0668   -0.1412 H   0  0  0  0  0  0  0  0  0  0  0  0
    0.5143    0.7928    1.8624 C   0  0  1  0  0  0  0  0  0  0  0  0
    1.4986    1.2448    1.6990 H   0  0  0  0  0  0  0  0  0  0  0  0
   -0.4418    1.8796    2.3548 C   0  0  0  0  0  0  0  0  0  0  0  0
   -1.4278    1.4547    2.5680 H   0  0  0  0  0  0  0  0  0  0  0  0
   -0.0555    2.3377    3.2702 H   0  0  0  0  0  0  0  0  0  0  0  0
   -0.5546    2.6637    1.6004 H   0  0  0  0  0  0  0  0  0  0  0  0
    0.6269   -0.1634    2.9090 O   0  0  0  0  0  0  0  0  0  0  0  0
    0.8943    0.2442    3.7474 H   0  0  0  0  0  0  0  0  0  0  0  0
    1.1415   -0.6296   -0.1536 C   0  0  0  0  0  0  0  0  0  0  0  0
    1.1188   -1.8505   -0.2252 O   0  0  0  0  0  0  0  0  0  0  0  0
    2.0152    0.0231   -1.0115 N   0  0  0  0  0  0  0  0  0  0  0  0
    2.0200    1.0377   -0.9983 H   0  0  0  0  0  0  0  0  0  0  0  0
    3.0122   -0.6688   -1.8219 C   0  0  0  0  0  0  0  0  0  0  0  0
    2.5256   -1.3328   -2.5442 H   0  0  0  0  0  0  0  0  0  0  0  0
    3.6202    0.0548   -2.3733 H   0  0  0  0  0  0  0  0  0  0  0  0
    3.6759   -1.2652   -1.1867 H   0  0  0  0  0  0  0  0  0  0  0  0
  1  2  1  0  0  0  0
  2  3  1  0  0  0  0
  2  4  1  0  0  0  0
  2  5  1  0  0  0  0
  5  6  2  0  0  0  0
  5  7  1  0  0  0  0
  7  8  1  0  0  0  0
  7  9  1  0  0  0  0
  9 10  1  0  0  0  0
  9 11  1  0  0  0  0
  9 19  1  0  0  0  0
 11 12  1  0  0  0  0
 11 13  1  0  0  0  0
 11 17  1  0  0  0  0
 13 14  1  0  0  0  0
 13 15  1  0  0  0  0
 13 16  1  0  0  0  0
 17 18  1  0  0  0  0
 19 20  2  0  0  0  0
 19 21  1  0  0  0  0
 21 22  1  0  0  0  0
 21 23  1  0  0  0  0
 23 24  1  0  0  0  0
 23 25  1  0  0  0  0
 23 26  1  0  0  0  0
M  END
$$$$

  -OEChem-01062216093D

 26 25  0     1  0  0  0  0  0999 V2000
   -3.2140   -3.1390    1.2456 H   0  0  0  0  0  0  0  0  0  0  0  0
   -3.0609   -2.1839    0.7350 C   0  0  0  0  0  0  0  0  0  0  0  0
   -3.8420   -1.4878    1.0493 H   0  0  0  0  0  0  0  0  0  0  0  0
   -3.1352   -2.3472   -0.3427 H   0  0  0  0  0  0  0  0  0  0  0  0
   -1.6938   -1.6214    1.0787 C   0  0  0  0  0  0  0  0  0  0  0  0
   -0.9925   -2.2485    1.8510 O   0  0  0  0  0  0  0  0  0  0  0  0
   -1.3272   -0.4130    0.5071 N   0  0  0  0  0  0  0  0  0  0  0  0
   -1.9858   -0.0628   -0.1789 H   0  0  0  0  0  0  0  0  0  0  0  0
    0.0207    0.2098    0.5155 C   0  0  1  0  0  0  0  0  0  0  0  0
   -0.0811    1.0755   -0.1439 H   0  0  0  0  0  0  0  0  0  0  0  0
    0.5076    0.7950    1.8683 C   0  0  1  0  0  0  0  0  0  0  0  0
    1.4910    1.2525    1.7168 H   0  0  0  0  0  0  0  0  0  0  0  0
   -0.4564    1.8751    2.3598 C   0  0  0  0  0  0  0  0  0  0  0  0
   -1.4396    1.4433    2.5723 H   0  0  0  0  0  0  0  0  0  0  0  0
   -0.0742    2.3357    3.2755 H   0  0  0  0  0  0  0  0  0  0  0  0
   -0.5745    2.6583    1.6051 H   0  0  0  0  0  0  0  0  0  0  0  0
    0.6142   -0.1652    2.9118 O   0  0  0  0  0  0  0  0  0  0  0  0
    0.8461    0.2442    3.7601 H   0  0  0  0  0  0  0  0  0  0  0  0
    1.1369   -0.6312   -0.1534 C   0  0  0  0  0  0  0  0  0  0  0  0
    0.9562   -1.7886   -0.5116 O   0  0  0  0  0  0  0  0  0  0  0  0
    2.1970    0.0381   -0.7480 N   0  0  0  0  0  0  0  0  0  0  0  0
    2.3455    1.0066   -0.4846 H   0  0  0  0  0  0  0  0  0  0  0  0
    3.2179   -0.6283   -1.5498 C   0  0  0  0  0  0  0  0  0  0  0  0
    2.7700   -1.0907   -2.4358 H   0  0  0  0  0  0  0  0  0  0  0  0
    3.9693    0.0947   -1.8815 H   0  0  0  0  0  0  0  0  0  0  0  0
    3.7200   -1.4046   -0.9625 H   0  0  0  0  0  0  0  0  0  0  0  0
  1  2  1  0  0  0  0
  2  3  1  0  0  0  0
  2  4  1  0  0  0  0
  2  5  1  0  0  0  0
  5  6  2  0  0  0  0
  5  7  1  0  0  0  0
  7  8  1  0  0  0  0
  7  9  1  0  0  0  0
  9 10  1  0  0  0  0
  9 11  1  0  0  0  0
  9 19  1  0  0  0  0
 11 12  1  0  0  0  0
 11 13  1  0  0  0  0
 11 17  1  0  0  0  0
 13 14  1  0  0  0  0
 13 15  1  0  0  0  0
 13 16  1  0  0  0  0
 17 18  1  0  0  0  0
 19 20  2  0  0  0  0
 19 21  1  0  0  0  0
 21 22  1  0  0  0  0
 21 23  1  0  0  0  0
 23 24  1  0  0  0  0
 23 25  1  0  0  0  0
 23 26  1  0  0  0  0
M  END
$$$$

  -OEChem-01062216093D

 26 25  0     1  0  0  0  0  0999 V2000
   -3.1861   -3.1339    1.2638 H   0  0  0  0  0  0  0  0  0  0  0  0
   -3.0474   -2.1752    0.7557 C   0  0  0  0  0  0  0  0  0  0  0  0
   -3.8162   -1.4800    1.1003 H   0  0  0  0  0  0  0  0  0  0  0  0
   -3.1574   -2.3307   -0.3202 H   0  0  0  0  0  0  0  0  0  0  0  0
   -1.6688   -1.6174    1.0592 C   0  0  0  0  0  0  0  0  0  0  0  0
   -0.9279   -2.2670    1.7746 O   0  0  0  0  0  0  0  0  0  0  0  0
   -1.3184   -0.4011    0.4957 N   0  0  0  0  0  0  0  0  0  0  0  0
   -1.9853   -0.0425   -0.1779 H   0  0  0  0  0  0  0  0  0  0  0  0
    0.0249    0.2302    0.5140 C   0  0  1  0  0  0  0  0  0  0  0  0
   -0.0677    1.0993   -0.1425 H   0  0  0  0  0  0  0  0  0  0  0  0
    0.4916    0.8077    1.8789 C   0  0  1  0  0  0  0  0  0  0  0  0
    1.4706    1.2798    1.7463 H   0  0  0  0  0  0  0  0  0  0  0  0
   -0.4906    1.8728    2.3678 C   0  0  0  0  0  0  0  0  0  0  0  0
   -1.4725    1.4297    2.5627 H   0  0  0  0  0  0  0  0  0  0  0  0
   -0.1260    2.3297    3.2926 H   0  0  0  0  0  0  0  0  0  0  0  0
   -0.6057    2.6613    1.6183 H   0  0  0  0  0  0  0  0  0  0  0  0
    0.5943   -0.1613    2.9149 O   0  0  0  0  0  0  0  0  0  0  0  0
    0.7942    0.2450    3.7730 H   0  0  0  0  0  0  0  0  0  0  0  0
    1.1332   -0.6162   -0.1618 C   0  0  0  0  0  0  0  0  0  0  0  0
    0.8633   -1.6502   -0.7633 O   0  0  0  0  0  0  0  0  0  0  0  0
    2.3412   -0.0132   -0.4807 N   0  0  0  0  0  0  0  0  0  0  0  0
    2.5792    0.8380    0.0174 H   0  0  0  0  0  0  0  0  0  0  0  0
    3.3858   -0.6788   -1.2520 C   0  0  0  0  0  0  0  0  0  0  0  0
    3.0260   -0.9211   -2.2576 H   0  0  0  0  0  0  0  0  0  0  0  0
    4.2592   -0.0266   -1.3475 H   0  0  0  0  0  0  0  0  0  0  0  0
    3.6968   -1.6045   -0.7563 H   0  0  0  0  0  0  0  0  0  0  0  0
  1  2  1  0  0  0  0
  2  3  1  0  0  0  0
  2  4  1  0  0  0  0
  2  5  1  0  0  0  0
  5  6  2  0  0  0  0
  5  7  1  0  0  0  0
  7  8  1  0  0  0  0
  7  9  1  0  0  0  0
  9 10  1  0  0  0  0
  9 11  1  0  0  0  0
  9 19  1  0  0  0  0
 11 12  1  0  0  0  0
 11 13  1  0  0  0  0
 11 17  1  0  0  0  0
 13 14  1  0  0  0  0
 13 15  1  0  0  0  0
 13 16  1  0  0  0  0
 17 18  1  0  0  0  0
 19 20  2  0  0  0  0
 19 21  1  0  0  0  0
 21 22  1  0  0  0  0
 21 23  1  0  0  0  0
 23 24  1  0  0  0  0
 23 25  1  0  0  0  0
 23 26  1  0  0  0  0
M  END
$$$$

  -OEChem-01062216093D

 26 25  0     1  0  0  0  0  0999 V2000
   -3.2084   -3.1388    1.1783 H   0  0  0  0  0  0  0  0  0  0  0  0
   -3.0499   -2.1675    0.7009 C   0  0  0  0  0  0  0  0  0  0  0  0
   -3.7941   -1.4639    1.0812 H   0  0  0  0  0  0  0  0  0  0  0  0
   -3.1807   -2.2819   -0.3780 H   0  0  0  0  0  0  0  0  0  0  0  0
   -1.6515   -1.6585    1.0002 C   0  0  0  0  0  0  0  0  0  0  0  0
   -0.9062   -2.3761    1.6395 O   0  0  0  0  0  0  0  0  0  0  0  0
   -1.2882   -0.4271    0.4828 N   0  0  0  0  0  0  0  0  0  0  0  0
   -1.9531   -0.0539   -0.1861 H   0  0  0  0  0  0  0  0  0  0  0  0
    0.0384    0.2424    0.5222 C   0  0  1  0  0  0  0  0  0  0  0  0
   -0.1385    1.2381    0.1075 H   0  0  0  0  0  0  0  0  0  0  0  0
    0.7014    0.5119    1.9046 C   0  0  1  0  0  0  0  0  0  0  0  0
    1.6337    1.0651    1.7546 H   0  0  0  0  0  0  0  0  0  0  0  0
   -0.2272    1.3755    2.7589 C   0  0  0  0  0  0  0  0  0  0  0  0
   -1.1554    0.8387    2.9793 H   0  0  0  0  0  0  0  0  0  0  0  0
    0.2582    1.6350    3.7044 H   0  0  0  0  0  0  0  0  0  0  0  0
   -0.4769    2.3039    2.2368 H   0  0  0  0  0  0  0  0  0  0  0  0
    0.9815   -0.6507    2.6718 O   0  0  0  0  0  0  0  0  0  0  0  0
    1.1448   -0.4386    3.6045 H   0  0  0  0  0  0  0  0  0  0  0  0
    1.0276   -0.4035   -0.4792 C   0  0  0  0  0  0  0  0  0  0  0  0
    0.6078   -1.1184   -1.3845 O   0  0  0  0  0  0  0  0  0  0  0  0
    2.3240    0.0741   -0.5949 N   0  0  0  0  0  0  0  0  0  0  0  0
    2.6916    0.5811    0.2037 H   0  0  0  0  0  0  0  0  0  0  0  0
    3.2740   -0.4487   -1.5704 C   0  0  0  0  0  0  0  0  0  0  0  0
    2.9106   -0.2809   -2.5897 H   0  0  0  0  0  0  0  0  0  0  0  0
    4.2401    0.0537   -1.4632 H   0  0  0  0  0  0  0  0  0  0  0  0
    3.4233   -1.5234   -1.4215 H   0  0  0  0  0  0  0  0  0  0  0  0
  1  2  1  0  0  0  0
  2  3  1  0  0  0  0
  2  4  1  0  0  0  0
  2  5  1  0  0  0  0
  5  6  2  0  0  0  0
  5  7  1  0  0  0  0
  7  8  1  0  0  0  0
  7  9  1  0  0  0  0
  9 10  1  0  0  0  0
  9 11  1  0  0  0  0
  9 19  1  0  0  0  0
 11 12  1  0  0  0  0
 11 13  1  0  0  0  0
 11 17  1  0  0  0  0
 13 14  1  0  0  0  0
 13 15  1  0  0  0  0
 13 16  1  0  0  0  0
 17 18  1  0  0  0  0
 19 20  2  0  0  0  0
 19 21  1  0  0  0  0
 21 22  1  0  0  0  0
 21 23  1  0  0  0  0
 23 24  1  0  0  0  0
 23 25  1  0  0  0  0
 23 26  1  0  0  0  0
M  END
$$$$

  -OEChem-01062216093D

 26 25  0     1  0  0  0  0  0999 V2000
   -3.1848   -3.1320    1.2033 H   0  0  0  0  0  0  0  0  0  0  0  0
   -3.0372   -2.1586    0.7267 C   0  0  0  0  0  0  0  0  0  0  0  0
   -3.7586   -1.4510    1.1420 H   0  0  0  0  0  0  0  0  0  0  0  0
   -3.2126   -2.2636   -0.3467 H   0  0  0  0  0  0  0  0  0  0  0  0
   -1.6237   -1.6639    0.9730 C   0  0  0  0  0  0  0  0  0  0  0  0
   -0.8441   -2.4050    1.5416 O   0  0  0  0  0  0  0  0  0  0  0  0
   -1.2702   -0.4263    0.4663 N   0  0  0  0  0  0  0  0  0  0  0  0
   -1.9539   -0.0228   -0.1653 H   0  0  0  0  0  0  0  0  0  0  0  0
    0.0498    0.2509    0.5262 C   0  0  1  0  0  0  0  0  0  0  0  0
   -0.1229    1.2468    0.1096 H   0  0  0  0  0  0  0  0  0  0  0  0
    0.6838    0.5255    1.9209 C   0  0  1  0  0  0  0  0  0  0  0  0
    1.6134    1.0885    1.7887 H   0  0  0  0  0  0  0  0  0  0  0  0
   -0.2686    1.3809    2.7569 C   0  0  0  0  0  0  0  0  0  0  0  0
   -1.1986    0.8386    2.9558 H   0  0  0  0  0  0  0  0  0  0  0  0
    0.1944    1.6414    3.7134 H   0  0  0  0  0  0  0  0  0  0  0  0
   -0.5117    2.3089    2.2311 H   0  0  0  0  0  0  0  0  0  0  0  0
    0.9557   -0.6361    2.6938 O   0  0  0  0  0  0  0  0  0  0  0  0
    1.0976   -0.4213    3.6298 H   0  0  0  0  0  0  0  0  0  0  0  0
    1.0431   -0.3923   -0.4713 C   0  0  0  0  0  0  0  0  0  0  0  0
    0.6159   -0.8876   -1.5103 O   0  0  0  0  0  0  0  0  0  0  0  0
    2.4044   -0.1500   -0.3836 N   0  0  0  0  0  0  0  0  0  0  0  0
    2.7461    0.0989    0.5401 H   0  0  0  0  0  0  0  0  0  0  0  0
    3.3625   -0.6949   -1.3385 C   0  0  0  0  0  0  0  0  0  0  0  0
    3.1417   -0.3403   -2.3509 H   0  0  0  0  0  0  0  0  0  0  0  0
    4.3765   -0.3769   -1.0780 H   0  0  0  0  0  0  0  0  0  0  0  0
    3.3286   -1.7895   -1.3331 H   0  0  0  0  0  0  0  0  0  0  0  0
  1  2  1  0  0  0  0
  2  3  1  0  0  0  0
  2  4  1  0  0  0  0
  2  5  1  0  0  0  0
  5  6  2  0  0  0  0
  5  7  1  0  0  0  0
  7  8  1  0  0  0  0
  7  9  1  0  0  0  0
  9 10  1  0  0  0  0
  9 11  1  0  0  0  0
  9 19  1  0  0  0  0
 11 12  1  0  0  0  0
 11 13  1  0  0  0  0
 11 17  1  0  0  0  0
 13 14  1  0  0  0  0
 13 15  1  0  0  0  0
 13 16  1  0  0  0  0
 17 18  1  0  0  0  0
 19 20  2  0  0  0  0
 19 21  1  0  0  0  0
 21 22  1  0  0  0  0
 21 23  1  0  0  0  0
 23 24  1  0  0  0  0
 23 25  1  0  0  0  0
 23 26  1  0  0  0  0
M  END
$$$$

  -OEChem-01062216093D

 26 25  0     1  0  0  0  0  0999 V2000
   -3.1657   -3.1229    1.2288 H   0  0  0  0  0  0  0  0  0  0  0  0
   -3.0277   -2.1508    0.7467 C   0  0  0  0  0  0  0  0  0  0  0  0
   -3.7302   -1.4388    1.1859 H   0  0  0  0  0  0  0  0  0  0  0  0
   -3.2400   -2.2541   -0.3203 H   0  0  0  0  0  0  0  0  0  0  0  0
   -1.6035   -1.6656    0.9456 C   0  0  0  0  0  0  0  0  0  0  0  0
   -0.7995   -2.4206    1.4600 O   0  0  0  0  0  0  0  0  0  0  0  0
   -1.2586   -0.4237    0.4450 N   0  0  0  0  0  0  0  0  0  0  0  0
   -1.9615    0.0081   -0.1454 H   0  0  0  0  0  0  0  0  0  0  0  0
    0.0547    0.2611    0.5241 C   0  0  1  0  0  0  0  0  0  0  0  0
   -0.1160    1.2574    0.1072 H   0  0  0  0  0  0  0  0  0  0  0  0
    0.6713    0.5359    1.9261 C   0  0  1  0  0  0  0  0  0  0  0  0
    1.6000    1.1032    1.8025 H   0  0  0  0  0  0  0  0  0  0  0  0
   -0.2935    1.3847    2.7548 C   0  0  0  0  0  0  0  0  0  0  0  0
   -1.2235    0.8383    2.9406 H   0  0  0  0  0  0  0  0  0  0  0  0
    0.1573    1.6426    3.7179 H   0  0  0  0  0  0  0  0  0  0  0  0
   -0.5342    2.3143    2.2303 H   0  0  0  0  0  0  0  0  0  0  0  0
    0.9412   -0.6286    2.6971 O   0  0  0  0  0  0  0  0  0  0  0  0
    1.0874   -0.4135    3.6327 H   0  0  0  0  0  0  0  0  0  0  0  0
    1.0542   -0.3807   -0.4647 C   0  0  0  0  0  0  0  0  0  0  0  0
    0.6713   -0.6650   -1.5958 O   0  0  0  0  0  0  0  0  0  0  0  0
    2.4135   -0.4004   -0.2027 N   0  0  0  0  0  0  0  0  0  0  0  0
    2.6548   -0.3782    0.7856 H   0  0  0  0  0  0  0  0  0  0  0  0
    3.3784   -0.9902   -1.1226 C   0  0  0  0  0  0  0  0  0  0  0  0
    3.3363   -0.4915   -2.0967 H   0  0  0  0  0  0  0  0  0  0  0  0
    4.3922   -0.8812   -0.7256 H   0  0  0  0  0  0  0  0  0  0  0  0
    3.1712   -2.0563   -1.2624 H   0  0  0  0  0  0  0  0  0  0  0  0
  1  2  1  0  0  0  0
  2  3  1  0  0  0  0
  2  4  1  0  0  0  0
  2  5  1  0  0  0  0
  5  6  2  0  0  0  0
  5  7  1  0  0  0  0
  7  8  1  0  0  0  0
  7  9  1  0  0  0  0
  9 10  1  0  0  0  0
  9 11  1  0  0  0  0
  9 19  1  0  0  0  0
 11 12  1  0  0  0  0
 11 13  1  0  0  0  0
 11 17  1  0  0  0  0
 13 14  1  0  0  0  0
 13 15  1  0  0  0  0
 13 16  1  0  0  0  0
 17 18  1  0  0  0  0
 19 20  2  0  0  0  0
 19 21  1  0  0  0  0
 21 22  1  0  0  0  0
 21 23  1  0  0  0  0
 23 24  1  0  0  0  0
 23 25  1  0  0  0  0
 23 26  1  0  0  0  0
M  END
$$$$

  -OEChem-01062216093D

 26 25  0     1  0  0  0  0  0999 V2000
   -3.1444   -3.1177    1.2520 H   0  0  0  0  0  0  0  0  0  0  0  0
   -3.0213   -2.1410    0.7753 C   0  0  0  0  0  0  0  0  0  0  0  0
   -3.6974   -1.4291    1.2545 H   0  0  0  0  0  0  0  0  0  0  0  0
   -3.2831   -2.2301   -0.2819 H   0  0  0  0  0  0  0  0  0  0  0  0
   -1.5855   -1.6692    0.9132 C   0  0  0  0  0  0  0  0  0  0  0  0
   -0.7569   -2.4412    1.3601 O   0  0  0  0  0  0  0  0  0  0  0  0
   -1.2496   -0.4239    0.4163 N   0  0  0  0  0  0  0  0  0  0  0  0
   -1.9837    0.0516   -0.0979 H   0  0  0  0  0  0  0  0  0  0  0  0
    0.0588    0.2654    0.5133 C   0  0  1  0  0  0  0  0  0  0  0  0
   -0.1101    1.2624    0.0972 H   0  0  0  0  0  0  0  0  0  0  0  0
    0.6572    0.5363    1.9235 C   0  0  1  0  0  0  0  0  0  0  0  0
    1.5894    1.1001    1.8069 H   0  0  0  0  0  0  0  0  0  0  0  0
   -0.3131    1.3855    2.7448 C   0  0  0  0  0  0  0  0  0  0  0  0
   -1.2497    0.8449    2.9141 H   0  0  0  0  0  0  0  0  0  0  0  0
    0.1266    1.6331    3.7155 H   0  0  0  0  0  0  0  0  0  0  0  0
   -0.5391    2.3205    2.2234 H   0  0  0  0  0  0  0  0  0  0  0  0
    0.9214   -0.6328    2.6921 O   0  0  0  0  0  0  0  0  0  0  0  0
    1.0968   -0.4154    3.6225 H   0  0  0  0  0  0  0  0  0  0  0  0
    1.0701   -0.3706   -0.4630 C   0  0  0  0  0  0  0  0  0  0  0  0
    0.7766   -0.4550   -1.6514 O   0  0  0  0  0  0  0  0  0  0  0  0
    2.3617   -0.6635   -0.0641 N   0  0  0  0  0  0  0  0  0  0  0  0
    2.4639   -0.8056    0.9402 H   0  0  0  0  0  0  0  0  0  0  0  0
    3.3222   -1.3140   -0.9456 C   0  0  0  0  0  0  0  0  0  0  0  0
    3.5000   -0.7043   -1.8376 H   0  0  0  0  0  0  0  0  0  0  0  0
    4.2761   -1.4507   -0.4276 H   0  0  0  0  0  0  0  0  0  0  0  0
    2.9508   -2.2960   -1.2572 H   0  0  0  0  0  0  0  0  0  0  0  0
  1  2  1  0  0  0  0
  2  3  1  0  0  0  0
  2  4  1  0  0  0  0
  2  5  1  0  0  0  0
  5  6  2  0  0  0  0
  5  7  1  0  0  0  0
  7  8  1  0  0  0  0
  7  9  1  0  0  0  0
  9 10  1  0  0  0  0
  9 11  1  0  0  0  0
  9 19  1  0  0  0  0
 11 12  1  0  0  0  0
 11 13  1  0  0  0  0
 11 17  1  0  0  0  0
 13 14  1  0  0  0  0
 13 15  1  0  0  0  0
 13 16  1  0  0  0  0
 17 18  1  0  0  0  0
 19 20  2  0  0  0  0
 19 21  1  0  0  0  0
 21 22  1  0  0  0  0
 21 23  1  0  0  0  0
 23 24  1  0  0  0  0
 23 25  1  0  0  0  0
 23 26  1  0  0  0  0
M  END
$$$$

  -OEChem-01062216093D

 26 25  0     1  0  0  0  0  0999 V2000
   -3.1209   -3.1015    1.2849 H   0  0  0  0  0  0  0  0  0  0  0  0
   -3.0159   -2.1156    0.8232 C   0  0  0  0  0  0  0  0  0  0  0  0
   -3.6410   -1.4046    1.3684 H   0  0  0  0  0  0  0  0  0  0  0  0
   -3.3576   -2.1741   -0.2131 H   0  0  0  0  0  0  0  0  0  0  0  0
   -1.5655   -1.6716    0.8648 C   0  0  0  0  0  0  0  0  0  0  0  0
   -0.7156   -2.4685    1.2209 O   0  0  0  0  0  0  0  0  0  0  0  0
   -1.2372   -0.4230    0.3718 N   0  0  0  0  0  0  0  0  0  0  0  0
   -2.0037    0.1058   -0.0307 H   0  0  0  0  0  0  0  0  0  0  0  0
    0.0688    0.2642    0.4930 C   0  0  1  0  0  0  0  0  0  0  0  0
   -0.0922    1.2642    0.0801 H   0  0  0  0  0  0  0  0  0  0  0  0
    0.6341    0.5223    1.9184 C   0  0  1  0  0  0  0  0  0  0  0  0
    1.5745    1.0764    1.8205 H   0  0  0  0  0  0  0  0  0  0  0  0
   -0.3441    1.3755    2.7262 C   0  0  0  0  0  0  0  0  0  0  0  0
   -1.2816    0.8350    2.8901 H   0  0  0  0  0  0  0  0  0  0  0  0
    0.0870    1.6285    3.6994 H   0  0  0  0  0  0  0  0  0  0  0  0
   -0.5662    2.3077    2.1982 H   0  0  0  0  0  0  0  0  0  0  0  0
    0.8774   -0.6563    2.6830 O   0  0  0  0  0  0  0  0  0  0  0  0
    1.1000   -0.4411    3.6041 H   0  0  0  0  0  0  0  0  0  0  0  0
    1.1010   -0.3626   -0.4645 C   0  0  0  0  0  0  0  0  0  0  0  0
    0.9392   -0.2524   -1.6753 O   0  0  0  0  0  0  0  0  0  0  0  0
    2.2629   -0.9302    0.0230 N   0  0  0  0  0  0  0  0  0  0  0  0
    2.2080   -1.1987    1.0068 H   0  0  0  0  0  0  0  0  0  0  0  0
    3.2048   -1.6411   -0.8309 C   0  0  0  0  0  0  0  0  0  0  0  0
    3.5854   -0.9812   -1.6175 H   0  0  0  0  0  0  0  0  0  0  0  0
    4.0540   -1.9965   -0.2398 H   0  0  0  0  0  0  0  0  0  0  0  0
    2.7199   -2.5044   -1.2985 H   0  0  0  0  0  0  0  0  0  0  0  0
  1  2  1  0  0  0  0
  2  3  1  0  0  0  0
  2  4  1  0  0  0  0
  2  5  1  0  0  0  0
  5  6  2  0  0  0  0
  5  7  1  0  0  0  0
  7  8  1  0  0  0  0
  7  9  1  0  0  0  0
  9 10  1  0  0  0  0
  9 11  1  0  0  0  0
  9 19  1  0  0  0  0
 11 12  1  0  0  0  0
 11 13  1  0  0  0  0
 11 17  1  0  0  0  0
 13 14  1  0  0  0  0
 13 15  1  0  0  0  0
 13 16  1  0  0  0  0
 17 18  1  0  0  0  0
 19 20  2  0  0  0  0
 19 21  1  0  0  0  0
 21 22  1  0  0  0  0
 21 23  1  0  0  0  0
 23 24  1  0  0  0  0
 23 25  1  0  0  0  0
 23 26  1  0  0  0  0
M  END
$$$$

  -OEChem-01062216093D

 26 25  0     1  0  0  0  0  0999 V2000
   -3.1078   -3.0854    1.3126 H   0  0  0  0  0  0  0  0  0  0  0  0
   -3.0145   -2.0884    0.8727 C   0  0  0  0  0  0  0  0  0  0  0  0
   -3.5867   -1.3825    1.4792 H   0  0  0  0  0  0  0  0  0  0  0  0
   -3.4273   -2.1101   -0.1388 H   0  0  0  0  0  0  0  0  0  0  0  0
   -1.5559   -1.6725    0.8290 C   0  0  0  0  0  0  0  0  0  0  0  0
   -0.6985   -2.4892    1.1190 O   0  0  0  0  0  0  0  0  0  0  0  0
   -1.2292   -0.4245    0.3335 N   0  0  0  0  0  0  0  0  0  0  0  0
   -2.0114    0.1411    0.0216 H   0  0  0  0  0  0  0  0  0  0  0  0
    0.0787    0.2543    0.4744 C   0  0  1  0  0  0  0  0  0  0  0  0
   -0.0718    1.2568    0.0627 H   0  0  0  0  0  0  0  0  0  0  0  0
    0.6114    0.5023    1.9132 C   0  0  1  0  0  0  0  0  0  0  0  0
    1.5616    1.0424    1.8342 H   0  0  0  0  0  0  0  0  0  0  0  0
   -0.3709    1.3668    2.7032 C   0  0  0  0  0  0  0  0  0  0  0  0
   -1.3196    0.8400    2.8447 H   0  0  0  0  0  0  0  0  0  0  0  0
    0.0437    1.6086    3.6863 H   0  0  0  0  0  0  0  0  0  0  0  0
   -0.5670    2.3046    2.1749 H   0  0  0  0  0  0  0  0  0  0  0  0
    0.8273   -0.6825    2.6789 O   0  0  0  0  0  0  0  0  0  0  0  0
    1.0948   -0.4698    3.5888 H   0  0  0  0  0  0  0  0  0  0  0  0
    1.1315   -0.3689   -0.4604 C   0  0  0  0  0  0  0  0  0  0  0  0
    1.1338   -0.0734   -1.6505 O   0  0  0  0  0  0  0  0  0  0  0  0
    2.1131   -1.1957    0.0488 N   0  0  0  0  0  0  0  0  0  0  0  0
    1.9011   -1.5628    0.9793 H   0  0  0  0  0  0  0  0  0  0  0  0
    3.0333   -1.9421   -0.7973 C   0  0  0  0  0  0  0  0  0  0  0  0
    3.6062   -1.2615   -1.4355 H   0  0  0  0  0  0  0  0  0  0  0  0
    3.7365   -2.5086   -0.1796 H   0  0  0  0  0  0  0  0  0  0  0  0
    2.4836   -2.6441   -1.4329 H   0  0  0  0  0  0  0  0  0  0  0  0
  1  2  1  0  0  0  0
  2  3  1  0  0  0  0
  2  4  1  0  0  0  0
  2  5  1  0  0  0  0
  5  6  2  0  0  0  0
  5  7  1  0  0  0  0
  7  8  1  0  0  0  0
  7  9  1  0  0  0  0
  9 10  1  0  0  0  0
  9 11  1  0  0  0  0
  9 19  1  0  0  0  0
 11 12  1  0  0  0  0
 11 13  1  0  0  0  0
 11 17  1  0  0  0  0
 13 14  1  0  0  0  0
 13 15  1  0  0  0  0
 13 16  1  0  0  0  0
 17 18  1  0  0  0  0
 19 20  2  0  0  0  0
 19 21  1  0  0  0  0
 21 22  1  0  0  0  0
 21 23  1  0  0  0  0
 23 24  1  0  0  0  0
 23 25  1  0  0  0  0
 23 26  1  0  0  0  0
M  END
$$$$

  -OEChem-01062216093D

 26 25  0     1  0  0  0  0  0999 V2000
   -3.1362   -3.0531    1.3553 H   0  0  0  0  0  0  0  0  0  0  0  0
   -3.0342   -2.0610    0.9064 C   0  0  0  0  0  0  0  0  0  0  0  0
   -3.5773   -1.3405    1.5222 H   0  0  0  0  0  0  0  0  0  0  0  0
   -3.4720   -2.0807   -0.0946 H   0  0  0  0  0  0  0  0  0  0  0  0
   -1.5693   -1.6744    0.8235 C   0  0  0  0  0  0  0  0  0  0  0  0
   -0.7197   -2.5081    1.0896 O   0  0  0  0  0  0  0  0  0  0  0  0
   -1.2317   -0.4327    0.3183 N   0  0  0  0  0  0  0  0  0  0  0  0
   -2.0157    0.1535    0.0517 H   0  0  0  0  0  0  0  0  0  0  0  0
    0.0815    0.2356    0.4652 C   0  0  1  0  0  0  0  0  0  0  0  0
   -0.0610    1.2381    0.0506 H   0  0  0  0  0  0  0  0  0  0  0  0
    0.5982    0.4821    1.9080 C   0  0  1  0  0  0  0  0  0  0  0  0
    1.5565    1.0086    1.8368 H   0  0  0  0  0  0  0  0  0  0  0  0
   -0.3816    1.3614    2.6850 C   0  0  0  0  0  0  0  0  0  0  0  0
   -1.3395    0.8486    2.8157 H   0  0  0  0  0  0  0  0  0  0  0  0
    0.0241    1.5983    3.6731 H   0  0  0  0  0  0  0  0  0  0  0  0
   -0.5579    2.3012    2.1532 H   0  0  0  0  0  0  0  0  0  0  0  0
    0.7918   -0.7048    2.6758 O   0  0  0  0  0  0  0  0  0  0  0  0
    1.1221   -0.4975    3.5659 H   0  0  0  0  0  0  0  0  0  0  0  0
    1.1495   -0.3923   -0.4482 C   0  0  0  0  0  0  0  0  0  0  0  0
    1.3392    0.0708   -1.5673 O   0  0  0  0  0  0  0  0  0  0  0  0
    1.9211   -1.4418    0.0078 N   0  0  0  0  0  0  0  0  0  0  0  0
    1.5512   -1.8948    0.8481 H   0  0  0  0  0  0  0  0  0  0  0  0
    2.8292   -2.1928   -0.8467 C   0  0  0  0  0  0  0  0  0  0  0  0
    3.5701   -1.5263   -1.3002 H   0  0  0  0  0  0  0  0  0  0  0  0
    3.3602   -2.9477   -0.2589 H   0  0  0  0  0  0  0  0  0  0  0  0
    2.2737   -2.6982   -1.6433 H   0  0  0  0  0  0  0  0  0  0  0  0
  1  2  1  0  0  0  0
  2  3  1  0  0  0  0
  2  4  1  0  0  0  0
  2  5  1  0  0  0  0
  5  6  2  0  0  0  0
  5  7  1  0  0  0  0
  7  8  1  0  0  0  0
  7  9  1  0  0  0  0
  9 10  1  0  0  0  0
  9 11  1  0  0  0  0
  9 19  1  0  0  0  0
 11 12  1  0  0  0  0
 11 13  1  0  0  0  0
 11 17  1  0  0  0  0
 13 14  1  0  0  0  0
 13 15  1  0  0  0  0
 13 16  1  0  0  0  0
 17 18  1  0  0  0  0
 19 20  2  0  0  0  0
 19 21  1  0  0  0  0
 21 22  1  0  0  0  0
 21 23  1  0  0  0  0
 23 24  1  0  0  0  0
 23 25  1  0  0  0  0
 23 26  1  0  0  0  0
M  END
$$$$

  -OEChem-01062216093D

 26 25  0     1  0  0  0  0  0999 V2000
   -3.2085   -3.0081    1.4092 H   0  0  0  0  0  0  0  0  0  0  0  0
   -3.0857   -2.0279    0.9397 C   0  0  0  0  0  0  0  0  0  0  0  0
   -3.6082   -1.2829    1.5443 H   0  0  0  0  0  0  0  0  0  0  0  0
   -3.5302   -2.0572   -0.0580 H   0  0  0  0  0  0  0  0  0  0  0  0
   -1.6126   -1.6780    0.8410 C   0  0  0  0  0  0  0  0  0  0  0  0
   -0.7843   -2.5327    1.1084 O   0  0  0  0  0  0  0  0  0  0  0  0
   -1.2506   -0.4486    0.3207 N   0  0  0  0  0  0  0  0  0  0  0  0
   -2.0274    0.1499    0.0601 H   0  0  0  0  0  0  0  0  0  0  0  0
    0.0719    0.2081    0.4539 C   0  0  1  0  0  0  0  0  0  0  0  0
   -0.0660    1.2086    0.0327 H   0  0  0  0  0  0  0  0  0  0  0  0
    0.5936    0.4573    1.8931 C   0  0  1  0  0  0  0  0  0  0  0  0
    1.5592    0.9701    1.8172 H   0  0  0  0  0  0  0  0  0  0  0  0
   -0.3713    1.3524    2.6709 C   0  0  0  0  0  0  0  0  0  0  0  0
   -1.3354    0.8530    2.8075 H   0  0  0  0  0  0  0  0  0  0  0  0
    0.0418    1.5872    3.6564 H   0  0  0  0  0  0  0  0  0  0  0  0
   -0.5367    2.2926    2.1364 H   0  0  0  0  0  0  0  0  0  0  0  0
    0.7733   -0.7314    2.6604 O   0  0  0  0  0  0  0  0  0  0  0  0
    1.1386   -0.5321    3.5383 H   0  0  0  0  0  0  0  0  0  0  0  0
    1.1489   -0.4277   -0.4444 C   0  0  0  0  0  0  0  0  0  0  0  0
    1.5345    0.1695   -1.4432 O   0  0  0  0  0  0  0  0  0  0  0  0
    1.7045   -1.6461   -0.1120 N   0  0  0  0  0  0  0  0  0  0  0  0
    1.2116   -2.1510    0.6316 H   0  0  0  0  0  0  0  0  0  0  0  0
    2.6270   -2.3748   -0.9700 C   0  0  0  0  0  0  0  0  0  0  0  0
    3.5027   -1.7598   -1.2016 H   0  0  0  0  0  0  0  0  0  0  0  0
    2.9688   -3.2844   -0.4669 H   0  0  0  0  0  0  0  0  0  0  0  0
    2.1355   -2.6577   -1.9065 H   0  0  0  0  0  0  0  0  0  0  0  0
  1  2  1  0  0  0  0
  2  3  1  0  0  0  0
  2  4  1  0  0  0  0
  2  5  1  0  0  0  0
  5  6  2  0  0  0  0
  5  7  1  0  0  0  0
  7  8  1  0  0  0  0
  7  9  1  0  0  0  0
  9 10  1  0  0  0  0
  9 11  1  0  0  0  0
  9 19  1  0  0  0  0
 11 12  1  0  0  0  0
 11 13  1  0  0  0  0
 11 17  1  0  0  0  0
 13 14  1  0  0  0  0
 13 15  1  0  0  0  0
 13 16  1  0  0  0  0
 17 18  1  0  0  0  0
 19 20  2  0  0  0  0
 19 21  1  0  0  0  0
 21 22  1  0  0  0  0
 21 23  1  0  0  0  0
 23 24  1  0  0  0  0
 23 25  1  0  0  0  0
 23 26  1  0  0  0  0
M  END
$$$$

  -OEChem-01062216093D

 26 25  0     1  0  0  0  0  0999 V2000
   -3.3043   -2.9624    1.4563 H   0  0  0  0  0  0  0  0  0  0  0  0
   -3.1587   -1.9804    0.9972 C   0  0  0  0  0  0  0  0  0  0  0  0
   -3.6349   -1.2255    1.6275 H   0  0  0  0  0  0  0  0  0  0  0  0
   -3.6333   -1.9783    0.0130 H   0  0  0  0  0  0  0  0  0  0  0  0
   -1.6774   -1.6824    0.8594 C   0  0  0  0  0  0  0  0  0  0  0  0
   -0.8742   -2.5649    1.1119 O   0  0  0  0  0  0  0  0  0  0  0  0
   -1.2924   -0.4664    0.3234 N   0  0  0  0  0  0  0  0  0  0  0  0
   -2.0636    0.1496    0.0883 H   0  0  0  0  0  0  0  0  0  0  0  0
    0.0421    0.1753    0.4278 C   0  0  1  0  0  0  0  0  0  0  0  0
   -0.0950    1.1742    0.0026 H   0  0  0  0  0  0  0  0  0  0  0  0
    0.5877    0.4227    1.8565 C   0  0  1  0  0  0  0  0  0  0  0  0
    1.5591    0.9219    1.7656 H   0  0  0  0  0  0  0  0  0  0  0  0
   -0.3524    1.3317    2.6478 C   0  0  0  0  0  0  0  0  0  0  0  0
   -1.3217    0.8466    2.7989 H   0  0  0  0  0  0  0  0  0  0  0  0
    0.0785    1.5602    3.6271 H   0  0  0  0  0  0  0  0  0  0  0  0
   -0.5113    2.2743    2.1153 H   0  0  0  0  0  0  0  0  0  0  0  0
    0.7612   -0.7699    2.6180 O   0  0  0  0  0  0  0  0  0  0  0  0
    1.1646   -0.5810    3.4813 H   0  0  0  0  0  0  0  0  0  0  0  0
    1.1198   -0.4645   -0.4684 C   0  0  0  0  0  0  0  0  0  0  0  0
    1.6969    0.2253   -1.3013 O   0  0  0  0  0  0  0  0  0  0  0  0
    1.4675   -1.7914   -0.3226 N   0  0  0  0  0  0  0  0  0  0  0  0
    0.9134   -2.3229    0.3567 H   0  0  0  0  0  0  0  0  0  0  0  0
    2.4549   -2.4792   -1.1405 C   0  0  0  0  0  0  0  0  0  0  0  0
    3.4242   -1.9743   -1.0759 H   0  0  0  0  0  0  0  0  0  0  0  0
    2.5783   -3.5092   -0.7928 H   0  0  0  0  0  0  0  0  0  0  0  0
    2.1359   -2.5015   -2.1874 H   0  0  0  0  0  0  0  0  0  0  0  0
  1  2  1  0  0  0  0
  2  3  1  0  0  0  0
  2  4  1  0  0  0  0
  2  5  1  0  0  0  0
  5  6  2  0  0  0  0
  5  7  1  0  0  0  0
  7  8  1  0  0  0  0
  7  9  1  0  0  0  0
  9 10  1  0  0  0  0
  9 11  1  0  0  0  0
  9 19  1  0  0  0  0
 11 12  1  0  0  0  0
 11 13  1  0  0  0  0
 11 17  1  0  0  0  0
 13 14  1  0  0  0  0
 13 15  1  0  0  0  0
 13 16  1  0  0  0  0
 17 18  1  0  0  0  0
 19 20  2  0  0  0  0
 19 21  1  0  0  0  0
 21 22  1  0  0  0  0
 21 23  1  0  0  0  0
 23 24  1  0  0  0  0
 23 25  1  0  0  0  0
 23 26  1  0  0  0  0
M  END
$$$$

  -OEChem-01062216093D

 26 25  0     1  0  0  0  0  0999 V2000
   -3.3685   -2.9286    1.5173 H   0  0  0  0  0  0  0  0  0  0  0  0
   -3.2175   -1.9419    1.0699 C   0  0  0  0  0  0  0  0  0  0  0  0
   -3.6427   -1.1875    1.7362 H   0  0  0  0  0  0  0  0  0  0  0  0
   -3.7379   -1.9076    0.1097 H   0  0  0  0  0  0  0  0  0  0  0  0
   -1.7362   -1.6808    0.8681 C   0  0  0  0  0  0  0  0  0  0  0  0
   -0.9472   -2.5875    1.0742 O   0  0  0  0  0  0  0  0  0  0  0  0
   -1.3433   -0.4718    0.3212 N   0  0  0  0  0  0  0  0  0  0  0  0
   -2.1119    0.1611    0.1250 H   0  0  0  0  0  0  0  0  0  0  0  0
    0.0027    0.1545    0.3918 C   0  0  1  0  0  0  0  0  0  0  0  0
   -0.1348    1.1547   -0.0298 H   0  0  0  0  0  0  0  0  0  0  0  0
    0.5805    0.3897    1.8090 C   0  0  1  0  0  0  0  0  0  0  0  0
    1.5568    0.8763    1.7015 H   0  0  0  0  0  0  0  0  0  0  0  0
   -0.3299    1.3074    2.6247 C   0  0  0  0  0  0  0  0  0  0  0  0
   -1.3036    0.8369    2.7912 H   0  0  0  0  0  0  0  0  0  0  0  0
    0.1233    1.5227    3.5970 H   0  0  0  0  0  0  0  0  0  0  0  0
   -0.4837    2.2558    2.1014 H   0  0  0  0  0  0  0  0  0  0  0  0
    0.7525   -0.8118    2.5563 O   0  0  0  0  0  0  0  0  0  0  0  0
    1.1908   -0.6387    3.4057 H   0  0  0  0  0  0  0  0  0  0  0  0
    1.0702   -0.4832   -0.5193 C   0  0  0  0  0  0  0  0  0  0  0  0
    1.8178    0.2475   -1.1596 O   0  0  0  0  0  0  0  0  0  0  0  0
    1.2197   -1.8521   -0.6086 N   0  0  0  0  0  0  0  0  0  0  0  0
    0.6407   -2.4021    0.0338 H   0  0  0  0  0  0  0  0  0  0  0  0
    2.2885   -2.5106   -1.3448 C   0  0  0  0  0  0  0  0  0  0  0  0
    3.2636   -2.2373   -0.9288 H   0  0  0  0  0  0  0  0  0  0  0  0
    2.1750   -3.5969   -1.2796 H   0  0  0  0  0  0  0  0  0  0  0  0
    2.2606   -2.2231   -2.4009 H   0  0  0  0  0  0  0  0  0  0  0  0
  1  2  1  0  0  0  0
  2  3  1  0  0  0  0
  2  4  1  0  0  0  0
  2  5  1  0  0  0  0
  5  6  2  0  0  0  0
  5  7  1  0  0  0  0
  7  8  1  0  0  0  0
  7  9  1  0  0  0  0
  9 10  1  0  0  0  0
  9 11  1  0  0  0  0
  9 19  1  0  0  0  0
 11 12  1  0  0  0  0
 11 13  1  0  0  0  0
 11 17  1  0  0  0  0
 13 14  1  0  0  0  0
 13 15  1  0  0  0  0
 13 16  1  0  0  0  0
 17 18  1  0  0  0  0
 19 20  2  0  0  0  0
 19 21  1  0  0  0  0
 21 22  1  0  0  0  0
 21 23  1  0  0  0  0
 23 24  1  0  0  0  0
 23 25  1  0  0  0  0
 23 26  1  0  0  0  0
M  END
$$$$

  -OEChem-01062216093D

 26 25  0     1  0  0  0  0  0999 V2000
   -3.3647   -2.8935    1.5973 H   0  0  0  0  0  0  0  0  0  0  0  0
   -3.2239   -1.9122    1.1352 C   0  0  0  0  0  0  0  0  0  0  0  0
   -3.6019   -1.1475    1.8178 H   0  0  0  0  0  0  0  0  0  0  0  0
   -3.7941   -1.8765    0.2039 H   0  0  0  0  0  0  0  0  0  0  0  0
   -1.7519   -1.6748    0.8526 C   0  0  0  0  0  0  0  0  0  0  0  0
   -0.9715   -2.6036    0.9768 O   0  0  0  0  0  0  0  0  0  0  0  0
   -1.3632   -0.4659    0.3034 N   0  0  0  0  0  0  0  0  0  0  0  0
   -2.1297    0.1846    0.1664 H   0  0  0  0  0  0  0  0  0  0  0  0
   -0.0110    0.1491    0.3701 C   0  0  1  0  0  0  0  0  0  0  0  0
   -0.1412    1.1519   -0.0475 H   0  0  0  0  0  0  0  0  0  0  0  0
    0.5607    0.3694    1.7927 C   0  0  1  0  0  0  0  0  0  0  0  0
    1.5427    0.8461    1.6952 H   0  0  0  0  0  0  0  0  0  0  0  0
   -0.3426    1.2908    2.6123 C   0  0  0  0  0  0  0  0  0  0  0  0
   -1.3195    0.8271    2.7789 H   0  0  0  0  0  0  0  0  0  0  0  0
    0.1140    1.4987    3.5846 H   0  0  0  0  0  0  0  0  0  0  0  0
   -0.4895    2.2424    2.0925 H   0  0  0  0  0  0  0  0  0  0  0  0
    0.7155   -0.8416    2.5286 O   0  0  0  0  0  0  0  0  0  0  0  0
    1.1776   -0.6865    3.3689 H   0  0  0  0  0  0  0  0  0  0  0  0
    1.0605   -0.4830   -0.5420 C   0  0  0  0  0  0  0  0  0  0  0  0
    1.9464    0.2335   -0.9951 O   0  0  0  0  0  0  0  0  0  0  0  0
    1.0307   -1.8203   -0.8837 N   0  0  0  0  0  0  0  0  0  0  0  0
    0.3925   -2.3913   -0.3220 H   0  0  0  0  0  0  0  0  0  0  0  0
    2.0979   -2.4851   -1.6176 C   0  0  0  0  0  0  0  0  0  0  0  0
    3.0323   -2.4497   -1.0480 H   0  0  0  0  0  0  0  0  0  0  0  0
    1.8364   -3.5330   -1.7933 H   0  0  0  0  0  0  0  0  0  0  0  0
    2.2560   -2.0023   -2.5875 H   0  0  0  0  0  0  0  0  0  0  0  0
  1  2  1  0  0  0  0
  2  3  1  0  0  0  0
  2  4  1  0  0  0  0
  2  5  1  0  0  0  0
  5  6  2  0  0  0  0
  5  7  1  0  0  0  0
  7  8  1  0  0  0  0
  7  9  1  0  0  0  0
  9 10  1  0  0  0  0
  9 11  1  0  0  0  0
  9 19  1  0  0  0  0
 11 12  1  0  0  0  0
 11 13  1  0  0  0  0
 11 17  1  0  0  0  0
 13 14  1  0  0  0  0
 13 15  1  0  0  0  0
 13 16  1  0  0  0  0
 17 18  1  0  0  0  0
 19 20  2  0  0  0  0
 19 21  1  0  0  0  0
 21 22  1  0  0  0  0
 21 23  1  0  0  0  0
 23 24  1  0  0  0  0
 23 25  1  0  0  0  0
 23 26  1  0  0  0  0
M  END
$$$$

  -OEChem-01062216093D

 26 25  0     1  0  0  0  0  0999 V2000
   -3.3223   -2.8993    1.6103 H   0  0  0  0  0  0  0  0  0  0  0  0
   -3.1911   -1.8941    1.1998 C   0  0  0  0  0  0  0  0  0  0  0  0
   -3.4986   -1.1658    1.9541 H   0  0  0  0  0  0  0  0  0  0  0  0
   -3.8263   -1.7882    0.3170 H   0  0  0  0  0  0  0  0  0  0  0  0
   -1.7383   -1.6701    0.8247 C   0  0  0  0  0  0  0  0  0  0  0  0
   -0.9663   -2.6140    0.8465 O   0  0  0  0  0  0  0  0  0  0  0  0
   -1.3644   -0.4579    0.2752 N   0  0  0  0  0  0  0  0  0  0  0  0
   -2.1289    0.2057    0.2083 H   0  0  0  0  0  0  0  0  0  0  0  0
   -0.0101    0.1499    0.3552 C   0  0  1  0  0  0  0  0  0  0  0  0
   -0.1286    1.1539   -0.0624 H   0  0  0  0  0  0  0  0  0  0  0  0
    0.5353    0.3613    1.7905 C   0  0  1  0  0  0  0  0  0  0  0  0
    1.5216    0.8332    1.7164 H   0  0  0  0  0  0  0  0  0  0  0  0
   -0.3785    1.2833    2.5984 C   0  0  0  0  0  0  0  0  0  0  0  0
   -1.3621    0.8264    2.7408 H   0  0  0  0  0  0  0  0  0  0  0  0
    0.0586    1.4794    3.5820 H   0  0  0  0  0  0  0  0  0  0  0  0
   -0.5071    2.2402    2.0839 H   0  0  0  0  0  0  0  0  0  0  0  0
    0.6677   -0.8554    2.5222 O   0  0  0  0  0  0  0  0  0  0  0  0
    1.1479   -0.7134    3.3548 H   0  0  0  0  0  0  0  0  0  0  0  0
    1.0672   -0.4836   -0.5512 C   0  0  0  0  0  0  0  0  0  0  0  0
    2.0644    0.1731   -0.8311 O   0  0  0  0  0  0  0  0  0  0  0  0
    0.8823   -1.7179   -1.1435 N   0  0  0  0  0  0  0  0  0  0  0  0
    0.1740   -2.2968   -0.6848 H   0  0  0  0  0  0  0  0  0  0  0  0
    1.9179   -2.3875   -1.9182 C   0  0  0  0  0  0  0  0  0  0  0  0
    2.7854   -2.6064   -1.2872 H   0  0  0  0  0  0  0  0  0  0  0  0
    1.5348   -3.3292   -2.3227 H   0  0  0  0  0  0  0  0  0  0  0  0
    2.2390   -1.7593   -2.7556 H   0  0  0  0  0  0  0  0  0  0  0  0
  1  2  1  0  0  0  0
  2  3  1  0  0  0  0
  2  4  1  0  0  0  0
  2  5  1  0  0  0  0
  5  6  2  0  0  0  0
  5  7  1  0  0  0  0
  7  8  1  0  0  0  0
  7  9  1  0  0  0  0
  9 10  1  0  0  0  0
  9 11  1  0  0  0  0
  9 19  1  0  0  0  0
 11 12  1  0  0  0  0
 11 13  1  0  0  0  0
 11 17  1  0  0  0  0
 13 14  1  0  0  0  0
 13 15  1  0  0  0  0
 13 16  1  0  0  0  0
 17 18  1  0  0  0  0
 19 20  2  0  0  0  0
 19 21  1  0  0  0  0
 21 22  1  0  0  0  0
 21 23  1  0  0  0  0
 23 24  1  0  0  0  0
 23 25  1  0  0  0  0
 23 26  1  0  0  0  0
M  END
$$$$

  -OEChem-01062216093D

 26 25  0     1  0  0  0  0  0999 V2000
   -3.2511   -2.9009    1.6466 H   0  0  0  0  0  0  0  0  0  0  0  0
   -3.1396   -1.8845    1.2586 C   0  0  0  0  0  0  0  0  0  0  0  0
   -3.3803   -1.1777    2.0562 H   0  0  0  0  0  0  0  0  0  0  0  0
   -3.8383   -1.7444    0.4305 H   0  0  0  0  0  0  0  0  0  0  0  0
   -1.7165   -1.6627    0.7826 C   0  0  0  0  0  0  0  0  0  0  0  0
   -0.9581   -2.6136    0.6924 O   0  0  0  0  0  0  0  0  0  0  0  0
   -1.3616   -0.4441    0.2369 N   0  0  0  0  0  0  0  0  0  0  0  0
   -2.1230    0.2265    0.2358 H   0  0  0  0  0  0  0  0  0  0  0  0
   -0.0066    0.1575    0.3414 C   0  0  1  0  0  0  0  0  0  0  0  0
   -0.1096    1.1649   -0.0717 H   0  0  0  0  0  0  0  0  0  0  0  0
    0.5074    0.3526    1.7919 C   0  0  1  0  0  0  0  0  0  0  0  0
    1.4971    0.8204    1.7467 H   0  0  0  0  0  0  0  0  0  0  0  0
   -0.4178    1.2715    2.5902 C   0  0  0  0  0  0  0  0  0  0  0  0
   -1.4055    0.8173    2.7117 H   0  0  0  0  0  0  0  0  0  0  0  0
    0.0023    1.4576    3.5831 H   0  0  0  0  0  0  0  0  0  0  0  0
   -0.5336    2.2331    2.0812 H   0  0  0  0  0  0  0  0  0  0  0  0
    0.6170   -0.8736    2.5124 O   0  0  0  0  0  0  0  0  0  0  0  0
    1.1280   -0.7537    3.3302 H   0  0  0  0  0  0  0  0  0  0  0  0
    1.0755   -0.4802   -0.5574 C   0  0  0  0  0  0  0  0  0  0  0  0
    2.1666    0.0704   -0.6617 O   0  0  0  0  0  0  0  0  0  0  0  0
    0.7734   -1.5409   -1.3902 N   0  0  0  0  0  0  0  0  0  0  0  0
   -0.0193   -2.0971   -1.0640 H   0  0  0  0  0  0  0  0  0  0  0  0
    1.7793   -2.2094   -2.2046 C   0  0  0  0  0  0  0  0  0  0  0  0
    2.5452   -2.6643   -1.5680 H   0  0  0  0  0  0  0  0  0  0  0  0
    1.3131   -2.9959   -2.8055 H   0  0  0  0  0  0  0  0  0  0  0  0
    2.2609   -1.4985   -2.8839 H   0  0  0  0  0  0  0  0  0  0  0  0
  1  2  1  0  0  0  0
  2  3  1  0  0  0  0
  2  4  1  0  0  0  0
  2  5  1  0  0  0  0
  5  6  2  0  0  0  0
  5  7  1  0  0  0  0
  7  8  1  0  0  0  0
  7  9  1  0  0  0  0
  9 10  1  0  0  0  0
  9 11  1  0  0  0  0
  9 19  1  0  0  0  0
 11 12  1  0  0  0  0
 11 13  1  0  0  0  0
 11 17  1  0  0  0  0
 13 14  1  0  0  0  0
 13 15  1  0  0  0  0
 13 16  1  0  0  0  0
 17 18  1  0  0  0  0
 19 20  2  0  0  0  0
 19 21  1  0  0  0  0
 21 22  1  0  0  0  0
 21 23  1  0  0  0  0
 23 24  1  0  0  0  0
 23 25  1  0  0  0  0
 23 26  1  0  0  0  0
M  END
$$$$

  -OEChem-01062216093D

 26 25  0     1  0  0  0  0  0999 V2000
   -3.1849   -2.9133    1.6707 H   0  0  0  0  0  0  0  0  0  0  0  0
   -3.0955   -1.8973    1.2757 C   0  0  0  0  0  0  0  0  0  0  0  0
   -3.3206   -1.1898    2.0770 H   0  0  0  0  0  0  0  0  0  0  0  0
   -3.8186   -1.7678    0.4670 H   0  0  0  0  0  0  0  0  0  0  0  0
   -1.6888   -1.6631    0.7590 C   0  0  0  0  0  0  0  0  0  0  0  0
   -0.9331   -2.6091    0.6154 O   0  0  0  0  0  0  0  0  0  0  0  0
   -1.3498   -0.4376    0.2201 N   0  0  0  0  0  0  0  0  0  0  0  0
   -2.1099    0.2334    0.2585 H   0  0  0  0  0  0  0  0  0  0  0  0
    0.0049    0.1587    0.3445 C   0  0  1  0  0  0  0  0  0  0  0  0
   -0.0862    1.1676   -0.0674 H   0  0  0  0  0  0  0  0  0  0  0  0
    0.4957    0.3505    1.8049 C   0  0  1  0  0  0  0  0  0  0  0  0
    1.4879    0.8146    1.7773 H   0  0  0  0  0  0  0  0  0  0  0  0
   -0.4370    1.2737    2.5894 C   0  0  0  0  0  0  0  0  0  0  0  0
   -1.4296    0.8260    2.6938 H   0  0  0  0  0  0  0  0  0  0  0  0
   -0.0322    1.4553    3.5895 H   0  0  0  0  0  0  0  0  0  0  0  0
   -0.5376    2.2369    2.0805 H   0  0  0  0  0  0  0  0  0  0  0  0
    0.5880   -0.8772    2.5258 O   0  0  0  0  0  0  0  0  0  0  0  0
    1.1329   -0.7726    3.3236 H   0  0  0  0  0  0  0  0  0  0  0  0
    1.0809   -0.4869   -0.5565 C   0  0  0  0  0  0  0  0  0  0  0  0
    2.2397   -0.0886   -0.5016 O   0  0  0  0  0  0  0  0  0  0  0  0
    0.7061   -1.3122   -1.6007 N   0  0  0  0  0  0  0  0  0  0  0  0
   -0.1779   -1.7929   -1.4385 H   0  0  0  0  0  0  0  0  0  0  0  0
    1.6789   -1.9617   -2.4694 C   0  0  0  0  0  0  0  0  0  0  0  0
    2.3287   -2.6239   -1.8877 H   0  0  0  0  0  0  0  0  0  0  0  0
    1.1652   -2.5575   -3.2296 H   0  0  0  0  0  0  0  0  0  0  0  0
    2.2983   -1.2159   -2.9782 H   0  0  0  0  0  0  0  0  0  0  0  0
  1  2  1  0  0  0  0
  2  3  1  0  0  0  0
  2  4  1  0  0  0  0
  2  5  1  0  0  0  0
  5  6  2  0  0  0  0
  5  7  1  0  0  0  0
  7  8  1  0  0  0  0
  7  9  1  0  0  0  0
  9 10  1  0  0  0  0
  9 11  1  0  0  0  0
  9 19  1  0  0  0  0
 11 12  1  0  0  0  0
 11 13  1  0  0  0  0
 11 17  1  0  0  0  0
 13 14  1  0  0  0  0
 13 15  1  0  0  0  0
 13 16  1  0  0  0  0
 17 18  1  0  0  0  0
 19 20  2  0  0  0  0
 19 21  1  0  0  0  0
 21 22  1  0  0  0  0
 21 23  1  0  0  0  0
 23 24  1  0  0  0  0
 23 25  1  0  0  0  0
 23 26  1  0  0  0  0
M  END
$$$$

  -OEChem-01062216093D

 26 25  0     1  0  0  0  0  0999 V2000
   -3.1449   -2.9418    1.6535 H   0  0  0  0  0  0  0  0  0  0  0  0
   -3.0643   -1.9202    1.2712 C   0  0  0  0  0  0  0  0  0  0  0  0
   -3.2851   -1.2246    2.0843 H   0  0  0  0  0  0  0  0  0  0  0  0
   -3.7960   -1.7836    0.4714 H   0  0  0  0  0  0  0  0  0  0  0  0
   -1.6632   -1.6721    0.7453 C   0  0  0  0  0  0  0  0  0  0  0  0
   -0.8955   -2.6085    0.6060 O   0  0  0  0  0  0  0  0  0  0  0  0
   -1.3378   -0.4394    0.2136 N   0  0  0  0  0  0  0  0  0  0  0  0
   -2.1003    0.2271    0.2754 H   0  0  0  0  0  0  0  0  0  0  0  0
    0.0143    0.1580    0.3493 C   0  0  1  0  0  0  0  0  0  0  0  0
   -0.0739    1.1676   -0.0607 H   0  0  0  0  0  0  0  0  0  0  0  0
    0.4892    0.3542    1.8154 C   0  0  1  0  0  0  0  0  0  0  0  0
    1.4806    0.8202    1.7971 H   0  0  0  0  0  0  0  0  0  0  0  0
   -0.4537    1.2787    2.5861 C   0  0  0  0  0  0  0  0  0  0  0  0
   -1.4484    0.8324    2.6746 H   0  0  0  0  0  0  0  0  0  0  0  0
   -0.0646    1.4585    3.5928 H   0  0  0  0  0  0  0  0  0  0  0  0
   -0.5448    2.2426    2.0766 H   0  0  0  0  0  0  0  0  0  0  0  0
    0.5753   -0.8698    2.5435 O   0  0  0  0  0  0  0  0  0  0  0  0
    1.1880   -0.7869    3.2932 H   0  0  0  0  0  0  0  0  0  0  0  0
    1.0843   -0.4883   -0.5588 C   0  0  0  0  0  0  0  0  0  0  0  0
    2.2774   -0.2899   -0.3551 O   0  0  0  0  0  0  0  0  0  0  0  0
    0.7009   -1.0355   -1.7700 N   0  0  0  0  0  0  0  0  0  0  0  0
   -0.2664   -1.3477   -1.7976 H   0  0  0  0  0  0  0  0  0  0  0  0
    1.6485   -1.6736   -2.6751 C   0  0  0  0  0  0  0  0  0  0  0  0
    2.1279   -2.5281   -2.1860 H   0  0  0  0  0  0  0  0  0  0  0  0
    1.1314   -2.0303   -3.5710 H   0  0  0  0  0  0  0  0  0  0  0  0
    2.4230   -0.9644   -2.9853 H   0  0  0  0  0  0  0  0  0  0  0  0
  1  2  1  0  0  0  0
  2  3  1  0  0  0  0
  2  4  1  0  0  0  0
  2  5  1  0  0  0  0
  5  6  2  0  0  0  0
  5  7  1  0  0  0  0
  7  8  1  0  0  0  0
  7  9  1  0  0  0  0
  9 10  1  0  0  0  0
  9 11  1  0  0  0  0
  9 19  1  0  0  0  0
 11 12  1  0  0  0  0
 11 13  1  0  0  0  0
 11 17  1  0  0  0  0
 13 14  1  0  0  0  0
 13 15  1  0  0  0  0
 13 16  1  0  0  0  0
 17 18  1  0  0  0  0
 19 20  2  0  0  0  0
 19 21  1  0  0  0  0
 21 22  1  0  0  0  0
 21 23  1  0  0  0  0
 23 24  1  0  0  0  0
 23 25  1  0  0  0  0
 23 26  1  0  0  0  0
M  END
$$$$

  -OEChem-01062216093D

 26 25  0     1  0  0  0  0  0999 V2000
   -3.0575   -2.9974    1.6671 H   0  0  0  0  0  0  0  0  0  0  0  0
   -3.0231   -2.0012    1.2164 C   0  0  0  0  0  0  0  0  0  0  0  0
   -3.4049   -1.2775    1.9406 H   0  0  0  0  0  0  0  0  0  0  0  0
   -3.6606   -1.9931    0.3291 H   0  0  0  0  0  0  0  0  0  0  0  0
   -1.5966   -1.6517    0.8363 C   0  0  0  0  0  0  0  0  0  0  0  0
   -0.7220   -2.5002    0.9054 O   0  0  0  0  0  0  0  0  0  0  0  0
   -1.3115   -0.4177    0.2819 N   0  0  0  0  0  0  0  0  0  0  0  0
   -2.1043    0.2166    0.2754 H   0  0  0  0  0  0  0  0  0  0  0  0
    0.0209    0.2206    0.4040 C   0  0  1  0  0  0  0  0  0  0  0  0
   -0.0927    1.2214   -0.0218 H   0  0  0  0  0  0  0  0  0  0  0  0
    0.4950    0.4622    1.8642 C   0  0  1  0  0  0  0  0  0  0  0  0
    1.4741    0.9529    1.8290 H   0  0  0  0  0  0  0  0  0  0  0  0
   -0.4671    1.3798    2.6186 C   0  0  0  0  0  0  0  0  0  0  0  0
   -1.4501    0.9114    2.7216 H   0  0  0  0  0  0  0  0  0  0  0  0
   -0.0760    1.5857    3.6196 H   0  0  0  0  0  0  0  0  0  0  0  0
   -0.5827    2.3315    2.0920 H   0  0  0  0  0  0  0  0  0  0  0  0
    0.6212   -0.7373    2.6257 O   0  0  0  0  0  0  0  0  0  0  0  0
    0.9786   -1.4572    2.0661 H   0  0  0  0  0  0  0  0  0  0  0  0
    1.0859   -0.4284   -0.5077 C   0  0  0  0  0  0  0  0  0  0  0  0
    2.2407   -0.5783   -0.1290 O   0  0  0  0  0  0  0  0  0  0  0  0
    0.7666   -0.7223   -1.8215 N   0  0  0  0  0  0  0  0  0  0  0  0
   -0.2236   -0.7326   -2.0466 H   0  0  0  0  0  0  0  0  0  0  0  0
    1.6909   -1.3955   -2.7258 C   0  0  0  0  0  0  0  0  0  0  0  0
    1.9621   -2.3806   -2.3318 H   0  0  0  0  0  0  0  0  0  0  0  0
    1.2281   -1.5298   -3.7081 H   0  0  0  0  0  0  0  0  0  0  0  0
    2.6033   -0.8033   -2.8537 H   0  0  0  0  0  0  0  0  0  0  0  0
  1  2  1  0  0  0  0
  2  3  1  0  0  0  0
  2  4  1  0  0  0  0
  2  5  1  0  0  0  0
  5  6  2  0  0  0  0
  5  7  1  0  0  0  0
  7  8  1  0  0  0  0
  7  9  1  0  0  0  0
  9 10  1  0  0  0  0
  9 11  1  0  0  0  0
  9 19  1  0  0  0  0
 11 12  1  0  0  0  0
 11 13  1  0  0  0  0
 11 17  1  0  0  0  0
 13 14  1  0  0  0  0
 13 15  1  0  0  0  0
 13 16  1  0  0  0  0
 17 18  1  0  0  0  0
 19 20  2  0  0  0  0
 19 21  1  0  0  0  0
 21 22  1  0  0  0  0
 21 23  1  0  0  0  0
 23 24  1  0  0  0  0
 23 25  1  0  0  0  0
 23 26  1  0  0  0  0
M  END
$$$$

  -OEChem-01062216093D

 26 25  0     1  0  0  0  0  0999 V2000
   -3.0651   -3.0275    1.6164 H   0  0  0  0  0  0  0  0  0  0  0  0
   -3.0227   -2.0157    1.2028 C   0  0  0  0  0  0  0  0  0  0  0  0
   -3.4024   -1.3163    1.9515 H   0  0  0  0  0  0  0  0  0  0  0  0
   -3.6567   -1.9719    0.3141 H   0  0  0  0  0  0  0  0  0  0  0  0
   -1.5929   -1.6611    0.8413 C   0  0  0  0  0  0  0  0  0  0  0  0
   -0.7178   -2.5067    0.9277 O   0  0  0  0  0  0  0  0  0  0  0  0
   -1.3101   -0.4283    0.2828 N   0  0  0  0  0  0  0  0  0  0  0  0
   -2.1088    0.1979    0.2616 H   0  0  0  0  0  0  0  0  0  0  0  0
    0.0160    0.2226    0.4008 C   0  0  1  0  0  0  0  0  0  0  0  0
   -0.1061    1.2224   -0.0245 H   0  0  0  0  0  0  0  0  0  0  0  0
    0.4988    0.4705    1.8565 C   0  0  1  0  0  0  0  0  0  0  0  0
    1.4744    0.9675    1.8104 H   0  0  0  0  0  0  0  0  0  0  0  0
   -0.4634    1.3811    2.6184 C   0  0  0  0  0  0  0  0  0  0  0  0
   -1.4428    0.9065    2.7269 H   0  0  0  0  0  0  0  0  0  0  0  0
   -0.0669    1.5869    3.6174 H   0  0  0  0  0  0  0  0  0  0  0  0
   -0.5880    2.3331    2.0945 H   0  0  0  0  0  0  0  0  0  0  0  0
    0.6420   -0.7269    2.6166 O   0  0  0  0  0  0  0  0  0  0  0  0
    1.0127   -1.4377    2.0522 H   0  0  0  0  0  0  0  0  0  0  0  0
    1.0817   -0.4269   -0.5090 C   0  0  0  0  0  0  0  0  0  0  0  0
    2.1602   -0.7970   -0.0616 O   0  0  0  0  0  0  0  0  0  0  0  0
    0.8813   -0.4479   -1.8783 N   0  0  0  0  0  0  0  0  0  0  0  0
   -0.0628   -0.2581   -2.1998 H   0  0  0  0  0  0  0  0  0  0  0  0
    1.8164   -1.0784   -2.8023 C   0  0  0  0  0  0  0  0  0  0  0  0
    1.9070   -2.1477   -2.5839 H   0  0  0  0  0  0  0  0  0  0  0  0
    1.4664   -0.9624   -3.8323 H   0  0  0  0  0  0  0  0  0  0  0  0
    2.8062   -0.6166   -2.7220 H   0  0  0  0  0  0  0  0  0  0  0  0
  1  2  1  0  0  0  0
  2  3  1  0  0  0  0
  2  4  1  0  0  0  0
  2  5  1  0  0  0  0
  5  6  2  0  0  0  0
  5  7  1  0  0  0  0
  7  8  1  0  0  0  0
  7  9  1  0  0  0  0
  9 10  1  0  0  0  0
  9 11  1  0  0  0  0
  9 19  1  0  0  0  0
 11 12  1  0  0  0  0
 11 13  1  0  0  0  0
 11 17  1  0  0  0  0
 13 14  1  0  0  0  0
 13 15  1  0  0  0  0
 13 16  1  0  0  0  0
 17 18  1  0  0  0  0
 19 20  2  0  0  0  0
 19 21  1  0  0  0  0
 21 22  1  0  0  0  0
 21 23  1  0  0  0  0
 23 24  1  0  0  0  0
 23 25  1  0  0  0  0
 23 26  1  0  0  0  0
M  END
$$$$

  -OEChem-01062216093D

 26 25  0     1  0  0  0  0  0999 V2000
   -3.0762   -3.0175    1.6498 H   0  0  0  0  0  0  0  0  0  0  0  0
   -3.0335   -2.0211    1.2004 C   0  0  0  0  0  0  0  0  0  0  0  0
   -3.4312   -1.2978    1.9163 H   0  0  0  0  0  0  0  0  0  0  0  0
   -3.6518   -2.0142    0.2998 H   0  0  0  0  0  0  0  0  0  0  0  0
   -1.5998   -1.6696    0.8506 C   0  0  0  0  0  0  0  0  0  0  0  0
   -0.7278   -2.5153    0.9572 O   0  0  0  0  0  0  0  0  0  0  0  0
   -1.3146   -0.4402    0.2853 N   0  0  0  0  0  0  0  0  0  0  0  0
   -2.1169    0.1797    0.2403 H   0  0  0  0  0  0  0  0  0  0  0  0
    0.0076    0.2199    0.3920 C   0  0  1  0  0  0  0  0  0  0  0  0
   -0.1247    1.2193   -0.0311 H   0  0  0  0  0  0  0  0  0  0  0  0
    0.5032    0.4704    1.8423 C   0  0  1  0  0  0  0  0  0  0  0  0
    1.4759    0.9714    1.7846 H   0  0  0  0  0  0  0  0  0  0  0  0
   -0.4564    1.3738    2.6161 C   0  0  0  0  0  0  0  0  0  0  0  0
   -1.4325    0.8937    2.7310 H   0  0  0  0  0  0  0  0  0  0  0  0
   -0.0524    1.5773    3.6125 H   0  0  0  0  0  0  0  0  0  0  0  0
   -0.5901    2.3272    2.0972 H   0  0  0  0  0  0  0  0  0  0  0  0
    0.6626   -0.7263    2.5994 O   0  0  0  0  0  0  0  0  0  0  0  0
    1.0118   -1.4391    2.0214 H   0  0  0  0  0  0  0  0  0  0  0  0
    1.0768   -0.4270   -0.5159 C   0  0  0  0  0  0  0  0  0  0  0  0
    2.0495   -1.0004   -0.0408 O   0  0  0  0  0  0  0  0  0  0  0  0
    1.0425   -0.1945   -1.8805 N   0  0  0  0  0  0  0  0  0  0  0  0
    0.1871    0.1990   -2.2598 H   0  0  0  0  0  0  0  0  0  0  0  0
    2.0163   -0.7654   -2.8038 C   0  0  0  0  0  0  0  0  0  0  0  0
    1.9942   -1.8592   -2.7554 H   0  0  0  0  0  0  0  0  0  0  0  0
    1.7901   -0.4590   -3.8295 H   0  0  0  0  0  0  0  0  0  0  0  0
    3.0265   -0.4220   -2.5568 H   0  0  0  0  0  0  0  0  0  0  0  0
  1  2  1  0  0  0  0
  2  3  1  0  0  0  0
  2  4  1  0  0  0  0
  2  5  1  0  0  0  0
  5  6  2  0  0  0  0
  5  7  1  0  0  0  0
  7  8  1  0  0  0  0
  7  9  1  0  0  0  0
  9 10  1  0  0  0  0
  9 11  1  0  0  0  0
  9 19  1  0  0  0  0
 11 12  1  0  0  0  0
 11 13  1  0  0  0  0
 11 17  1  0  0  0  0
 13 14  1  0  0  0  0
 13 15  1  0  0  0  0
 13 16  1  0  0  0  0
 17 18  1  0  0  0  0
 19 20  2  0  0  0  0
 19 21  1  0  0  0  0
 21 22  1  0  0  0  0
 21 23  1  0  0  0  0
 23 24  1  0  0  0  0
 23 25  1  0  0  0  0
 23 26  1  0  0  0  0
M  END
$$$$

  -OEChem-01062216093D

 26 25  0     1  0  0  0  0  0999 V2000
   -3.1082   -3.0231    1.6435 H   0  0  0  0  0  0  0  0  0  0  0  0
   -3.0536   -2.0333    1.1809 C   0  0  0  0  0  0  0  0  0  0  0  0
   -3.4799   -1.3013    1.8709 H   0  0  0  0  0  0  0  0  0  0  0  0
   -3.6392   -2.0429    0.2587 H   0  0  0  0  0  0  0  0  0  0  0  0
   -1.6099   -1.6798    0.8772 C   0  0  0  0  0  0  0  0  0  0  0  0
   -0.7392   -2.5160    1.0444 O   0  0  0  0  0  0  0  0  0  0  0  0
   -1.3164   -0.4560    0.3039 N   0  0  0  0  0  0  0  0  0  0  0  0
   -2.1214    0.1555    0.2161 H   0  0  0  0  0  0  0  0  0  0  0  0
    0.0038    0.2118    0.3871 C   0  0  1  0  0  0  0  0  0  0  0  0
   -0.1451    1.2087   -0.0360 H   0  0  0  0  0  0  0  0  0  0  0  0
    0.5219    0.4722    1.8266 C   0  0  1  0  0  0  0  0  0  0  0  0
    1.4919    0.9756    1.7477 H   0  0  0  0  0  0  0  0  0  0  0  0
   -0.4274    1.3761    2.6124 C   0  0  0  0  0  0  0  0  0  0  0  0
   -1.3964    0.8887    2.7538 H   0  0  0  0  0  0  0  0  0  0  0  0
   -0.0032    1.5926    3.5976 H   0  0  0  0  0  0  0  0  0  0  0  0
   -0.5812    2.3231    2.0874 H   0  0  0  0  0  0  0  0  0  0  0  0
    0.7007   -0.7188    2.5877 O   0  0  0  0  0  0  0  0  0  0  0  0
    0.9434   -1.4609    1.9893 H   0  0  0  0  0  0  0  0  0  0  0  0
    1.0754   -0.4282   -0.5240 C   0  0  0  0  0  0  0  0  0  0  0  0
    1.9155   -1.1957   -0.0720 O   0  0  0  0  0  0  0  0  0  0  0  0
    1.2293    0.0276   -1.8229 N   0  0  0  0  0  0  0  0  0  0  0  0
    0.5024    0.6285   -2.1977 H   0  0  0  0  0  0  0  0  0  0  0  0
    2.2492   -0.4851   -2.7307 C   0  0  0  0  0  0  0  0  0  0  0  0
    2.1183   -1.5614   -2.8857 H   0  0  0  0  0  0  0  0  0  0  0  0
    2.1783    0.0158   -3.7010 H   0  0  0  0  0  0  0  0  0  0  0  0
    3.2503   -0.3071   -2.3238 H   0  0  0  0  0  0  0  0  0  0  0  0
  1  2  1  0  0  0  0
  2  3  1  0  0  0  0
  2  4  1  0  0  0  0
  2  5  1  0  0  0  0
  5  6  2  0  0  0  0
  5  7  1  0  0  0  0
  7  8  1  0  0  0  0
  7  9  1  0  0  0  0
  9 10  1  0  0  0  0
  9 11  1  0  0  0  0
  9 19  1  0  0  0  0
 11 12  1  0  0  0  0
 11 13  1  0  0  0  0
 11 17  1  0  0  0  0
 13 14  1  0  0  0  0
 13 15  1  0  0  0  0
 13 16  1  0  0  0  0
 17 18  1  0  0  0  0
 19 20  2  0  0  0  0
 19 21  1  0  0  0  0
 21 22  1  0  0  0  0
 21 23  1  0  0  0  0
 23 24  1  0  0  0  0
 23 25  1  0  0  0  0
 23 26  1  0  0  0  0
M  END
$$$$

  -OEChem-01062216093D

 26 25  0     1  0  0  0  0  0999 V2000
   -3.0369   -3.2014    1.3110 H   0  0  0  0  0  0  0  0  0  0  0  0
   -2.9286   -2.2593    0.7657 C   0  0  0  0  0  0  0  0  0  0  0  0
   -3.7504   -1.5956    1.0446 H   0  0  0  0  0  0  0  0  0  0  0  0
   -2.9814   -2.4678   -0.3057 H   0  0  0  0  0  0  0  0  0  0  0  0
   -1.5986   -1.6114    1.1029 C   0  0  0  0  0  0  0  0  0  0  0  0
   -0.8746   -2.1480    1.9219 O   0  0  0  0  0  0  0  0  0  0  0  0
   -1.2755   -0.4046    0.5075 N   0  0  0  0  0  0  0  0  0  0  0  0
   -1.9568   -0.0859   -0.1740 H   0  0  0  0  0  0  0  0  0  0  0  0
    0.0367    0.2949    0.5070 C   0  0  1  0  0  0  0  0  0  0  0  0
   -0.1641    1.2791    0.0759 H   0  0  0  0  0  0  0  0  0  0  0  0
    0.7044    0.5987    1.8750 C   0  0  1  0  0  0  0  0  0  0  0  0
    1.6350    1.1479    1.6948 H   0  0  0  0  0  0  0  0  0  0  0  0
   -0.2134    1.4740    2.7278 C   0  0  0  0  0  0  0  0  0  0  0  0
   -1.1463    0.9494    2.9555 H   0  0  0  0  0  0  0  0  0  0  0  0
    0.2816    1.7247    3.6712 H   0  0  0  0  0  0  0  0  0  0  0  0
   -0.4519    2.4052    2.2060 H   0  0  0  0  0  0  0  0  0  0  0  0
    1.0128   -0.5504    2.6555 O   0  0  0  0  0  0  0  0  0  0  0  0
    0.3587   -1.2731    2.4651 H   0  0  0  0  0  0  0  0  0  0  0  0
    1.0456   -0.3767   -0.4517 C   0  0  0  0  0  0  0  0  0  0  0  0
    1.4597   -1.5117   -0.2662 O   0  0  0  0  0  0  0  0  0  0  0  0
    1.3385    0.2317   -1.6621 N   0  0  0  0  0  0  0  0  0  0  0  0
    0.9914    1.1727   -1.8177 H   0  0  0  0  0  0  0  0  0  0  0  0
    2.2158   -0.3649   -2.6635 C   0  0  0  0  0  0  0  0  0  0  0  0
    1.8064   -1.3191   -3.0119 H   0  0  0  0  0  0  0  0  0  0  0  0
    2.3164    0.3024   -3.5248 H   0  0  0  0  0  0  0  0  0  0  0  0
    3.2122   -0.5412   -2.2444 H   0  0  0  0  0  0  0  0  0  0  0  0
  1  2  1  0  0  0  0
  2  3  1  0  0  0  0
  2  4  1  0  0  0  0
  2  5  1  0  0  0  0
  5  6  2  0  0  0  0
  5  7  1  0  0  0  0
  7  8  1  0  0  0  0
  7  9  1  0  0  0  0
  9 10  1  0  0  0  0
  9 11  1  0  0  0  0
  9 19  1  0  0  0  0
 11 12  1  0  0  0  0
 11 13  1  0  0  0  0
 11 17  1  0  0  0  0
 13 14  1  0  0  0  0
 13 15  1  0  0  0  0
 13 16  1  0  0  0  0
 17 18  1  0  0  0  0
 19 20  2  0  0  0  0
 19 21  1  0  0  0  0
 21 22  1  0  0  0  0
 21 23  1  0  0  0  0
 23 24  1  0  0  0  0
 23 25  1  0  0  0  0
 23 26  1  0  0  0  0
M  END
$$$$

  -OEChem-01062216093D

 26 25  0     1  0  0  0  0  0999 V2000
   -3.2901   -3.1281    1.1995 H   0  0  0  0  0  0  0  0  0  0  0  0
   -3.1141   -2.1569    0.7280 C   0  0  0  0  0  0  0  0  0  0  0  0
   -3.8230   -1.4343    1.1385 H   0  0  0  0  0  0  0  0  0  0  0  0
   -3.2803   -2.2554   -0.3473 H   0  0  0  0  0  0  0  0  0  0  0  0
   -1.6917   -1.6971    0.9926 C   0  0  0  0  0  0  0  0  0  0  0  0
   -0.9780   -2.4235    1.6547 O   0  0  0  0  0  0  0  0  0  0  0  0
   -1.3049   -0.4761    0.4627 N   0  0  0  0  0  0  0  0  0  0  0  0
   -2.0136   -0.0360   -0.1129 H   0  0  0  0  0  0  0  0  0  0  0  0
    0.0302    0.1763    0.4837 C   0  0  1  0  0  0  0  0  0  0  0  0
   -0.1629    1.1705    0.0737 H   0  0  0  0  0  0  0  0  0  0  0  0
    0.7053    0.4622    1.8533 C   0  0  1  0  0  0  0  0  0  0  0  0
    1.6529    0.9786    1.6653 H   0  0  0  0  0  0  0  0  0  0  0  0
   -0.1850    1.3715    2.7009 C   0  0  0  0  0  0  0  0  0  0  0  0
   -1.1249    0.8659    2.9441 H   0  0  0  0  0  0  0  0  0  0  0  0
    0.3209    1.6335    3.6350 H   0  0  0  0  0  0  0  0  0  0  0  0
   -0.4142    2.2967    2.1643 H   0  0  0  0  0  0  0  0  0  0  0  0
    0.9731   -0.6896    2.6417 O   0  0  0  0  0  0  0  0  0  0  0  0
    1.3442   -0.4614    3.5078 H   0  0  0  0  0  0  0  0  0  0  0  0
    1.0420   -0.4522   -0.5039 C   0  0  0  0  0  0  0  0  0  0  0  0
    1.2425   -1.6561   -0.5744 O   0  0  0  0  0  0  0  0  0  0  0  0
    1.5906    0.3429   -1.4997 N   0  0  0  0  0  0  0  0  0  0  0  0
    1.4087    1.3405   -1.4659 H   0  0  0  0  0  0  0  0  0  0  0  0
    2.4842   -0.1710   -2.5324 C   0  0  0  0  0  0  0  0  0  0  0  0
    1.9675   -0.9108   -3.1528 H   0  0  0  0  0  0  0  0  0  0  0  0
    2.8257    0.6435   -3.1782 H   0  0  0  0  0  0  0  0  0  0  0  0
    3.3622   -0.6432   -2.0790 H   0  0  0  0  0  0  0  0  0  0  0  0
  1  2  1  0  0  0  0
  2  3  1  0  0  0  0
  2  4  1  0  0  0  0
  2  5  1  0  0  0  0
  5  6  2  0  0  0  0
  5  7  1  0  0  0  0
  7  8  1  0  0  0  0
  7  9  1  0  0  0  0
  9 10  1  0  0  0  0
  9 11  1  0  0  0  0
  9 19  1  0  0  0  0
 11 12  1  0  0  0  0
 11 13  1  0  0  0  0
 11 17  1  0  0  0  0
 13 14  1  0  0  0  0
 13 15  1  0  0  0  0
 13 16  1  0  0  0  0
 17 18  1  0  0  0  0
 19 20  2  0  0  0  0
 19 21  1  0  0  0  0
 21 22  1  0  0  0  0
 21 23  1  0  0  0  0
 23 24  1  0  0  0  0
 23 25  1  0  0  0  0
 23 26  1  0  0  0  0
M  END
$$$$

  -OEChem-01062216093D

 26 25  0     1  0  0  0  0  0999 V2000
   -3.1056   -3.1216    1.3208 H   0  0  0  0  0  0  0  0  0  0  0  0
   -2.9270   -2.2329    0.7087 C   0  0  0  0  0  0  0  0  0  0  0  0
   -3.7803   -1.5585    0.8113 H   0  0  0  0  0  0  0  0  0  0  0  0
   -2.8345   -2.5404   -0.3358 H   0  0  0  0  0  0  0  0  0  0  0  0
   -1.6547   -1.5372    1.1550 C   0  0  0  0  0  0  0  0  0  0  0  0
   -1.0112   -2.0207    2.0705 O   0  0  0  0  0  0  0  0  0  0  0  0
   -1.3099   -0.3366    0.5582 N   0  0  0  0  0  0  0  0  0  0  0  0
   -1.9242   -0.0913   -0.2119 H   0  0  0  0  0  0  0  0  0  0  0  0
    0.0255    0.3217    0.5362 C   0  0  1  0  0  0  0  0  0  0  0  0
   -0.1557    1.3182    0.1246 H   0  0  0  0  0  0  0  0  0  0  0  0
    0.7706    0.5605    1.8744 C   0  0  1  0  0  0  0  0  0  0  0  0
    1.7077    1.0890    1.6685 H   0  0  0  0  0  0  0  0  0  0  0  0
   -0.0764    1.4296    2.8027 C   0  0  0  0  0  0  0  0  0  0  0  0
   -1.0126    0.9239    3.0582 H   0  0  0  0  0  0  0  0  0  0  0  0
    0.4715    1.6315    3.7282 H   0  0  0  0  0  0  0  0  0  0  0  0
   -0.3126    2.3854    2.3263 H   0  0  0  0  0  0  0  0  0  0  0  0
    1.0764   -0.6296    2.5892 O   0  0  0  0  0  0  0  0  0  0  0  0
    0.3132   -1.2633    2.5224 H   0  0  0  0  0  0  0  0  0  0  0  0
    0.9967   -0.3727   -0.4458 C   0  0  0  0  0  0  0  0  0  0  0  0
    0.9040   -1.5695   -0.6901 O   0  0  0  0  0  0  0  0  0  0  0  0
    1.7705    0.4018   -1.2949 N   0  0  0  0  0  0  0  0  0  0  0  0
    1.8570    1.3906   -1.0807 H   0  0  0  0  0  0  0  0  0  0  0  0
    2.6426   -0.1665   -2.3172 C   0  0  0  0  0  0  0  0  0  0  0  0
    2.0558   -0.7178   -3.0594 H   0  0  0  0  0  0  0  0  0  0  0  0
    3.1898    0.6288   -2.8323 H   0  0  0  0  0  0  0  0  0  0  0  0
    3.3698   -0.8493   -1.8650 H   0  0  0  0  0  0  0  0  0  0  0  0
  1  2  1  0  0  0  0
  2  3  1  0  0  0  0
  2  4  1  0  0  0  0
  2  5  1  0  0  0  0
  5  6  2  0  0  0  0
  5  7  1  0  0  0  0
  7  8  1  0  0  0  0
  7  9  1  0  0  0  0
  9 10  1  0  0  0  0
  9 11  1  0  0  0  0
  9 19  1  0  0  0  0
 11 12  1  0  0  0  0
 11 13  1  0  0  0  0
 11 17  1  0  0  0  0
 13 14  1  0  0  0  0
 13 15  1  0  0  0  0
 13 16  1  0  0  0  0
 17 18  1  0  0  0  0
 19 20  2  0  0  0  0
 19 21  1  0  0  0  0
 21 22  1  0  0  0  0
 21 23  1  0  0  0  0
 23 24  1  0  0  0  0
 23 25  1  0  0  0  0
 23 26  1  0  0  0  0
M  END
$$$$

  -OEChem-01062216093D

 26 25  0     1  0  0  0  0  0999 V2000
   -3.1032   -3.1216    1.3142 H   0  0  0  0  0  0  0  0  0  0  0  0
   -2.9255   -2.2300    0.7062 C   0  0  0  0  0  0  0  0  0  0  0  0
   -3.7833   -1.5609    0.8050 H   0  0  0  0  0  0  0  0  0  0  0  0
   -2.8240   -2.5338   -0.3387 H   0  0  0  0  0  0  0  0  0  0  0  0
   -1.6603   -1.5281    1.1624 C   0  0  0  0  0  0  0  0  0  0  0  0
   -1.0155   -2.0131    2.0765 O   0  0  0  0  0  0  0  0  0  0  0  0
   -1.3154   -0.3277    0.5662 N   0  0  0  0  0  0  0  0  0  0  0  0
   -1.9186   -0.0961   -0.2171 H   0  0  0  0  0  0  0  0  0  0  0  0
    0.0208    0.3300    0.5416 C   0  0  1  0  0  0  0  0  0  0  0  0
   -0.1563    1.3271    0.1290 H   0  0  0  0  0  0  0  0  0  0  0  0
    0.7704    0.5617    1.8794 C   0  0  1  0  0  0  0  0  0  0  0  0
    1.7070    1.0919    1.6765 H   0  0  0  0  0  0  0  0  0  0  0  0
   -0.0745    1.4255    2.8147 C   0  0  0  0  0  0  0  0  0  0  0  0
   -1.0089    0.9173    3.0721 H   0  0  0  0  0  0  0  0  0  0  0  0
    0.4770    1.6250    3.7387 H   0  0  0  0  0  0  0  0  0  0  0  0
   -0.3148    2.3829    2.3432 H   0  0  0  0  0  0  0  0  0  0  0  0
    1.0770   -0.6333    2.5859 O   0  0  0  0  0  0  0  0  0  0  0  0
    0.3045   -1.2573    2.5357 H   0  0  0  0  0  0  0  0  0  0  0  0
    0.9874   -0.3671   -0.4441 C   0  0  0  0  0  0  0  0  0  0  0  0
    0.7352   -1.4795   -0.8942 O   0  0  0  0  0  0  0  0  0  0  0  0
    1.9760    0.3751   -1.0695 N   0  0  0  0  0  0  0  0  0  0  0  0
    2.2016    1.2815   -0.6710 H   0  0  0  0  0  0  0  0  0  0  0  0
    2.8766   -0.1862   -2.0704 C   0  0  0  0  0  0  0  0  0  0  0  0
    2.3135   -0.5291   -2.9448 H   0  0  0  0  0  0  0  0  0  0  0  0
    3.5954    0.5703   -2.3993 H   0  0  0  0  0  0  0  0  0  0  0  0
    3.4317   -1.0337   -1.6540 H   0  0  0  0  0  0  0  0  0  0  0  0
  1  2  1  0  0  0  0
  2  3  1  0  0  0  0
  2  4  1  0  0  0  0
  2  5  1  0  0  0  0
  5  6  2  0  0  0  0
  5  7  1  0  0  0  0
  7  8  1  0  0  0  0
  7  9  1  0  0  0  0
  9 10  1  0  0  0  0
  9 11  1  0  0  0  0
  9 19  1  0  0  0  0
 11 12  1  0  0  0  0
 11 13  1  0  0  0  0
 11 17  1  0  0  0  0
 13 14  1  0  0  0  0
 13 15  1  0  0  0  0
 13 16  1  0  0  0  0
 17 18  1  0  0  0  0
 19 20  2  0  0  0  0
 19 21  1  0  0  0  0
 21 22  1  0  0  0  0
 21 23  1  0  0  0  0
 23 24  1  0  0  0  0
 23 25  1  0  0  0  0
 23 26  1  0  0  0  0
M  END
$$$$

  -OEChem-01062216093D

 26 25  0     1  0  0  0  0  0999 V2000
   -3.1001   -3.1172    1.3176 H   0  0  0  0  0  0  0  0  0  0  0  0
   -2.9226   -2.2253    0.7098 C   0  0  0  0  0  0  0  0  0  0  0  0
   -3.7771   -1.5527    0.8150 H   0  0  0  0  0  0  0  0  0  0  0  0
   -2.8296   -2.5272   -0.3365 H   0  0  0  0  0  0  0  0  0  0  0  0
   -1.6515   -1.5293    1.1594 C   0  0  0  0  0  0  0  0  0  0  0  0
   -0.9945   -2.0260    2.0584 O   0  0  0  0  0  0  0  0  0  0  0  0
   -1.3086   -0.3267    0.5675 N   0  0  0  0  0  0  0  0  0  0  0  0
   -1.9060   -0.1012   -0.2223 H   0  0  0  0  0  0  0  0  0  0  0  0
    0.0236    0.3403    0.5472 C   0  0  1  0  0  0  0  0  0  0  0  0
   -0.1514    1.3366    0.1319 H   0  0  0  0  0  0  0  0  0  0  0  0
    0.7605    0.5740    1.8930 C   0  0  1  0  0  0  0  0  0  0  0  0
    1.6931    1.1158    1.7048 H   0  0  0  0  0  0  0  0  0  0  0  0
   -0.1024    1.4257    2.8228 C   0  0  0  0  0  0  0  0  0  0  0  0
   -1.0332    0.9066    3.0708 H   0  0  0  0  0  0  0  0  0  0  0  0
    0.4384    1.6290    3.7523 H   0  0  0  0  0  0  0  0  0  0  0  0
   -0.3491    2.3813    2.3512 H   0  0  0  0  0  0  0  0  0  0  0  0
    1.0692   -0.6205    2.5996 O   0  0  0  0  0  0  0  0  0  0  0  0
    0.2999   -1.2484    2.5453 H   0  0  0  0  0  0  0  0  0  0  0  0
    0.9905   -0.3571   -0.4402 C   0  0  0  0  0  0  0  0  0  0  0  0
    0.6256   -1.3380   -1.0804 O   0  0  0  0  0  0  0  0  0  0  0  0
    2.1569    0.2775   -0.8357 N   0  0  0  0  0  0  0  0  0  0  0  0
    2.4825    1.0481   -0.2597 H   0  0  0  0  0  0  0  0  0  0  0  0
    3.0789   -0.2934   -1.8112 C   0  0  0  0  0  0  0  0  0  0  0  0
    2.5831   -0.4220   -2.7792 H   0  0  0  0  0  0  0  0  0  0  0  0
    3.9391    0.3685   -1.9506 H   0  0  0  0  0  0  0  0  0  0  0  0
    3.4432   -1.2680   -1.4695 H   0  0  0  0  0  0  0  0  0  0  0  0
  1  2  1  0  0  0  0
  2  3  1  0  0  0  0
  2  4  1  0  0  0  0
  2  5  1  0  0  0  0
  5  6  2  0  0  0  0
  5  7  1  0  0  0  0
  7  8  1  0  0  0  0
  7  9  1  0  0  0  0
  9 10  1  0  0  0  0
  9 11  1  0  0  0  0
  9 19  1  0  0  0  0
 11 12  1  0  0  0  0
 11 13  1  0  0  0  0
 11 17  1  0  0  0  0
 13 14  1  0  0  0  0
 13 15  1  0  0  0  0
 13 16  1  0  0  0  0
 17 18  1  0  0  0  0
 19 20  2  0  0  0  0
 19 21  1  0  0  0  0
 21 22  1  0  0  0  0
 21 23  1  0  0  0  0
 23 24  1  0  0  0  0
 23 25  1  0  0  0  0
 23 26  1  0  0  0  0
M  END
$$$$

  -OEChem-01062216093D

 26 25  0     1  0  0  0  0  0999 V2000
   -3.0863   -3.1774    1.1334 H   0  0  0  0  0  0  0  0  0  0  0  0
   -2.9384   -2.2136    0.6377 C   0  0  0  0  0  0  0  0  0  0  0  0
   -3.7852   -1.5640    0.8718 H   0  0  0  0  0  0  0  0  0  0  0  0
   -2.8999   -2.3779   -0.4423 H   0  0  0  0  0  0  0  0  0  0  0  0
   -1.6463   -1.5731    1.1089 C   0  0  0  0  0  0  0  0  0  0  0  0
   -0.9944   -2.1365    1.9724 O   0  0  0  0  0  0  0  0  0  0  0  0
   -1.2745   -0.3623    0.5532 N   0  0  0  0  0  0  0  0  0  0  0  0
   -1.8555   -0.1143   -0.2437 H   0  0  0  0  0  0  0  0  0  0  0  0
    0.0508    0.3193    0.5636 C   0  0  1  0  0  0  0  0  0  0  0  0
   -0.1613    1.3810    0.4111 H   0  0  0  0  0  0  0  0  0  0  0  0
    0.9371    0.2612    1.8374 C   0  0  1  0  0  0  0  0  0  0  0  0
    1.8460    0.8487    1.6731 H   0  0  0  0  0  0  0  0  0  0  0  0
    0.2030    0.8715    3.0313 C   0  0  0  0  0  0  0  0  0  0  0  0
   -0.7024    0.3044    3.2662 H   0  0  0  0  0  0  0  0  0  0  0  0
    0.8528    0.8652    3.9117 H   0  0  0  0  0  0  0  0  0  0  0  0
   -0.0799    1.9065    2.8187 H   0  0  0  0  0  0  0  0  0  0  0  0
    1.3146   -1.0604    2.1986 O   0  0  0  0  0  0  0  0  0  0  0  0
    0.4974   -1.6233    2.2506 H   0  0  0  0  0  0  0  0  0  0  0  0
    0.8783   -0.1186   -0.6705 C   0  0  0  0  0  0  0  0  0  0  0  0
    0.3317   -0.7351   -1.5808 O   0  0  0  0  0  0  0  0  0  0  0  0
    2.1541    0.3742   -0.8912 N   0  0  0  0  0  0  0  0  0  0  0  0
    2.6313    0.7763   -0.0894 H   0  0  0  0  0  0  0  0  0  0  0  0
    2.9569    0.0029   -2.0509 C   0  0  0  0  0  0  0  0  0  0  0  0
    2.4457    0.2814   -2.9784 H   0  0  0  0  0  0  0  0  0  0  0  0
    3.9215    0.5188   -2.0223 H   0  0  0  0  0  0  0  0  0  0  0  0
    3.1409   -1.0766   -2.0600 H   0  0  0  0  0  0  0  0  0  0  0  0
  1  2  1  0  0  0  0
  2  3  1  0  0  0  0
  2  4  1  0  0  0  0
  2  5  1  0  0  0  0
  5  6  2  0  0  0  0
  5  7  1  0  0  0  0
  7  8  1  0  0  0  0
  7  9  1  0  0  0  0
  9 10  1  0  0  0  0
  9 11  1  0  0  0  0
  9 19  1  0  0  0  0
 11 12  1  0  0  0  0
 11 13  1  0  0  0  0
 11 17  1  0  0  0  0
 13 14  1  0  0  0  0
 13 15  1  0  0  0  0
 13 16  1  0  0  0  0
 17 18  1  0  0  0  0
 19 20  2  0  0  0  0
 19 21  1  0  0  0  0
 21 22  1  0  0  0  0
 21 23  1  0  0  0  0
 23 24  1  0  0  0  0
 23 25  1  0  0  0  0
 23 26  1  0  0  0  0
M  END
$$$$

  -OEChem-01062216093D

 26 25  0     1  0  0  0  0  0999 V2000
   -3.0714   -3.1812    1.1210 H   0  0  0  0  0  0  0  0  0  0  0  0
   -2.9271   -2.2126    0.6339 C   0  0  0  0  0  0  0  0  0  0  0  0
   -3.7700   -1.5639    0.8841 H   0  0  0  0  0  0  0  0  0  0  0  0
   -2.9011   -2.3653   -0.4481 H   0  0  0  0  0  0  0  0  0  0  0  0
   -1.6289   -1.5794    1.0981 C   0  0  0  0  0  0  0  0  0  0  0  0
   -0.9647   -2.1550    1.9438 O   0  0  0  0  0  0  0  0  0  0  0  0
   -1.2578   -0.3650    0.5507 N   0  0  0  0  0  0  0  0  0  0  0  0
   -1.8394   -0.1049   -0.2424 H   0  0  0  0  0  0  0  0  0  0  0  0
    0.0615    0.3262    0.5773 C   0  0  1  0  0  0  0  0  0  0  0  0
   -0.1533    1.3869    0.4194 H   0  0  0  0  0  0  0  0  0  0  0  0
    0.9330    0.2798    1.8618 C   0  0  1  0  0  0  0  0  0  0  0  0
    1.8356    0.8805    1.7103 H   0  0  0  0  0  0  0  0  0  0  0  0
    0.1735    0.8818    3.0436 C   0  0  0  0  0  0  0  0  0  0  0  0
   -0.7291    0.3045    3.2639 H   0  0  0  0  0  0  0  0  0  0  0  0
    0.8091    0.8830    3.9342 H   0  0  0  0  0  0  0  0  0  0  0  0
   -0.1177    1.9135    2.8263 H   0  0  0  0  0  0  0  0  0  0  0  0
    1.3176   -1.0377    2.2316 O   0  0  0  0  0  0  0  0  0  0  0  0
    0.5058   -1.6100    2.2677 H   0  0  0  0  0  0  0  0  0  0  0  0
    0.8906   -0.1144   -0.6550 C   0  0  0  0  0  0  0  0  0  0  0  0
    0.3021   -0.5100   -1.6575 O   0  0  0  0  0  0  0  0  0  0  0  0
    2.2538    0.1143   -0.7419 N   0  0  0  0  0  0  0  0  0  0  0  0
    2.7362    0.2669    0.1407 H   0  0  0  0  0  0  0  0  0  0  0  0
    3.0513   -0.2907   -1.8938 C   0  0  0  0  0  0  0  0  0  0  0  0
    2.6790    0.1859   -2.8067 H   0  0  0  0  0  0  0  0  0  0  0  0
    4.0947    0.0070   -1.7530 H   0  0  0  0  0  0  0  0  0  0  0  0
    3.0139   -1.3775   -2.0226 H   0  0  0  0  0  0  0  0  0  0  0  0
  1  2  1  0  0  0  0
  2  3  1  0  0  0  0
  2  4  1  0  0  0  0
  2  5  1  0  0  0  0
  5  6  2  0  0  0  0
  5  7  1  0  0  0  0
  7  8  1  0  0  0  0
  7  9  1  0  0  0  0
  9 10  1  0  0  0  0
  9 11  1  0  0  0  0
  9 19  1  0  0  0  0
 11 12  1  0  0  0  0
 11 13  1  0  0  0  0
 11 17  1  0  0  0  0
 13 14  1  0  0  0  0
 13 15  1  0  0  0  0
 13 16  1  0  0  0  0
 17 18  1  0  0  0  0
 19 20  2  0  0  0  0
 19 21  1  0  0  0  0
 21 22  1  0  0  0  0
 21 23  1  0  0  0  0
 23 24  1  0  0  0  0
 23 25  1  0  0  0  0
 23 26  1  0  0  0  0
M  END
$$$$

  -OEChem-01062216093D

 26 25  0     1  0  0  0  0  0999 V2000
   -3.0713   -3.1762    1.1223 H   0  0  0  0  0  0  0  0  0  0  0  0
   -2.9268   -2.2059    0.6387 C   0  0  0  0  0  0  0  0  0  0  0  0
   -3.7593   -1.5513    0.9076 H   0  0  0  0  0  0  0  0  0  0  0  0
   -2.9213   -2.3518   -0.4445 H   0  0  0  0  0  0  0  0  0  0  0  0
   -1.6153   -1.5867    1.0841 C   0  0  0  0  0  0  0  0  0  0  0  0
   -0.9340   -2.1784    1.9046 O   0  0  0  0  0  0  0  0  0  0  0  0
   -1.2441   -0.3698    0.5430 N   0  0  0  0  0  0  0  0  0  0  0  0
   -1.8373   -0.0872   -0.2339 H   0  0  0  0  0  0  0  0  0  0  0  0
    0.0701    0.3280    0.5827 C   0  0  1  0  0  0  0  0  0  0  0  0
   -0.1468    1.3876    0.4209 H   0  0  0  0  0  0  0  0  0  0  0  0
    0.9323    0.2903    1.8737 C   0  0  1  0  0  0  0  0  0  0  0  0
    1.8313    0.8978    1.7249 H   0  0  0  0  0  0  0  0  0  0  0  0
    0.1591    0.8890    3.0482 C   0  0  0  0  0  0  0  0  0  0  0  0
   -0.7413    0.3055    3.2613 H   0  0  0  0  0  0  0  0  0  0  0  0
    0.7868    0.8966    3.9444 H   0  0  0  0  0  0  0  0  0  0  0  0
   -0.1370    1.9184    2.8262 H   0  0  0  0  0  0  0  0  0  0  0  0
    1.3230   -1.0245    2.2494 O   0  0  0  0  0  0  0  0  0  0  0  0
    0.5166   -1.6054    2.2697 H   0  0  0  0  0  0  0  0  0  0  0  0
    0.9011   -0.1140   -0.6454 C   0  0  0  0  0  0  0  0  0  0  0  0
    0.3212   -0.2996   -1.7113 O   0  0  0  0  0  0  0  0  0  0  0  0
    2.2839   -0.1701   -0.6206 N   0  0  0  0  0  0  0  0  0  0  0  0
    2.7021   -0.2270    0.3070 H   0  0  0  0  0  0  0  0  0  0  0  0
    3.0773   -0.6208   -1.7577 C   0  0  0  0  0  0  0  0  0  0  0  0
    2.8819    0.0044   -2.6354 H   0  0  0  0  0  0  0  0  0  0  0  0
    4.1439   -0.5562   -1.5219 H   0  0  0  0  0  0  0  0  0  0  0  0
    2.8374   -1.6604   -2.0045 H   0  0  0  0  0  0  0  0  0  0  0  0
  1  2  1  0  0  0  0
  2  3  1  0  0  0  0
  2  4  1  0  0  0  0
  2  5  1  0  0  0  0
  5  6  2  0  0  0  0
  5  7  1  0  0  0  0
  7  8  1  0  0  0  0
  7  9  1  0  0  0  0
  9 10  1  0  0  0  0
  9 11  1  0  0  0  0
  9 19  1  0  0  0  0
 11 12  1  0  0  0  0
 11 13  1  0  0  0  0
 11 17  1  0  0  0  0
 13 14  1  0  0  0  0
 13 15  1  0  0  0  0
 13 16  1  0  0  0  0
 17 18  1  0  0  0  0
 19 20  2  0  0  0  0
 19 21  1  0  0  0  0
 21 22  1  0  0  0  0
 21 23  1  0  0  0  0
 23 24  1  0  0  0  0
 23 25  1  0  0  0  0
 23 26  1  0  0  0  0
M  END
$$$$

  -OEChem-01062216093D

 26 25  0     1  0  0  0  0  0999 V2000
   -3.0804   -3.1678    1.1390 H   0  0  0  0  0  0  0  0  0  0  0  0
   -2.9364   -2.1969    0.6563 C   0  0  0  0  0  0  0  0  0  0  0  0
   -3.7529   -1.5333    0.9511 H   0  0  0  0  0  0  0  0  0  0  0  0
   -2.9621   -2.3373   -0.4273 H   0  0  0  0  0  0  0  0  0  0  0  0
   -1.6056   -1.5972    1.0699 C   0  0  0  0  0  0  0  0  0  0  0  0
   -0.9078   -2.2044    1.8646 O   0  0  0  0  0  0  0  0  0  0  0  0
   -1.2336   -0.3800    0.5302 N   0  0  0  0  0  0  0  0  0  0  0  0
   -1.8464   -0.0713   -0.2212 H   0  0  0  0  0  0  0  0  0  0  0  0
    0.0763    0.3238    0.5763 C   0  0  1  0  0  0  0  0  0  0  0  0
   -0.1447    1.3823    0.4122 H   0  0  0  0  0  0  0  0  0  0  0  0
    0.9307    0.2916    1.8730 C   0  0  1  0  0  0  0  0  0  0  0  0
    1.8292    0.9003    1.7230 H   0  0  0  0  0  0  0  0  0  0  0  0
    0.1491    0.8905    3.0414 C   0  0  0  0  0  0  0  0  0  0  0  0
   -0.7536    0.3077    3.2467 H   0  0  0  0  0  0  0  0  0  0  0  0
    0.7699    0.8966    3.9425 H   0  0  0  0  0  0  0  0  0  0  0  0
   -0.1439    1.9204    2.8177 H   0  0  0  0  0  0  0  0  0  0  0  0
    1.3264   -1.0216    2.2554 O   0  0  0  0  0  0  0  0  0  0  0  0
    0.5243   -1.6090    2.2646 H   0  0  0  0  0  0  0  0  0  0  0  0
    0.9153   -0.1158   -0.6444 C   0  0  0  0  0  0  0  0  0  0  0  0
    0.3841   -0.1122   -1.7501 O   0  0  0  0  0  0  0  0  0  0  0  0
    2.2518   -0.4571   -0.5377 N   0  0  0  0  0  0  0  0  0  0  0  0
    2.5772   -0.6538    0.4100 H   0  0  0  0  0  0  0  0  0  0  0  0
    3.0363   -0.9621   -1.6572 C   0  0  0  0  0  0  0  0  0  0  0  0
    3.0384   -0.2412   -2.4815 H   0  0  0  0  0  0  0  0  0  0  0  0
    4.0717   -1.1297   -1.3456 H   0  0  0  0  0  0  0  0  0  0  0  0
    2.6235   -1.9100   -2.0181 H   0  0  0  0  0  0  0  0  0  0  0  0
  1  2  1  0  0  0  0
  2  3  1  0  0  0  0
  2  4  1  0  0  0  0
  2  5  1  0  0  0  0
  5  6  2  0  0  0  0
  5  7  1  0  0  0  0
  7  8  1  0  0  0  0
  7  9  1  0  0  0  0
  9 10  1  0  0  0  0
  9 11  1  0  0  0  0
  9 19  1  0  0  0  0
 11 12  1  0  0  0  0
 11 13  1  0  0  0  0
 11 17  1  0  0  0  0
 13 14  1  0  0  0  0
 13 15  1  0  0  0  0
 13 16  1  0  0  0  0
 17 18  1  0  0  0  0
 19 20  2  0  0  0  0
 19 21  1  0  0  0  0
 21 22  1  0  0  0  0
 21 23  1  0  0  0  0
 23 24  1  0  0  0  0
 23 25  1  0  0  0  0
 23 26  1  0  0  0  0
M  END
$$$$

  -OEChem-01062216093D

 26 25  0     1  0  0  0  0  0999 V2000
   -3.1032   -3.1540    1.1632 H   0  0  0  0  0  0  0  0  0  0  0  0
   -2.9528   -2.1858    0.6769 C   0  0  0  0  0  0  0  0  0  0  0  0
   -3.7510   -1.5083    0.9900 H   0  0  0  0  0  0  0  0  0  0  0  0
   -3.0063   -2.3257   -0.4057 H   0  0  0  0  0  0  0  0  0  0  0  0
   -1.6019   -1.6095    1.0588 C   0  0  0  0  0  0  0  0  0  0  0  0
   -0.8897   -2.2351    1.8260 O   0  0  0  0  0  0  0  0  0  0  0  0
   -1.2250   -0.3932    0.5204 N   0  0  0  0  0  0  0  0  0  0  0  0
   -1.8592   -0.0552   -0.1998 H   0  0  0  0  0  0  0  0  0  0  0  0
    0.0842    0.3110    0.5677 C   0  0  1  0  0  0  0  0  0  0  0  0
   -0.1376    1.3694    0.4023 H   0  0  0  0  0  0  0  0  0  0  0  0
    0.9291    0.2812    1.8712 C   0  0  1  0  0  0  0  0  0  0  0  0
    1.8308    0.8848    1.7185 H   0  0  0  0  0  0  0  0  0  0  0  0
    0.1439    0.8894    3.0323 C   0  0  0  0  0  0  0  0  0  0  0  0
   -0.7590    0.3075    3.2393 H   0  0  0  0  0  0  0  0  0  0  0  0
    0.7624    0.9034    3.9351 H   0  0  0  0  0  0  0  0  0  0  0  0
   -0.1490    1.9174    2.7997 H   0  0  0  0  0  0  0  0  0  0  0  0
    1.3225   -1.0308    2.2660 O   0  0  0  0  0  0  0  0  0  0  0  0
    0.5219   -1.6204    2.2661 H   0  0  0  0  0  0  0  0  0  0  0  0
    0.9319   -0.1227   -0.6465 C   0  0  0  0  0  0  0  0  0  0  0  0
    0.4788    0.0631   -1.7703 O   0  0  0  0  0  0  0  0  0  0  0  0
    2.1599   -0.7415   -0.5025 N   0  0  0  0  0  0  0  0  0  0  0  0
    2.4023   -1.0266    0.4488 H   0  0  0  0  0  0  0  0  0  0  0  0
    2.9224   -1.2886   -1.6169 C   0  0  0  0  0  0  0  0  0  0  0  0
    3.1382   -0.5082   -2.3540 H   0  0  0  0  0  0  0  0  0  0  0  0
    3.8729   -1.6956   -1.2588 H   0  0  0  0  0  0  0  0  0  0  0  0
    2.3623   -2.0921   -2.1063 H   0  0  0  0  0  0  0  0  0  0  0  0
  1  2  1  0  0  0  0
  2  3  1  0  0  0  0
  2  4  1  0  0  0  0
  2  5  1  0  0  0  0
  5  6  2  0  0  0  0
  5  7  1  0  0  0  0
  7  8  1  0  0  0  0
  7  9  1  0  0  0  0
  9 10  1  0  0  0  0
  9 11  1  0  0  0  0
  9 19  1  0  0  0  0
 11 12  1  0  0  0  0
 11 13  1  0  0  0  0
 11 17  1  0  0  0  0
 13 14  1  0  0  0  0
 13 15  1  0  0  0  0
 13 16  1  0  0  0  0
 17 18  1  0  0  0  0
 19 20  2  0  0  0  0
 19 21  1  0  0  0  0
 21 22  1  0  0  0  0
 21 23  1  0  0  0  0
 23 24  1  0  0  0  0
 23 25  1  0  0  0  0
 23 26  1  0  0  0  0
M  END
$$$$

  -OEChem-01062216093D

 26 25  0     1  0  0  0  0  0999 V2000
   -3.1419   -3.1266    1.2034 H   0  0  0  0  0  0  0  0  0  0  0  0
   -2.9826   -2.1646    0.7077 C   0  0  0  0  0  0  0  0  0  0  0  0
   -3.7577   -1.4680    1.0364 H   0  0  0  0  0  0  0  0  0  0  0  0
   -3.0658   -2.3090   -0.3725 H   0  0  0  0  0  0  0  0  0  0  0  0
   -1.6108   -1.6164    1.0541 C   0  0  0  0  0  0  0  0  0  0  0  0
   -0.8901   -2.2610    1.7969 O   0  0  0  0  0  0  0  0  0  0  0  0
   -1.2245   -0.4052    0.5110 N   0  0  0  0  0  0  0  0  0  0  0  0
   -1.8781   -0.0380   -0.1767 H   0  0  0  0  0  0  0  0  0  0  0  0
    0.0887    0.2909    0.5543 C   0  0  1  0  0  0  0  0  0  0  0  0
   -0.1276    1.3506    0.3875 H   0  0  0  0  0  0  0  0  0  0  0  0
    0.9290    0.2583    1.8611 C   0  0  1  0  0  0  0  0  0  0  0  0
    1.8376    0.8505    1.7049 H   0  0  0  0  0  0  0  0  0  0  0  0
    0.1476    0.8806    3.0175 C   0  0  0  0  0  0  0  0  0  0  0  0
   -0.7606    0.3080    3.2271 H   0  0  0  0  0  0  0  0  0  0  0  0
    0.7644    0.8946    3.9213 H   0  0  0  0  0  0  0  0  0  0  0  0
   -0.1356    1.9097    2.7779 H   0  0  0  0  0  0  0  0  0  0  0  0
    1.3126   -1.0545    2.2657 O   0  0  0  0  0  0  0  0  0  0  0  0
    0.5088   -1.6397    2.2647 H   0  0  0  0  0  0  0  0  0  0  0  0
    0.9400   -0.1470   -0.6539 C   0  0  0  0  0  0  0  0  0  0  0  0
    0.6010    0.2206   -1.7724 O   0  0  0  0  0  0  0  0  0  0  0  0
    1.9991   -1.0239   -0.5184 N   0  0  0  0  0  0  0  0  0  0  0  0
    2.1786   -1.3706    0.4266 H   0  0  0  0  0  0  0  0  0  0  0  0
    2.7559   -1.5705   -1.6360 C   0  0  0  0  0  0  0  0  0  0  0  0
    3.2079   -0.7647   -2.2236 H   0  0  0  0  0  0  0  0  0  0  0  0
    3.5564   -2.2186   -1.2668 H   0  0  0  0  0  0  0  0  0  0  0  0
    2.1041   -2.1610   -2.2880 H   0  0  0  0  0  0  0  0  0  0  0  0
  1  2  1  0  0  0  0
  2  3  1  0  0  0  0
  2  4  1  0  0  0  0
  2  5  1  0  0  0  0
  5  6  2  0  0  0  0
  5  7  1  0  0  0  0
  7  8  1  0  0  0  0
  7  9  1  0  0  0  0
  9 10  1  0  0  0  0
  9 11  1  0  0  0  0
  9 19  1  0  0  0  0
 11 12  1  0  0  0  0
 11 13  1  0  0  0  0
 11 17  1  0  0  0  0
 13 14  1  0  0  0  0
 13 15  1  0  0  0  0
 13 16  1  0  0  0  0
 17 18  1  0  0  0  0
 19 20  2  0  0  0  0
 19 21  1  0  0  0  0
 21 22  1  0  0  0  0
 21 23  1  0  0  0  0
 23 24  1  0  0  0  0
 23 25  1  0  0  0  0
 23 26  1  0  0  0  0
M  END
$$$$

  -OEChem-01062216093D

 26 25  0     1  0  0  0  0  0999 V2000
   -3.1985   -3.0970    1.2616 H   0  0  0  0  0  0  0  0  0  0  0  0
   -3.0341   -2.1381    0.7617 C   0  0  0  0  0  0  0  0  0  0  0  0
   -3.7788   -1.4232    1.1200 H   0  0  0  0  0  0  0  0  0  0  0  0
   -3.1607   -2.2783   -0.3147 H   0  0  0  0  0  0  0  0  0  0  0  0
   -1.6375   -1.6237    1.0578 C   0  0  0  0  0  0  0  0  0  0  0  0
   -0.9075   -2.2832    1.7781 O   0  0  0  0  0  0  0  0  0  0  0  0
   -1.2404   -0.4232    0.4986 N   0  0  0  0  0  0  0  0  0  0  0  0
   -1.9144   -0.0299   -0.1537 H   0  0  0  0  0  0  0  0  0  0  0  0
    0.0786    0.2634    0.5264 C   0  0  1  0  0  0  0  0  0  0  0  0
   -0.1313    1.3238    0.3553 H   0  0  0  0  0  0  0  0  0  0  0  0
    0.9260    0.2295    1.8276 C   0  0  1  0  0  0  0  0  0  0  0  0
    1.8391    0.8117    1.6607 H   0  0  0  0  0  0  0  0  0  0  0  0
    0.1591    0.8644    2.9868 C   0  0  0  0  0  0  0  0  0  0  0  0
   -0.7518    0.3001    3.2066 H   0  0  0  0  0  0  0  0  0  0  0  0
    0.7841    0.8780    3.8851 H   0  0  0  0  0  0  0  0  0  0  0  0
   -0.1172    1.8946    2.7443 H   0  0  0  0  0  0  0  0  0  0  0  0
    1.3007   -1.0847    2.2367 O   0  0  0  0  0  0  0  0  0  0  0  0
    0.4909   -1.6608    2.2496 H   0  0  0  0  0  0  0  0  0  0  0  0
    0.9310   -0.1876   -0.6748 C   0  0  0  0  0  0  0  0  0  0  0  0
    0.7532    0.3525   -1.7595 O   0  0  0  0  0  0  0  0  0  0  0  0
    1.7743   -1.2782   -0.5885 N   0  0  0  0  0  0  0  0  0  0  0  0
    1.9049   -1.6724    0.3452 H   0  0  0  0  0  0  0  0  0  0  0  0
    2.5733   -1.7833   -1.6963 C   0  0  0  0  0  0  0  0  0  0  0  0
    3.2362   -1.0006   -2.0795 H   0  0  0  0  0  0  0  0  0  0  0  0
    3.1882   -2.6249   -1.3633 H   0  0  0  0  0  0  0  0  0  0  0  0
    1.9259   -2.1280   -2.5091 H   0  0  0  0  0  0  0  0  0  0  0  0
  1  2  1  0  0  0  0
  2  3  1  0  0  0  0
  2  4  1  0  0  0  0
  2  5  1  0  0  0  0
  5  6  2  0  0  0  0
  5  7  1  0  0  0  0
  7  8  1  0  0  0  0
  7  9  1  0  0  0  0
  9 10  1  0  0  0  0
  9 11  1  0  0  0  0
  9 19  1  0  0  0  0
 11 12  1  0  0  0  0
 11 13  1  0  0  0  0
 11 17  1  0  0  0  0
 13 14  1  0  0  0  0
 13 15  1  0  0  0  0
 13 16  1  0  0  0  0
 17 18  1  0  0  0  0
 19 20  2  0  0  0  0
 19 21  1  0  0  0  0
 21 22  1  0  0  0  0
 21 23  1  0  0  0  0
 23 24  1  0  0  0  0
 23 25  1  0  0  0  0
 23 26  1  0  0  0  0
M  END
$$$$

  -OEChem-01062216093D

 26 25  0     1  0  0  0  0  0999 V2000
   -3.2308   -3.0761    1.3054 H   0  0  0  0  0  0  0  0  0  0  0  0
   -3.0650   -2.1214    0.7979 C   0  0  0  0  0  0  0  0  0  0  0  0
   -3.7903   -1.3949    1.1725 H   0  0  0  0  0  0  0  0  0  0  0  0
   -3.2212   -2.2633   -0.2744 H   0  0  0  0  0  0  0  0  0  0  0  0
   -1.6537   -1.6274    1.0563 C   0  0  0  0  0  0  0  0  0  0  0  0
   -0.9082   -2.3046    1.7436 O   0  0  0  0  0  0  0  0  0  0  0  0
   -1.2548   -0.4320    0.4874 N   0  0  0  0  0  0  0  0  0  0  0  0
   -1.9497   -0.0133   -0.1256 H   0  0  0  0  0  0  0  0  0  0  0  0
    0.0662    0.2524    0.5049 C   0  0  1  0  0  0  0  0  0  0  0  0
   -0.1438    1.3131    0.3353 H   0  0  0  0  0  0  0  0  0  0  0  0
    0.9251    0.2142    1.7964 C   0  0  1  0  0  0  0  0  0  0  0  0
    1.8383    0.7944    1.6217 H   0  0  0  0  0  0  0  0  0  0  0  0
    0.1702    0.8491    2.9634 C   0  0  0  0  0  0  0  0  0  0  0  0
   -0.7412    0.2882    3.1900 H   0  0  0  0  0  0  0  0  0  0  0  0
    0.8024    0.8584    3.8566 H   0  0  0  0  0  0  0  0  0  0  0  0
   -0.1043    1.8809    2.7248 H   0  0  0  0  0  0  0  0  0  0  0  0
    1.3001   -1.1025    2.1968 O   0  0  0  0  0  0  0  0  0  0  0  0
    0.4894   -1.6755    2.2239 H   0  0  0  0  0  0  0  0  0  0  0  0
    0.9188   -0.2040   -0.6924 C   0  0  0  0  0  0  0  0  0  0  0  0
    0.9465    0.4887   -1.7018 O   0  0  0  0  0  0  0  0  0  0  0  0
    1.5168   -1.4496   -0.7019 N   0  0  0  0  0  0  0  0  0  0  0  0
    1.5472   -1.9347    0.1958 H   0  0  0  0  0  0  0  0  0  0  0  0
    2.3334   -1.9454   -1.8015 C   0  0  0  0  0  0  0  0  0  0  0  0
    3.1908   -1.2859   -1.9707 H   0  0  0  0  0  0  0  0  0  0  0  0
    2.7072   -2.9477   -1.5707 H   0  0  0  0  0  0  0  0  0  0  0  0
    1.7430   -2.0011   -2.7219 H   0  0  0  0  0  0  0  0  0  0  0  0
  1  2  1  0  0  0  0
  2  3  1  0  0  0  0
  2  4  1  0  0  0  0
  2  5  1  0  0  0  0
  5  6  2  0  0  0  0
  5  7  1  0  0  0  0
  7  8  1  0  0  0  0
  7  9  1  0  0  0  0
  9 10  1  0  0  0  0
  9 11  1  0  0  0  0
  9 19  1  0  0  0  0
 11 12  1  0  0  0  0
 11 13  1  0  0  0  0
 11 17  1  0  0  0  0
 13 14  1  0  0  0  0
 13 15  1  0  0  0  0
 13 16  1  0  0  0  0
 17 18  1  0  0  0  0
 19 20  2  0  0  0  0
 19 21  1  0  0  0  0
 21 22  1  0  0  0  0
 21 23  1  0  0  0  0
 23 24  1  0  0  0  0
 23 25  1  0  0  0  0
 23 26  1  0  0  0  0
M  END
$$$$

  -OEChem-01062216093D

 26 25  0     1  0  0  0  0  0999 V2000
   -3.2512   -3.0435    1.3985 H   0  0  0  0  0  0  0  0  0  0  0  0
   -3.0976   -2.0925    0.8803 C   0  0  0  0  0  0  0  0  0  0  0  0
   -3.7672   -1.3455    1.3137 H   0  0  0  0  0  0  0  0  0  0  0  0
   -3.3441   -2.2253   -0.1761 H   0  0  0  0  0  0  0  0  0  0  0  0
   -1.6556   -1.6441    1.0239 C   0  0  0  0  0  0  0  0  0  0  0  0
   -0.8622   -2.3718    1.5963 O   0  0  0  0  0  0  0  0  0  0  0  0
   -1.2676   -0.4466    0.4541 N   0  0  0  0  0  0  0  0  0  0  0  0
   -2.0010    0.0260   -0.0679 H   0  0  0  0  0  0  0  0  0  0  0  0
    0.0520    0.2414    0.4733 C   0  0  1  0  0  0  0  0  0  0  0  0
   -0.1625    1.3014    0.3050 H   0  0  0  0  0  0  0  0  0  0  0  0
    0.9116    0.2025    1.7630 C   0  0  1  0  0  0  0  0  0  0  0  0
    1.8222    0.7874    1.5908 H   0  0  0  0  0  0  0  0  0  0  0  0
    0.1533    0.8300    2.9317 C   0  0  0  0  0  0  0  0  0  0  0  0
   -0.7520    0.2602    3.1604 H   0  0  0  0  0  0  0  0  0  0  0  0
    0.7880    0.8452    3.8230 H   0  0  0  0  0  0  0  0  0  0  0  0
   -0.1312    1.8593    2.6942 H   0  0  0  0  0  0  0  0  0  0  0  0
    1.2922   -1.1122    2.1614 O   0  0  0  0  0  0  0  0  0  0  0  0
    0.4975   -1.7050    2.1442 H   0  0  0  0  0  0  0  0  0  0  0  0
    0.9125   -0.2072   -0.7200 C   0  0  0  0  0  0  0  0  0  0  0  0
    1.2046    0.6013   -1.5918 O   0  0  0  0  0  0  0  0  0  0  0  0
    1.2545   -1.5379   -0.8713 N   0  0  0  0  0  0  0  0  0  0  0  0
    1.0841   -2.1363   -0.0634 H   0  0  0  0  0  0  0  0  0  0  0  0
    2.1079   -2.0297   -1.9441 C   0  0  0  0  0  0  0  0  0  0  0  0
    3.0996   -1.5693   -1.8858 H   0  0  0  0  0  0  0  0  0  0  0  0
    2.2235   -3.1150   -1.8656 H   0  0  0  0  0  0  0  0  0  0  0  0
    1.6683   -1.7997   -2.9202 H   0  0  0  0  0  0  0  0  0  0  0  0
  1  2  1  0  0  0  0
  2  3  1  0  0  0  0
  2  4  1  0  0  0  0
  2  5  1  0  0  0  0
  5  6  2  0  0  0  0
  5  7  1  0  0  0  0
  7  8  1  0  0  0  0
  7  9  1  0  0  0  0
  9 10  1  0  0  0  0
  9 11  1  0  0  0  0
  9 19  1  0  0  0  0
 11 12  1  0  0  0  0
 11 13  1  0  0  0  0
 11 17  1  0  0  0  0
 13 14  1  0  0  0  0
 13 15  1  0  0  0  0
 13 16  1  0  0  0  0
 17 18  1  0  0  0  0
 19 20  2  0  0  0  0
 19 21  1  0  0  0  0
 21 22  1  0  0  0  0
 21 23  1  0  0  0  0
 23 24  1  0  0  0  0
 23 25  1  0  0  0  0
 23 26  1  0  0  0  0
M  END
$$$$

  -OEChem-01062216093D

 26 25  0     1  0  0  0  0  0999 V2000
   -3.2557   -3.0152    1.4872 H   0  0  0  0  0  0  0  0  0  0  0  0
   -3.1205   -2.0595    0.9725 C   0  0  0  0  0  0  0  0  0  0  0  0
   -3.7247   -1.3019    1.4776 H   0  0  0  0  0  0  0  0  0  0  0  0
   -3.4660   -2.1641   -0.0590 H   0  0  0  0  0  0  0  0  0  0  0  0
   -1.6584   -1.6560    0.9917 C   0  0  0  0  0  0  0  0  0  0  0  0
   -0.8294   -2.4312    1.4371 O   0  0  0  0  0  0  0  0  0  0  0  0
   -1.2812   -0.4568    0.4199 N   0  0  0  0  0  0  0  0  0  0  0  0
   -2.0458    0.0683    0.0039 H   0  0  0  0  0  0  0  0  0  0  0  0
    0.0378    0.2344    0.4413 C   0  0  1  0  0  0  0  0  0  0  0  0
   -0.1790    1.2940    0.2733 H   0  0  0  0  0  0  0  0  0  0  0  0
    0.8906    0.1906    1.7351 C   0  0  1  0  0  0  0  0  0  0  0  0
    1.8015    0.7776    1.5713 H   0  0  0  0  0  0  0  0  0  0  0  0
    0.1250    0.8115    2.9027 C   0  0  0  0  0  0  0  0  0  0  0  0
   -0.7794    0.2383    3.1257 H   0  0  0  0  0  0  0  0  0  0  0  0
    0.7560    0.8249    3.7967 H   0  0  0  0  0  0  0  0  0  0  0  0
   -0.1608    1.8412    2.6681 H   0  0  0  0  0  0  0  0  0  0  0  0
    1.2707   -1.1249    2.1312 O   0  0  0  0  0  0  0  0  0  0  0  0
    0.4988   -1.7393    2.0443 H   0  0  0  0  0  0  0  0  0  0  0  0
    0.9135   -0.2027   -0.7453 C   0  0  0  0  0  0  0  0  0  0  0  0
    1.4528    0.6445   -1.4454 O   0  0  0  0  0  0  0  0  0  0  0  0
    1.0135   -1.5414   -1.0775 N   0  0  0  0  0  0  0  0  0  0  0  0
    0.6557   -2.1989   -0.3849 H   0  0  0  0  0  0  0  0  0  0  0  0
    1.8877   -2.0387   -2.1309 C   0  0  0  0  0  0  0  0  0  0  0  0
    2.9328   -1.8053   -1.9022 H   0  0  0  0  0  0  0  0  0  0  0  0
    1.7859   -3.1243   -2.2232 H   0  0  0  0  0  0  0  0  0  0  0  0
    1.6268   -1.5854   -3.0929 H   0  0  0  0  0  0  0  0  0  0  0  0
  1  2  1  0  0  0  0
  2  3  1  0  0  0  0
  2  4  1  0  0  0  0
  2  5  1  0  0  0  0
  5  6  2  0  0  0  0
  5  7  1  0  0  0  0
  7  8  1  0  0  0  0
  7  9  1  0  0  0  0
  9 10  1  0  0  0  0
  9 11  1  0  0  0  0
  9 19  1  0  0  0  0
 11 12  1  0  0  0  0
 11 13  1  0  0  0  0
 11 17  1  0  0  0  0
 13 14  1  0  0  0  0
 13 15  1  0  0  0  0
 13 16  1  0  0  0  0
 17 18  1  0  0  0  0
 19 20  2  0  0  0  0
 19 21  1  0  0  0  0
 21 22  1  0  0  0  0
 21 23  1  0  0  0  0
 23 24  1  0  0  0  0
 23 25  1  0  0  0  0
 23 26  1  0  0  0  0
M  END
$$$$

  -OEChem-01062216093D

 26 25  0     1  0  0  0  0  0999 V2000
   -3.2589   -2.9967    1.5384 H   0  0  0  0  0  0  0  0  0  0  0  0
   -3.1327   -2.0390    1.0251 C   0  0  0  0  0  0  0  0  0  0  0  0
   -3.7047   -1.2776    1.5609 H   0  0  0  0  0  0  0  0  0  0  0  0
   -3.5234   -2.1312    0.0087 H   0  0  0  0  0  0  0  0  0  0  0  0
   -1.6655   -1.6561    0.9854 C   0  0  0  0  0  0  0  0  0  0  0  0
   -0.8273   -2.4538    1.3674 O   0  0  0  0  0  0  0  0  0  0  0  0
   -1.2925   -0.4589    0.4079 N   0  0  0  0  0  0  0  0  0  0  0  0
   -2.0687    0.0878    0.0444 H   0  0  0  0  0  0  0  0  0  0  0  0
    0.0275    0.2336    0.4239 C   0  0  1  0  0  0  0  0  0  0  0  0
   -0.1886    1.2932    0.2556 H   0  0  0  0  0  0  0  0  0  0  0  0
    0.8773    0.1831    1.7199 C   0  0  1  0  0  0  0  0  0  0  0  0
    1.7900    0.7694    1.5629 H   0  0  0  0  0  0  0  0  0  0  0  0
    0.1107    0.8001    2.8892 C   0  0  0  0  0  0  0  0  0  0  0  0
   -0.7940    0.2268    3.1102 H   0  0  0  0  0  0  0  0  0  0  0  0
    0.7413    0.8097    3.7836 H   0  0  0  0  0  0  0  0  0  0  0  0
   -0.1743    1.8306    2.6582 H   0  0  0  0  0  0  0  0  0  0  0  0
    1.2534   -1.1354    2.1109 O   0  0  0  0  0  0  0  0  0  0  0  0
    0.4952   -1.7589    1.9801 H   0  0  0  0  0  0  0  0  0  0  0  0
    0.9142   -0.1976   -0.7584 C   0  0  0  0  0  0  0  0  0  0  0  0
    1.6417    0.6256   -1.2989 O   0  0  0  0  0  0  0  0  0  0  0  0
    0.7977   -1.4691   -1.2910 N   0  0  0  0  0  0  0  0  0  0  0  0
    0.3141   -2.1466   -0.7029 H   0  0  0  0  0  0  0  0  0  0  0  0
    1.6612   -1.9641   -2.3550 C   0  0  0  0  0  0  0  0  0  0  0  0
    2.7064   -1.9688   -2.0285 H   0  0  0  0  0  0  0  0  0  0  0  0
    1.3769   -2.9854   -2.6259 H   0  0  0  0  0  0  0  0  0  0  0  0
    1.5722   -1.3345   -3.2465 H   0  0  0  0  0  0  0  0  0  0  0  0
  1  2  1  0  0  0  0
  2  3  1  0  0  0  0
  2  4  1  0  0  0  0
  2  5  1  0  0  0  0
  5  6  2  0  0  0  0
  5  7  1  0  0  0  0
  7  8  1  0  0  0  0
  7  9  1  0  0  0  0
  9 10  1  0  0  0  0
  9 11  1  0  0  0  0
  9 19  1  0  0  0  0
 11 12  1  0  0  0  0
 11 13  1  0  0  0  0
 11 17  1  0  0  0  0
 13 14  1  0  0  0  0
 13 15  1  0  0  0  0
 13 16  1  0  0  0  0
 17 18  1  0  0  0  0
 19 20  2  0  0  0  0
 19 21  1  0  0  0  0
 21 22  1  0  0  0  0
 21 23  1  0  0  0  0
 23 24  1  0  0  0  0
 23 25  1  0  0  0  0
 23 26  1  0  0  0  0
M  END
$$$$

  -OEChem-01062216093D

 26 25  0     1  0  0  0  0  0999 V2000
   -3.1725   -2.9397    1.6958 H   0  0  0  0  0  0  0  0  0  0  0  0
   -3.0897   -1.9277    1.2897 C   0  0  0  0  0  0  0  0  0  0  0  0
   -3.2849   -1.2125    2.0920 H   0  0  0  0  0  0  0  0  0  0  0  0
   -3.8383   -1.7996    0.5042 H   0  0  0  0  0  0  0  0  0  0  0  0
   -1.6990   -1.7085    0.7245 C   0  0  0  0  0  0  0  0  0  0  0  0
   -0.9860   -2.6693    0.4878 O   0  0  0  0  0  0  0  0  0  0  0  0
   -1.3561   -0.4805    0.1975 N   0  0  0  0  0  0  0  0  0  0  0  0
   -2.1213    0.1849    0.2310 H   0  0  0  0  0  0  0  0  0  0  0  0
   -0.0104    0.1376    0.3244 C   0  0  1  0  0  0  0  0  0  0  0  0
   -0.1798    1.2058    0.1614 H   0  0  0  0  0  0  0  0  0  0  0  0
    0.6894    0.0549    1.7065 C   0  0  1  0  0  0  0  0  0  0  0  0
    1.6517    0.5740    1.6309 H   0  0  0  0  0  0  0  0  0  0  0  0
   -0.1432    0.7456    2.7866 C   0  0  0  0  0  0  0  0  0  0  0  0
   -1.0989    0.2327    2.9272 H   0  0  0  0  0  0  0  0  0  0  0  0
    0.3961    0.7414    3.7384 H   0  0  0  0  0  0  0  0  0  0  0  0
   -0.3404    1.7855    2.5095 H   0  0  0  0  0  0  0  0  0  0  0  0
    0.9320   -1.2802    2.1422 O   0  0  0  0  0  0  0  0  0  0  0  0
    1.4947   -1.2950    2.9341 H   0  0  0  0  0  0  0  0  0  0  0  0
    0.9505   -0.2441   -0.8170 C   0  0  0  0  0  0  0  0  0  0  0  0
    1.9233    0.4650   -1.0501 O   0  0  0  0  0  0  0  0  0  0  0  0
    0.6595   -1.3092   -1.6477 N   0  0  0  0  0  0  0  0  0  0  0  0
   -0.0149   -1.9703   -1.2545 H   0  0  0  0  0  0  0  0  0  0  0  0
    1.5774   -1.7864   -2.6724 C   0  0  0  0  0  0  0  0  0  0  0  0
    2.5121   -2.1301   -2.2176 H   0  0  0  0  0  0  0  0  0  0  0  0
    1.1286   -2.6206   -3.2201 H   0  0  0  0  0  0  0  0  0  0  0  0
    1.8045   -0.9885   -3.3871 H   0  0  0  0  0  0  0  0  0  0  0  0
  1  2  1  0  0  0  0
  2  3  1  0  0  0  0
  2  4  1  0  0  0  0
  2  5  1  0  0  0  0
  5  6  2  0  0  0  0
  5  7  1  0  0  0  0
  7  8  1  0  0  0  0
  7  9  1  0  0  0  0
  9 10  1  0  0  0  0
  9 11  1  0  0  0  0
  9 19  1  0  0  0  0
 11 12  1  0  0  0  0
 11 13  1  0  0  0  0
 11 17  1  0  0  0  0
 13 14  1  0  0  0  0
 13 15  1  0  0  0  0
 13 16  1  0  0  0  0
 17 18  1  0  0  0  0
 19 20  2  0  0  0  0
 19 21  1  0  0  0  0
 21 22  1  0  0  0  0
 21 23  1  0  0  0  0
 23 24  1  0  0  0  0
 23 25  1  0  0  0  0
 23 26  1  0  0  0  0
M  END
$$$$

  -OEChem-01062216093D

 26 25  0     1  0  0  0  0  0999 V2000
   -3.1490   -2.9513    1.7038 H   0  0  0  0  0  0  0  0  0  0  0  0
   -3.0705   -1.9329    1.3128 C   0  0  0  0  0  0  0  0  0  0  0  0
   -3.2433   -1.2307    2.1315 H   0  0  0  0  0  0  0  0  0  0  0  0
   -3.8362   -1.7883    0.5469 H   0  0  0  0  0  0  0  0  0  0  0  0
   -1.6916   -1.7112    0.7203 C   0  0  0  0  0  0  0  0  0  0  0  0
   -0.9908   -2.6705    0.4474 O   0  0  0  0  0  0  0  0  0  0  0  0
   -1.3548   -0.4808    0.1955 N   0  0  0  0  0  0  0  0  0  0  0  0
   -2.1163    0.1870    0.2567 H   0  0  0  0  0  0  0  0  0  0  0  0
   -0.0061    0.1310    0.3246 C   0  0  1  0  0  0  0  0  0  0  0  0
   -0.1699    1.1997    0.1611 H   0  0  0  0  0  0  0  0  0  0  0  0
    0.6820    0.0465    1.7140 C   0  0  1  0  0  0  0  0  0  0  0  0
    1.6486    0.5581    1.6479 H   0  0  0  0  0  0  0  0  0  0  0  0
   -0.1528    0.7466    2.7866 C   0  0  0  0  0  0  0  0  0  0  0  0
   -1.1138    0.2423    2.9215 H   0  0  0  0  0  0  0  0  0  0  0  0
    0.3798    0.7395    3.7423 H   0  0  0  0  0  0  0  0  0  0  0  0
   -0.3391    1.7878    2.5066 H   0  0  0  0  0  0  0  0  0  0  0  0
    0.9115   -1.2895    2.1542 O   0  0  0  0  0  0  0  0  0  0  0  0
    1.5075   -1.3090    2.9212 H   0  0  0  0  0  0  0  0  0  0  0  0
    0.9521   -0.2502   -0.8210 C   0  0  0  0  0  0  0  0  0  0  0  0
    2.0300    0.3243   -0.9285 O   0  0  0  0  0  0  0  0  0  0  0  0
    0.5245   -1.0895   -1.8327 N   0  0  0  0  0  0  0  0  0  0  0  0
   -0.2519   -1.6943   -1.5635 H   0  0  0  0  0  0  0  0  0  0  0  0
    1.4023   -1.5381   -2.9051 C   0  0  0  0  0  0  0  0  0  0  0  0
    2.2426   -2.1096   -2.4974 H   0  0  0  0  0  0  0  0  0  0  0  0
    0.8501   -2.1777   -3.6002 H   0  0  0  0  0  0  0  0  0  0  0  0
    1.7951   -0.6824   -3.4641 H   0  0  0  0  0  0  0  0  0  0  0  0
  1  2  1  0  0  0  0
  2  3  1  0  0  0  0
  2  4  1  0  0  0  0
  2  5  1  0  0  0  0
  5  6  2  0  0  0  0
  5  7  1  0  0  0  0
  7  8  1  0  0  0  0
  7  9  1  0  0  0  0
  9 10  1  0  0  0  0
  9 11  1  0  0  0  0
  9 19  1  0  0  0  0
 11 12  1  0  0  0  0
 11 13  1  0  0  0  0
 11 17  1  0  0  0  0
 13 14  1  0  0  0  0
 13 15  1  0  0  0  0
 13 16  1  0  0  0  0
 17 18  1  0  0  0  0
 19 20  2  0  0  0  0
 19 21  1  0  0  0  0
 21 22  1  0  0  0  0
 21 23  1  0  0  0  0
 23 24  1  0  0  0  0
 23 25  1  0  0  0  0
 23 26  1  0  0  0  0
M  END
$$$$

  -OEChem-01062216093D

 26 25  0     1  0  0  0  0  0999 V2000
   -3.1396   -2.9803    1.6712 H   0  0  0  0  0  0  0  0  0  0  0  0
   -3.0524   -1.9503    1.3138 C   0  0  0  0  0  0  0  0  0  0  0  0
   -3.2113   -1.2736    2.1565 H   0  0  0  0  0  0  0  0  0  0  0  0
   -3.8221   -1.7723    0.5591 H   0  0  0  0  0  0  0  0  0  0  0  0
   -1.6758   -1.7233    0.7179 C   0  0  0  0  0  0  0  0  0  0  0  0
   -0.9698   -2.6799    0.4518 O   0  0  0  0  0  0  0  0  0  0  0  0
   -1.3471   -0.4888    0.1964 N   0  0  0  0  0  0  0  0  0  0  0  0
   -2.1094    0.1764    0.2747 H   0  0  0  0  0  0  0  0  0  0  0  0
    0.0009    0.1247    0.3245 C   0  0  1  0  0  0  0  0  0  0  0  0
   -0.1640    1.1928    0.1594 H   0  0  0  0  0  0  0  0  0  0  0  0
    0.6809    0.0473    1.7203 C   0  0  1  0  0  0  0  0  0  0  0  0
    1.6466    0.5612    1.6609 H   0  0  0  0  0  0  0  0  0  0  0  0
   -0.1628    0.7502    2.7843 C   0  0  0  0  0  0  0  0  0  0  0  0
   -1.1223    0.2424    2.9165 H   0  0  0  0  0  0  0  0  0  0  0  0
    0.3641    0.7503    3.7433 H   0  0  0  0  0  0  0  0  0  0  0  0
   -0.3516    1.7889    2.4976 H   0  0  0  0  0  0  0  0  0  0  0  0
    0.9074   -1.2859    2.1705 O   0  0  0  0  0  0  0  0  0  0  0  0
    1.5265   -1.3038    2.9188 H   0  0  0  0  0  0  0  0  0  0  0  0
    0.9537   -0.2519   -0.8291 C   0  0  0  0  0  0  0  0  0  0  0  0
    2.1132    0.1470   -0.8265 O   0  0  0  0  0  0  0  0  0  0  0  0
    0.4431   -0.8186   -1.9826 N   0  0  0  0  0  0  0  0  0  0  0  0
   -0.4440   -1.3000   -1.8503 H   0  0  0  0  0  0  0  0  0  0  0  0
    1.2899   -1.2373   -3.0921 C   0  0  0  0  0  0  0  0  0  0  0  0
    1.9940   -2.0094   -2.7646 H   0  0  0  0  0  0  0  0  0  0  0  0
    0.6765   -1.6459   -3.9008 H   0  0  0  0  0  0  0  0  0  0  0  0
    1.8563   -0.3872   -3.4865 H   0  0  0  0  0  0  0  0  0  0  0  0
  1  2  1  0  0  0  0
  2  3  1  0  0  0  0
  2  4  1  0  0  0  0
  2  5  1  0  0  0  0
  5  6  2  0  0  0  0
  5  7  1  0  0  0  0
  7  8  1  0  0  0  0
  7  9  1  0  0  0  0
  9 10  1  0  0  0  0
  9 11  1  0  0  0  0
  9 19  1  0  0  0  0
 11 12  1  0  0  0  0
 11 13  1  0  0  0  0
 11 17  1  0  0  0  0
 13 14  1  0  0  0  0
 13 15  1  0  0  0  0
 13 16  1  0  0  0  0
 17 18  1  0  0  0  0
 19 20  2  0  0  0  0
 19 21  1  0  0  0  0
 21 22  1  0  0  0  0
 21 23  1  0  0  0  0
 23 24  1  0  0  0  0
 23 25  1  0  0  0  0
 23 26  1  0  0  0  0
M  END
$$$$

  -OEChem-01062216093D

 26 25  0     1  0  0  0  0  0999 V2000
   -3.1188   -2.9893    1.6902 H   0  0  0  0  0  0  0  0  0  0  0  0
   -3.0471   -1.9730    1.2922 C   0  0  0  0  0  0  0  0  0  0  0  0
   -3.2376   -1.2666    2.1036 H   0  0  0  0  0  0  0  0  0  0  0  0
   -3.8052   -1.8433    0.5161 H   0  0  0  0  0  0  0  0  0  0  0  0
   -1.6643   -1.7399    0.7130 C   0  0  0  0  0  0  0  0  0  0  0  0
   -0.9468   -2.6944    0.4730 O   0  0  0  0  0  0  0  0  0  0  0  0
   -1.3368   -0.5013    0.1983 N   0  0  0  0  0  0  0  0  0  0  0  0
   -2.0990    0.1626    0.2862 H   0  0  0  0  0  0  0  0  0  0  0  0
    0.0118    0.1082    0.3294 C   0  0  1  0  0  0  0  0  0  0  0  0
   -0.1521    1.1760    0.1623 H   0  0  0  0  0  0  0  0  0  0  0  0
    0.6814    0.0421    1.7317 C   0  0  1  0  0  0  0  0  0  0  0  0
    1.6496    0.5515    1.6731 H   0  0  0  0  0  0  0  0  0  0  0  0
   -0.1652    0.7618    2.7820 C   0  0  0  0  0  0  0  0  0  0  0  0
   -1.1299    0.2630    2.9109 H   0  0  0  0  0  0  0  0  0  0  0  0
    0.3539    0.7661    3.7451 H   0  0  0  0  0  0  0  0  0  0  0  0
   -0.3431    1.7994    2.4843 H   0  0  0  0  0  0  0  0  0  0  0  0
    0.8998   -1.2866    2.1988 O   0  0  0  0  0  0  0  0  0  0  0  0
    1.5693   -1.3064    2.9021 H   0  0  0  0  0  0  0  0  0  0  0  0
    0.9591   -0.2651   -0.8307 C   0  0  0  0  0  0  0  0  0  0  0  0
    2.1686   -0.0861   -0.7376 O   0  0  0  0  0  0  0  0  0  0  0  0
    0.4235   -0.5228   -2.0800 N   0  0  0  0  0  0  0  0  0  0  0  0
   -0.5474   -0.8235   -2.0710 H   0  0  0  0  0  0  0  0  0  0  0  0
    1.2457   -0.8862   -3.2272 C   0  0  0  0  0  0  0  0  0  0  0  0
    1.7984   -1.8093   -3.0237 H   0  0  0  0  0  0  0  0  0  0  0  0
    0.6159   -1.0445   -4.1078 H   0  0  0  0  0  0  0  0  0  0  0  0
    1.9612   -0.0894   -3.4556 H   0  0  0  0  0  0  0  0  0  0  0  0
  1  2  1  0  0  0  0
  2  3  1  0  0  0  0
  2  4  1  0  0  0  0
  2  5  1  0  0  0  0
  5  6  2  0  0  0  0
  5  7  1  0  0  0  0
  7  8  1  0  0  0  0
  7  9  1  0  0  0  0
  9 10  1  0  0  0  0
  9 11  1  0  0  0  0
  9 19  1  0  0  0  0
 11 12  1  0  0  0  0
 11 13  1  0  0  0  0
 11 17  1  0  0  0  0
 13 14  1  0  0  0  0
 13 15  1  0  0  0  0
 13 16  1  0  0  0  0
 17 18  1  0  0  0  0
 19 20  2  0  0  0  0
 19 21  1  0  0  0  0
 21 22  1  0  0  0  0
 21 23  1  0  0  0  0
 23 24  1  0  0  0  0
 23 25  1  0  0  0  0
 23 26  1  0  0  0  0
M  END
$$$$

  -OEChem-01062216093D

 26 25  0     1  0  0  0  0  0999 V2000
   -3.1398   -3.1105    1.4759 H   0  0  0  0  0  0  0  0  0  0  0  0
   -3.0414   -2.1261    1.0091 C   0  0  0  0  0  0  0  0  0  0  0  0
   -3.5955   -1.3987    1.6073 H   0  0  0  0  0  0  0  0  0  0  0  0
   -3.4727   -2.1694    0.0061 H   0  0  0  0  0  0  0  0  0  0  0  0
   -1.5791   -1.7299    0.9302 C   0  0  0  0  0  0  0  0  0  0  0  0
   -0.7279   -2.5184    1.2981 O   0  0  0  0  0  0  0  0  0  0  0  0
   -1.2394   -0.5099    0.3767 N   0  0  0  0  0  0  0  0  0  0  0  0
   -2.0402    0.0655    0.1328 H   0  0  0  0  0  0  0  0  0  0  0  0
    0.0730    0.1944    0.4253 C   0  0  1  0  0  0  0  0  0  0  0  0
   -0.1530    1.2477    0.2378 H   0  0  0  0  0  0  0  0  0  0  0  0
    0.8304    0.1980    1.7868 C   0  0  1  0  0  0  0  0  0  0  0  0
    1.7481    0.7869    1.6782 H   0  0  0  0  0  0  0  0  0  0  0  0
   -0.0251    0.8567    2.8700 C   0  0  0  0  0  0  0  0  0  0  0  0
   -0.9372    0.2813    3.0513 H   0  0  0  0  0  0  0  0  0  0  0  0
    0.5397    0.9122    3.8058 H   0  0  0  0  0  0  0  0  0  0  0  0
   -0.3023    1.8730    2.5759 H   0  0  0  0  0  0  0  0  0  0  0  0
    1.1845   -1.0943    2.2753 O   0  0  0  0  0  0  0  0  0  0  0  0
    0.5213   -1.7676    1.9787 H   0  0  0  0  0  0  0  0  0  0  0  0
    0.9765   -0.2031   -0.7660 C   0  0  0  0  0  0  0  0  0  0  0  0
    2.1951   -0.2528   -0.6728 O   0  0  0  0  0  0  0  0  0  0  0  0
    0.4230   -0.2581   -2.0349 N   0  0  0  0  0  0  0  0  0  0  0  0
   -0.5892   -0.2913   -2.0895 H   0  0  0  0  0  0  0  0  0  0  0  0
    1.1975   -0.5784   -3.2287 C   0  0  0  0  0  0  0  0  0  0  0  0
    1.6583   -1.5672   -3.1324 H   0  0  0  0  0  0  0  0  0  0  0  0
    0.5496   -0.5821   -4.1104 H   0  0  0  0  0  0  0  0  0  0  0  0
    1.9869    0.1646   -3.3849 H   0  0  0  0  0  0  0  0  0  0  0  0
  1  2  1  0  0  0  0
  2  3  1  0  0  0  0
  2  4  1  0  0  0  0
  2  5  1  0  0  0  0
  5  6  2  0  0  0  0
  5  7  1  0  0  0  0
  7  8  1  0  0  0  0
  7  9  1  0  0  0  0
  9 10  1  0  0  0  0
  9 11  1  0  0  0  0
  9 19  1  0  0  0  0
 11 12  1  0  0  0  0
 11 13  1  0  0  0  0
 11 17  1  0  0  0  0
 13 14  1  0  0  0  0
 13 15  1  0  0  0  0
 13 16  1  0  0  0  0
 17 18  1  0  0  0  0
 19 20  2  0  0  0  0
 19 21  1  0  0  0  0
 21 22  1  0  0  0  0
 21 23  1  0  0  0  0
 23 24  1  0  0  0  0
 23 25  1  0  0  0  0
 23 26  1  0  0  0  0
M  END
$$$$

  -OEChem-01062216093D

 26 25  0     1  0  0  0  0  0999 V2000
   -3.1378   -3.1532    1.3666 H   0  0  0  0  0  0  0  0  0  0  0  0
   -3.0405   -2.1361    0.9754 C   0  0  0  0  0  0  0  0  0  0  0  0
   -3.5928   -1.4555    1.6279 H   0  0  0  0  0  0  0  0  0  0  0  0
   -3.4745   -2.1046   -0.0269 H   0  0  0  0  0  0  0  0  0  0  0  0
   -1.5785   -1.7332    0.9243 C   0  0  0  0  0  0  0  0  0  0  0  0
   -0.7328   -2.5137    1.3207 O   0  0  0  0  0  0  0  0  0  0  0  0
   -1.2345   -0.5121    0.3754 N   0  0  0  0  0  0  0  0  0  0  0  0
   -2.0316    0.0546    0.1025 H   0  0  0  0  0  0  0  0  0  0  0  0
    0.0790    0.1866    0.4293 C   0  0  1  0  0  0  0  0  0  0  0  0
   -0.1453    1.2404    0.2421 H   0  0  0  0  0  0  0  0  0  0  0  0
    0.8288    0.2012    1.7943 C   0  0  1  0  0  0  0  0  0  0  0  0
    1.7501    0.7830    1.6781 H   0  0  0  0  0  0  0  0  0  0  0  0
   -0.0271    0.8789    2.8649 C   0  0  0  0  0  0  0  0  0  0  0  0
   -0.9451    0.3127    3.0464 H   0  0  0  0  0  0  0  0  0  0  0  0
    0.5324    0.9398    3.8036 H   0  0  0  0  0  0  0  0  0  0  0  0
   -0.2939    1.8943    2.5581 H   0  0  0  0  0  0  0  0  0  0  0  0
    1.1782   -1.0838    2.3030 O   0  0  0  0  0  0  0  0  0  0  0  0
    0.5295   -1.7637    1.9895 H   0  0  0  0  0  0  0  0  0  0  0  0
    0.9801   -0.2124   -0.7629 C   0  0  0  0  0  0  0  0  0  0  0  0
    2.1393   -0.5752   -0.6233 O   0  0  0  0  0  0  0  0  0  0  0  0
    0.5313    0.0379   -2.0498 N   0  0  0  0  0  0  0  0  0  0  0  0
   -0.4429    0.2967   -2.1608 H   0  0  0  0  0  0  0  0  0  0  0  0
    1.3166   -0.2622   -3.2419 C   0  0  0  0  0  0  0  0  0  0  0  0
    1.5583   -1.3296   -3.2830 H   0  0  0  0  0  0  0  0  0  0  0  0
    0.7529   -0.0000   -4.1422 H   0  0  0  0  0  0  0  0  0  0  0  0
    2.2500    0.3105   -3.2406 H   0  0  0  0  0  0  0  0  0  0  0  0
  1  2  1  0  0  0  0
  2  3  1  0  0  0  0
  2  4  1  0  0  0  0
  2  5  1  0  0  0  0
  5  6  2  0  0  0  0
  5  7  1  0  0  0  0
  7  8  1  0  0  0  0
  7  9  1  0  0  0  0
  9 10  1  0  0  0  0
  9 11  1  0  0  0  0
  9 19  1  0  0  0  0
 11 12  1  0  0  0  0
 11 13  1  0  0  0  0
 11 17  1  0  0  0  0
 13 14  1  0  0  0  0
 13 15  1  0  0  0  0
 13 16  1  0  0  0  0
 17 18  1  0  0  0  0
 19 20  2  0  0  0  0
 19 21  1  0  0  0  0
 21 22  1  0  0  0  0
 21 23  1  0  0  0  0
 23 24  1  0  0  0  0
 23 25  1  0  0  0  0
 23 26  1  0  0  0  0
M  END
$$$$

  -OEChem-01062216093D

 26 25  0     1  0  0  0  0  0999 V2000
   -3.1570   -3.1582    1.3150 H   0  0  0  0  0  0  0  0  0  0  0  0
   -3.0403   -2.1673    0.8664 C   0  0  0  0  0  0  0  0  0  0  0  0
   -3.6831   -1.4632    1.4004 H   0  0  0  0  0  0  0  0  0  0  0  0
   -3.3536   -2.2186   -0.1792 H   0  0  0  0  0  0  0  0  0  0  0  0
   -1.5928   -1.7206    0.9552 C   0  0  0  0  0  0  0  0  0  0  0  0
   -0.7798   -2.4595    1.4788 O   0  0  0  0  0  0  0  0  0  0  0  0
   -1.2354   -0.5000    0.4120 N   0  0  0  0  0  0  0  0  0  0  0  0
   -2.0074    0.0135   -0.0012 H   0  0  0  0  0  0  0  0  0  0  0  0
    0.0799    0.1955    0.4540 C   0  0  1  0  0  0  0  0  0  0  0  0
   -0.1484    1.2500    0.2782 H   0  0  0  0  0  0  0  0  0  0  0  0
    0.8600    0.2108    1.8014 C   0  0  1  0  0  0  0  0  0  0  0  0
    1.7776    0.7928    1.6613 H   0  0  0  0  0  0  0  0  0  0  0  0
    0.0260    0.8863    2.8905 C   0  0  0  0  0  0  0  0  0  0  0  0
   -0.8840    0.3140    3.0933 H   0  0  0  0  0  0  0  0  0  0  0  0
    0.6064    0.9517    3.8161 H   0  0  0  0  0  0  0  0  0  0  0  0
   -0.2546    1.8995    2.5891 H   0  0  0  0  0  0  0  0  0  0  0  0
    1.2245   -1.0700    2.3067 O   0  0  0  0  0  0  0  0  0  0  0  0
    0.5396   -1.7400    2.0528 H   0  0  0  0  0  0  0  0  0  0  0  0
    0.9626   -0.2039   -0.7512 C   0  0  0  0  0  0  0  0  0  0  0  0
    1.9533   -0.9114   -0.6459 O   0  0  0  0  0  0  0  0  0  0  0  0
    0.6673    0.3194   -2.0003 N   0  0  0  0  0  0  0  0  0  0  0  0
   -0.1519    0.9113   -2.0856 H   0  0  0  0  0  0  0  0  0  0  0  0
    1.4506    0.0263   -3.1957 C   0  0  0  0  0  0  0  0  0  0  0  0
    1.4544   -1.0503   -3.3961 H   0  0  0  0  0  0  0  0  0  0  0  0
    1.0236    0.5381   -4.0634 H   0  0  0  0  0  0  0  0  0  0  0  0
    2.4846    0.3646   -3.0695 H   0  0  0  0  0  0  0  0  0  0  0  0
  1  2  1  0  0  0  0
  2  3  1  0  0  0  0
  2  4  1  0  0  0  0
  2  5  1  0  0  0  0
  5  6  2  0  0  0  0
  5  7  1  0  0  0  0
  7  8  1  0  0  0  0
  7  9  1  0  0  0  0
  9 10  1  0  0  0  0
  9 11  1  0  0  0  0
  9 19  1  0  0  0  0
 11 12  1  0  0  0  0
 11 13  1  0  0  0  0
 11 17  1  0  0  0  0
 13 14  1  0  0  0  0
 13 15  1  0  0  0  0
 13 16  1  0  0  0  0
 17 18  1  0  0  0  0
 19 20  2  0  0  0  0
 19 21  1  0  0  0  0
 21 22  1  0  0  0  0
 21 23  1  0  0  0  0
 23 24  1  0  0  0  0
 23 25  1  0  0  0  0
 23 26  1  0  0  0  0
M  END
$$$$

  -OEChem-01062216093D

 26 25  0     1  0  0  0  0  0999 V2000
   -3.1664   -3.1286    1.2648 H   0  0  0  0  0  0  0  0  0  0  0  0
   -3.0095   -2.1755    0.7514 C   0  0  0  0  0  0  0  0  0  0  0  0
   -3.7594   -1.4620    1.1009 H   0  0  0  0  0  0  0  0  0  0  0  0
   -3.1350   -2.3323   -0.3226 H   0  0  0  0  0  0  0  0  0  0  0  0
   -1.6155   -1.6496    1.0387 C   0  0  0  0  0  0  0  0  0  0  0  0
   -0.8794   -2.3067    1.7517 O   0  0  0  0  0  0  0  0  0  0  0  0
   -1.2428   -0.4338    0.4929 N   0  0  0  0  0  0  0  0  0  0  0  0
   -1.9452   -0.0269   -0.1166 H   0  0  0  0  0  0  0  0  0  0  0  0
    0.0869    0.2343    0.4995 C   0  0  1  0  0  0  0  0  0  0  0  0
   -0.1296    1.2954    0.3504 H   0  0  0  0  0  0  0  0  0  0  0  0
    0.9480    0.2150    1.7942 C   0  0  1  0  0  0  0  0  0  0  0  0
    1.8637    0.7865    1.6077 H   0  0  0  0  0  0  0  0  0  0  0  0
    0.1923    0.8820    2.9437 C   0  0  0  0  0  0  0  0  0  0  0  0
   -0.7179    0.3244    3.1841 H   0  0  0  0  0  0  0  0  0  0  0  0
    0.8247    0.9135    3.8363 H   0  0  0  0  0  0  0  0  0  0  0  0
   -0.0829    1.9074    2.6809 H   0  0  0  0  0  0  0  0  0  0  0  0
    1.3232   -1.0796    2.2489 O   0  0  0  0  0  0  0  0  0  0  0  0
    0.5587   -1.7017    2.1377 H   0  0  0  0  0  0  0  0  0  0  0  0
    0.9103   -0.1847   -0.7386 C   0  0  0  0  0  0  0  0  0  0  0  0
    1.5411   -1.2302   -0.7833 O   0  0  0  0  0  0  0  0  0  0  0  0
    0.8070    0.5632   -1.9012 N   0  0  0  0  0  0  0  0  0  0  0  0
    0.2956    1.4388   -1.8590 H   0  0  0  0  0  0  0  0  0  0  0  0
    1.4951    0.2137   -3.1393 C   0  0  0  0  0  0  0  0  0  0  0  0
    1.1881   -0.7802   -3.4821 H   0  0  0  0  0  0  0  0  0  0  0  0
    1.2542    0.9377   -3.9235 H   0  0  0  0  0  0  0  0  0  0  0  0
    2.5798    0.2144   -2.9884 H   0  0  0  0  0  0  0  0  0  0  0  0
  1  2  1  0  0  0  0
  2  3  1  0  0  0  0
  2  4  1  0  0  0  0
  2  5  1  0  0  0  0
  5  6  2  0  0  0  0
  5  7  1  0  0  0  0
  7  8  1  0  0  0  0
  7  9  1  0  0  0  0
  9 10  1  0  0  0  0
  9 11  1  0  0  0  0
  9 19  1  0  0  0  0
 11 12  1  0  0  0  0
 11 13  1  0  0  0  0
 11 17  1  0  0  0  0
 13 14  1  0  0  0  0
 13 15  1  0  0  0  0
 13 16  1  0  0  0  0
 17 18  1  0  0  0  0
 19 20  2  0  0  0  0
 19 21  1  0  0  0  0
 21 22  1  0  0  0  0
 21 23  1  0  0  0  0
 23 24  1  0  0  0  0
 23 25  1  0  0  0  0
 23 26  1  0  0  0  0
M  END
$$$$

  -OEChem-01062216093D

 26 25  0     1  0  0  0  0  0999 V2000
   -3.1314   -3.1545    1.1871 H   0  0  0  0  0  0  0  0  0  0  0  0
   -2.9760   -2.2001    0.6757 C   0  0  0  0  0  0  0  0  0  0  0  0
   -3.7818   -1.5170    0.9549 H   0  0  0  0  0  0  0  0  0  0  0  0
   -3.0081   -2.3730   -0.4029 H   0  0  0  0  0  0  0  0  0  0  0  0
   -1.6336   -1.6099    1.0661 C   0  0  0  0  0  0  0  0  0  0  0  0
   -0.9511   -2.2053    1.8812 O   0  0  0  0  0  0  0  0  0  0  0  0
   -1.2596   -0.3977    0.5119 N   0  0  0  0  0  0  0  0  0  0  0  0
   -1.9123   -0.0588   -0.1879 H   0  0  0  0  0  0  0  0  0  0  0  0
    0.0733    0.2650    0.5231 C   0  0  1  0  0  0  0  0  0  0  0  0
   -0.1415    1.3270    0.3786 H   0  0  0  0  0  0  0  0  0  0  0  0
    0.9561    0.2289    1.7995 C   0  0  1  0  0  0  0  0  0  0  0  0
    1.8707    0.7992    1.6046 H   0  0  0  0  0  0  0  0  0  0  0  0
    0.2254    0.8826    2.9723 C   0  0  0  0  0  0  0  0  0  0  0  0
   -0.6864    0.3300    3.2177 H   0  0  0  0  0  0  0  0  0  0  0  0
    0.8720    0.8930    3.8552 H   0  0  0  0  0  0  0  0  0  0  0  0
   -0.0444    1.9146    2.7306 H   0  0  0  0  0  0  0  0  0  0  0  0
    1.3319   -1.0769    2.2174 O   0  0  0  0  0  0  0  0  0  0  0  0
    0.5379   -1.6708    2.1787 H   0  0  0  0  0  0  0  0  0  0  0  0
    0.9001   -0.1663   -0.7074 C   0  0  0  0  0  0  0  0  0  0  0  0
    1.1987   -1.3373   -0.8961 O   0  0  0  0  0  0  0  0  0  0  0  0
    1.0633    0.7214   -1.7593 N   0  0  0  0  0  0  0  0  0  0  0  0
    0.8135    1.6927   -1.6023 H   0  0  0  0  0  0  0  0  0  0  0  0
    1.7274    0.3652   -3.0085 C   0  0  0  0  0  0  0  0  0  0  0  0
    1.1926   -0.4488   -3.5094 H   0  0  0  0  0  0  0  0  0  0  0  0
    1.7522    1.2267   -3.6826 H   0  0  0  0  0  0  0  0  0  0  0  0
    2.7574    0.0453   -2.8175 H   0  0  0  0  0  0  0  0  0  0  0  0
  1  2  1  0  0  0  0
  2  3  1  0  0  0  0
  2  4  1  0  0  0  0
  2  5  1  0  0  0  0
  5  6  2  0  0  0  0
  5  7  1  0  0  0  0
  7  8  1  0  0  0  0
  7  9  1  0  0  0  0
  9 10  1  0  0  0  0
  9 11  1  0  0  0  0
  9 19  1  0  0  0  0
 11 12  1  0  0  0  0
 11 13  1  0  0  0  0
 11 17  1  0  0  0  0
 13 14  1  0  0  0  0
 13 15  1  0  0  0  0
 13 16  1  0  0  0  0
 17 18  1  0  0  0  0
 19 20  2  0  0  0  0
 19 21  1  0  0  0  0
 21 22  1  0  0  0  0
 21 23  1  0  0  0  0
 23 24  1  0  0  0  0
 23 25  1  0  0  0  0
 23 26  1  0  0  0  0
M  END
$$$$

  -OEChem-01062216093D

 26 25  0     1  0  0  0  0  0999 V2000
   -3.1114   -3.1731    1.1595 H   0  0  0  0  0  0  0  0  0  0  0  0
   -2.9633   -2.2148    0.6533 C   0  0  0  0  0  0  0  0  0  0  0  0
   -3.7965   -1.5531    0.9017 H   0  0  0  0  0  0  0  0  0  0  0  0
   -2.9508   -2.3883   -0.4256 H   0  0  0  0  0  0  0  0  0  0  0  0
   -1.6526   -1.5885    1.0912 C   0  0  0  0  0  0  0  0  0  0  0  0
   -0.9983   -2.1472    1.9550 O   0  0  0  0  0  0  0  0  0  0  0  0
   -1.2802   -0.3809    0.5261 N   0  0  0  0  0  0  0  0  0  0  0  0
   -1.9031   -0.0874   -0.2202 H   0  0  0  0  0  0  0  0  0  0  0  0
    0.0550    0.2779    0.5308 C   0  0  1  0  0  0  0  0  0  0  0  0
   -0.1593    1.3397    0.3846 H   0  0  0  0  0  0  0  0  0  0  0  0
    0.9544    0.2326    1.7932 C   0  0  1  0  0  0  0  0  0  0  0  0
    1.8701    0.7982    1.5886 H   0  0  0  0  0  0  0  0  0  0  0  0
    0.2476    0.8837    2.9816 C   0  0  0  0  0  0  0  0  0  0  0  0
   -0.6669    0.3400    3.2359 H   0  0  0  0  0  0  0  0  0  0  0  0
    0.9066    0.8798    3.8552 H   0  0  0  0  0  0  0  0  0  0  0  0
   -0.0142    1.9205    2.7522 H   0  0  0  0  0  0  0  0  0  0  0  0
    1.3270   -1.0813    2.1864 O   0  0  0  0  0  0  0  0  0  0  0  0
    0.5165   -1.6541    2.2012 H   0  0  0  0  0  0  0  0  0  0  0  0
    0.8829   -0.1615   -0.6958 C   0  0  0  0  0  0  0  0  0  0  0  0
    0.9266   -1.3363   -1.0383 O   0  0  0  0  0  0  0  0  0  0  0  0
    1.3156    0.7944   -1.6009 N   0  0  0  0  0  0  0  0  0  0  0  0
    1.2821    1.7667   -1.3104 H   0  0  0  0  0  0  0  0  0  0  0  0
    2.0153    0.4621   -2.8370 C   0  0  0  0  0  0  0  0  0  0  0  0
    1.3907   -0.1728   -3.4745 H   0  0  0  0  0  0  0  0  0  0  0  0
    2.2566    1.3741   -3.3914 H   0  0  0  0  0  0  0  0  0  0  0  0
    2.9485   -0.0675   -2.6176 H   0  0  0  0  0  0  0  0  0  0  0  0
  1  2  1  0  0  0  0
  2  3  1  0  0  0  0
  2  4  1  0  0  0  0
  2  5  1  0  0  0  0
  5  6  2  0  0  0  0
  5  7  1  0  0  0  0
  7  8  1  0  0  0  0
  7  9  1  0  0  0  0
  9 10  1  0  0  0  0
  9 11  1  0  0  0  0
  9 19  1  0  0  0  0
 11 12  1  0  0  0  0
 11 13  1  0  0  0  0
 11 17  1  0  0  0  0
 13 14  1  0  0  0  0
 13 15  1  0  0  0  0
 13 16  1  0  0  0  0
 17 18  1  0  0  0  0
 19 20  2  0  0  0  0
 19 21  1  0  0  0  0
 21 22  1  0  0  0  0
 21 23  1  0  0  0  0
 23 24  1  0  0  0  0
 23 25  1  0  0  0  0
 23 26  1  0  0  0  0
M  END
$$$$

  -OEChem-01062216093D

 26 25  0     1  0  0  0  0  0999 V2000
   -3.1153   -3.1648    1.1703 H   0  0  0  0  0  0  0  0  0  0  0  0
   -2.9581   -2.2176    0.6465 C   0  0  0  0  0  0  0  0  0  0  0  0
   -3.8018   -1.5557    0.8552 H   0  0  0  0  0  0  0  0  0  0  0  0
   -2.9135   -2.4164   -0.4272 H   0  0  0  0  0  0  0  0  0  0  0  0
   -1.6643   -1.5724    1.1067 C   0  0  0  0  0  0  0  0  0  0  0  0
   -1.0222   -2.1177    1.9886 O   0  0  0  0  0  0  0  0  0  0  0  0
   -1.2909   -0.3676    0.5366 N   0  0  0  0  0  0  0  0  0  0  0  0
   -1.8938   -0.1015   -0.2362 H   0  0  0  0  0  0  0  0  0  0  0  0
    0.0462    0.2887    0.5373 C   0  0  1  0  0  0  0  0  0  0  0  0
   -0.1642    1.3513    0.3904 H   0  0  0  0  0  0  0  0  0  0  0  0
    0.9532    0.2317    1.7929 C   0  0  1  0  0  0  0  0  0  0  0  0
    1.8702    0.7952    1.5884 H   0  0  0  0  0  0  0  0  0  0  0  0
    0.2575    0.8760    2.9917 C   0  0  0  0  0  0  0  0  0  0  0  0
   -0.6585    0.3355    3.2475 H   0  0  0  0  0  0  0  0  0  0  0  0
    0.9222    0.8612    3.8609 H   0  0  0  0  0  0  0  0  0  0  0  0
   -0.0008    1.9159    2.7721 H   0  0  0  0  0  0  0  0  0  0  0  0
    1.3212   -1.0893    2.1666 O   0  0  0  0  0  0  0  0  0  0  0  0
    0.5019   -1.6484    2.2119 H   0  0  0  0  0  0  0  0  0  0  0  0
    0.8758   -0.1539   -0.6877 C   0  0  0  0  0  0  0  0  0  0  0  0
    0.7089   -1.2589   -1.1912 O   0  0  0  0  0  0  0  0  0  0  0  0
    1.5717    0.7945   -1.4195 N   0  0  0  0  0  0  0  0  0  0  0  0
    1.7203    1.7028   -0.9903 H   0  0  0  0  0  0  0  0  0  0  0  0
    2.2982    0.4771   -2.6438 C   0  0  0  0  0  0  0  0  0  0  0  0
    1.6156    0.0839   -3.4046 H   0  0  0  0  0  0  0  0  0  0  0  0
    2.7772    1.3761   -3.0434 H   0  0  0  0  0  0  0  0  0  0  0  0
    3.0736   -0.2704   -2.4455 H   0  0  0  0  0  0  0  0  0  0  0  0
  1  2  1  0  0  0  0
  2  3  1  0  0  0  0
  2  4  1  0  0  0  0
  2  5  1  0  0  0  0
  5  6  2  0  0  0  0
  5  7  1  0  0  0  0
  7  8  1  0  0  0  0
  7  9  1  0  0  0  0
  9 10  1  0  0  0  0
  9 11  1  0  0  0  0
  9 19  1  0  0  0  0
 11 12  1  0  0  0  0
 11 13  1  0  0  0  0
 11 17  1  0  0  0  0
 13 14  1  0  0  0  0
 13 15  1  0  0  0  0
 13 16  1  0  0  0  0
 17 18  1  0  0  0  0
 19 20  2  0  0  0  0
 19 21  1  0  0  0  0
 21 22  1  0  0  0  0
 21 23  1  0  0  0  0
 23 24  1  0  0  0  0
 23 25  1  0  0  0  0
 23 26  1  0  0  0  0
M  END
$$$$

  -OEChem-01062216093D

 26 25  0     1  0  0  0  0  0999 V2000
   -3.1211   -3.1596    1.1814 H   0  0  0  0  0  0  0  0  0  0  0  0
   -2.9576   -2.2185    0.6487 C   0  0  0  0  0  0  0  0  0  0  0  0
   -3.8033   -1.5540    0.8410 H   0  0  0  0  0  0  0  0  0  0  0  0
   -2.9013   -2.4283   -0.4225 H   0  0  0  0  0  0  0  0  0  0  0  0
   -1.6682   -1.5691    1.1154 C   0  0  0  0  0  0  0  0  0  0  0  0
   -1.0276   -2.1122    2.0001 O   0  0  0  0  0  0  0  0  0  0  0  0
   -1.2945   -0.3653    0.5439 N   0  0  0  0  0  0  0  0  0  0  0  0
   -1.8854   -0.1158   -0.2440 H   0  0  0  0  0  0  0  0  0  0  0  0
    0.0414    0.2947    0.5409 C   0  0  1  0  0  0  0  0  0  0  0  0
   -0.1679    1.3572    0.3906 H   0  0  0  0  0  0  0  0  0  0  0  0
    0.9490    0.2340    1.7965 C   0  0  1  0  0  0  0  0  0  0  0  0
    1.8657    0.7992    1.5973 H   0  0  0  0  0  0  0  0  0  0  0  0
    0.2535    0.8724    2.9986 C   0  0  0  0  0  0  0  0  0  0  0  0
   -0.6574    0.3254    3.2586 H   0  0  0  0  0  0  0  0  0  0  0  0
    0.9220    0.8627    3.8648 H   0  0  0  0  0  0  0  0  0  0  0  0
   -0.0136    1.9105    2.7808 H   0  0  0  0  0  0  0  0  0  0  0  0
    1.3165   -1.0894    2.1615 O   0  0  0  0  0  0  0  0  0  0  0  0
    0.4942   -1.6430    2.2235 H   0  0  0  0  0  0  0  0  0  0  0  0
    0.8720   -0.1475   -0.6851 C   0  0  0  0  0  0  0  0  0  0  0  0
    0.5394   -1.1271   -1.3442 O   0  0  0  0  0  0  0  0  0  0  0  0
    1.8029    0.7200   -1.2327 N   0  0  0  0  0  0  0  0  0  0  0  0
    2.0980    1.5078   -0.6637 H   0  0  0  0  0  0  0  0  0  0  0  0
    2.5673    0.4082   -2.4351 C   0  0  0  0  0  0  0  0  0  0  0  0
    1.8972    0.2582   -3.2881 H   0  0  0  0  0  0  0  0  0  0  0  0
    3.2491    1.2300   -2.6740 H   0  0  0  0  0  0  0  0  0  0  0  0
    3.1591   -0.5013   -2.2872 H   0  0  0  0  0  0  0  0  0  0  0  0
  1  2  1  0  0  0  0
  2  3  1  0  0  0  0
  2  4  1  0  0  0  0
  2  5  1  0  0  0  0
  5  6  2  0  0  0  0
  5  7  1  0  0  0  0
  7  8  1  0  0  0  0
  7  9  1  0  0  0  0
  9 10  1  0  0  0  0
  9 11  1  0  0  0  0
  9 19  1  0  0  0  0
 11 12  1  0  0  0  0
 11 13  1  0  0  0  0
 11 17  1  0  0  0  0
 13 14  1  0  0  0  0
 13 15  1  0  0  0  0
 13 16  1  0  0  0  0
 17 18  1  0  0  0  0
 19 20  2  0  0  0  0
 19 21  1  0  0  0  0
 21 22  1  0  0  0  0
 21 23  1  0  0  0  0
 23 24  1  0  0  0  0
 23 25  1  0  0  0  0
 23 26  1  0  0  0  0
M  END
$$$$

  -OEChem-01062216093D

 26 25  0     1  0  0  0  0  0999 V2000
   -3.1002   -3.1757    1.1462 H   0  0  0  0  0  0  0  0  0  0  0  0
   -2.9517   -2.2154    0.6443 C   0  0  0  0  0  0  0  0  0  0  0  0
   -3.8013   -1.5659    0.8682 H   0  0  0  0  0  0  0  0  0  0  0  0
   -2.9059   -2.3882   -0.4340 H   0  0  0  0  0  0  0  0  0  0  0  0
   -1.6636   -1.5684    1.1178 C   0  0  0  0  0  0  0  0  0  0  0  0
   -1.0210   -2.1193    1.9963 O   0  0  0  0  0  0  0  0  0  0  0  0
   -1.2898   -0.3623    0.5518 N   0  0  0  0  0  0  0  0  0  0  0  0
   -1.8742   -0.1185   -0.2432 H   0  0  0  0  0  0  0  0  0  0  0  0
    0.0425    0.3055    0.5496 C   0  0  1  0  0  0  0  0  0  0  0  0
   -0.1660    1.3683    0.3992 H   0  0  0  0  0  0  0  0  0  0  0  0
    0.9435    0.2417    1.8113 C   0  0  1  0  0  0  0  0  0  0  0  0
    1.8589    0.8132    1.6261 H   0  0  0  0  0  0  0  0  0  0  0  0
    0.2370    0.8705    3.0122 C   0  0  0  0  0  0  0  0  0  0  0  0
   -0.6750    0.3203    3.2616 H   0  0  0  0  0  0  0  0  0  0  0  0
    0.8985    0.8570    3.8840 H   0  0  0  0  0  0  0  0  0  0  0  0
   -0.0305    1.9093    2.7985 H   0  0  0  0  0  0  0  0  0  0  0  0
    1.3129   -1.0828    2.1709 O   0  0  0  0  0  0  0  0  0  0  0  0
    0.4910   -1.6371    2.2351 H   0  0  0  0  0  0  0  0  0  0  0  0
    0.8699   -0.1341   -0.6817 C   0  0  0  0  0  0  0  0  0  0  0  0
    0.4116   -0.9495   -1.4764 O   0  0  0  0  0  0  0  0  0  0  0  0
    1.9980    0.5779   -1.0553 N   0  0  0  0  0  0  0  0  0  0  0  0
    2.4032    1.1987   -0.3608 H   0  0  0  0  0  0  0  0  0  0  0  0
    2.7940    0.2447   -2.2311 C   0  0  0  0  0  0  0  0  0  0  0  0
    2.1827    0.2988   -3.1382 H   0  0  0  0  0  0  0  0  0  0  0  0
    3.6259    0.9480   -2.3355 H   0  0  0  0  0  0  0  0  0  0  0  0
    3.2037   -0.7670   -2.1415 H   0  0  0  0  0  0  0  0  0  0  0  0
  1  2  1  0  0  0  0
  2  3  1  0  0  0  0
  2  4  1  0  0  0  0
  2  5  1  0  0  0  0
  5  6  2  0  0  0  0
  5  7  1  0  0  0  0
  7  8  1  0  0  0  0
  7  9  1  0  0  0  0
  9 10  1  0  0  0  0
  9 11  1  0  0  0  0
  9 19  1  0  0  0  0
 11 12  1  0  0  0  0
 11 13  1  0  0  0  0
 11 17  1  0  0  0  0
 13 14  1  0  0  0  0
 13 15  1  0  0  0  0
 13 16  1  0  0  0  0
 17 18  1  0  0  0  0
 19 20  2  0  0  0  0
 19 21  1  0  0  0  0
 21 22  1  0  0  0  0
 21 23  1  0  0  0  0
 23 24  1  0  0  0  0
 23 25  1  0  0  0  0
 23 26  1  0  0  0  0
M  END
$$$$

  -OEChem-01062216093D

 26 25  0     1  0  0  0  0  0999 V2000
   -3.1766   -3.1574    1.0990 H   0  0  0  0  0  0  0  0  0  0  0  0
   -3.0008   -2.1870    0.6259 C   0  0  0  0  0  0  0  0  0  0  0  0
   -3.7918   -1.4984    0.9324 H   0  0  0  0  0  0  0  0  0  0  0  0
   -3.0370   -2.3144   -0.4590 H   0  0  0  0  0  0  0  0  0  0  0  0
   -1.6467   -1.6389    1.0371 C   0  0  0  0  0  0  0  0  0  0  0  0
   -0.9537   -2.3023    1.7916 O   0  0  0  0  0  0  0  0  0  0  0  0
   -1.2479   -0.4214    0.5139 N   0  0  0  0  0  0  0  0  0  0  0  0
   -1.8497   -0.1070   -0.2444 H   0  0  0  0  0  0  0  0  0  0  0  0
    0.0806    0.2534    0.5427 C   0  0  1  0  0  0  0  0  0  0  0  0
   -0.1403    1.3169    0.6677 H   0  0  0  0  0  0  0  0  0  0  0  0
    1.0972   -0.0694    1.6696 C   0  0  1  0  0  0  0  0  0  0  0  0
    1.9989    0.5314    1.5169 H   0  0  0  0  0  0  0  0  0  0  0  0
    0.5481    0.2994    3.0491 C   0  0  0  0  0  0  0  0  0  0  0  0
   -0.3663   -0.2539    3.2770 H   0  0  0  0  0  0  0  0  0  0  0  0
    1.2907    0.0703    3.8195 H   0  0  0  0  0  0  0  0  0  0  0  0
    0.3237    1.3691    3.0946 H   0  0  0  0  0  0  0  0  0  0  0  0
    1.4795   -1.4382    1.6715 O   0  0  0  0  0  0  0  0  0  0  0  0
    0.6623   -1.9864    1.7949 H   0  0  0  0  0  0  0  0  0  0  0  0
    0.7531    0.1452   -0.8477 C   0  0  0  0  0  0  0  0  0  0  0  0
    0.0923   -0.2346   -1.8105 O   0  0  0  0  0  0  0  0  0  0  0  0
    2.0028    0.6918   -1.0887 N   0  0  0  0  0  0  0  0  0  0  0  0
    2.5761    0.8944   -0.2746 H   0  0  0  0  0  0  0  0  0  0  0  0
    2.6573    0.6316   -2.3905 C   0  0  0  0  0  0  0  0  0  0  0  0
    2.0396    1.1135   -3.1556 H   0  0  0  0  0  0  0  0  0  0  0  0
    3.6206    1.1492   -2.3520 H   0  0  0  0  0  0  0  0  0  0  0  0
    2.8332   -0.4090   -2.6827 H   0  0  0  0  0  0  0  0  0  0  0  0
  1  2  1  0  0  0  0
  2  3  1  0  0  0  0
  2  4  1  0  0  0  0
  2  5  1  0  0  0  0
  5  6  2  0  0  0  0
  5  7  1  0  0  0  0
  7  8  1  0  0  0  0
  7  9  1  0  0  0  0
  9 10  1  0  0  0  0
  9 11  1  0  0  0  0
  9 19  1  0  0  0  0
 11 12  1  0  0  0  0
 11 13  1  0  0  0  0
 11 17  1  0  0  0  0
 13 14  1  0  0  0  0
 13 15  1  0  0  0  0
 13 16  1  0  0  0  0
 17 18  1  0  0  0  0
 19 20  2  0  0  0  0
 19 21  1  0  0  0  0
 21 22  1  0  0  0  0
 21 23  1  0  0  0  0
 23 24  1  0  0  0  0
 23 25  1  0  0  0  0
 23 26  1  0  0  0  0
M  END
$$$$

  -OEChem-01062216093D

 26 25  0     1  0  0  0  0  0999 V2000
   -3.1665   -3.1571    1.0800 H   0  0  0  0  0  0  0  0  0  0  0  0
   -2.9895   -2.1830    0.6150 C   0  0  0  0  0  0  0  0  0  0  0  0
   -3.7776   -1.4951    0.9305 H   0  0  0  0  0  0  0  0  0  0  0  0
   -3.0307   -2.3004   -0.4709 H   0  0  0  0  0  0  0  0  0  0  0  0
   -1.6324   -1.6419    1.0253 C   0  0  0  0  0  0  0  0  0  0  0  0
   -0.9349   -2.3148    1.7669 O   0  0  0  0  0  0  0  0  0  0  0  0
   -1.2312   -0.4218    0.5113 N   0  0  0  0  0  0  0  0  0  0  0  0
   -1.8359   -0.0896   -0.2374 H   0  0  0  0  0  0  0  0  0  0  0  0
    0.0924    0.2596    0.5573 C   0  0  1  0  0  0  0  0  0  0  0  0
   -0.1321    1.3231    0.6778 H   0  0  0  0  0  0  0  0  0  0  0  0
    1.0968   -0.0559    1.6973 C   0  0  1  0  0  0  0  0  0  0  0  0
    1.9939    0.5562    1.5612 H   0  0  0  0  0  0  0  0  0  0  0  0
    0.5223    0.3029    3.0688 C   0  0  0  0  0  0  0  0  0  0  0  0
   -0.3883   -0.2625    3.2813 H   0  0  0  0  0  0  0  0  0  0  0  0
    1.2561    0.0812    3.8496 H   0  0  0  0  0  0  0  0  0  0  0  0
    0.2840    1.3696    3.1132 H   0  0  0  0  0  0  0  0  0  0  0  0
    1.4875   -1.4225    1.7047 O   0  0  0  0  0  0  0  0  0  0  0  0
    0.6714   -1.9757    1.8158 H   0  0  0  0  0  0  0  0  0  0  0  0
    0.7666    0.1488   -0.8322 C   0  0  0  0  0  0  0  0  0  0  0  0
    0.0596   -0.0048   -1.8247 O   0  0  0  0  0  0  0  0  0  0  0  0
    2.1136    0.4103   -1.0182 N   0  0  0  0  0  0  0  0  0  0  0  0
    2.6965    0.3578   -0.1864 H   0  0  0  0  0  0  0  0  0  0  0  0
    2.7671    0.3074   -2.3174 C   0  0  0  0  0  0  0  0  0  0  0  0
    2.2937    0.9794   -3.0409 H   0  0  0  0  0  0  0  0  0  0  0  0
    3.8220    0.5849   -2.2314 H   0  0  0  0  0  0  0  0  0  0  0  0
    2.7069   -0.7182   -2.6961 H   0  0  0  0  0  0  0  0  0  0  0  0
  1  2  1  0  0  0  0
  2  3  1  0  0  0  0
  2  4  1  0  0  0  0
  2  5  1  0  0  0  0
  5  6  2  0  0  0  0
  5  7  1  0  0  0  0
  7  8  1  0  0  0  0
  7  9  1  0  0  0  0
  9 10  1  0  0  0  0
  9 11  1  0  0  0  0
  9 19  1  0  0  0  0
 11 12  1  0  0  0  0
 11 13  1  0  0  0  0
 11 17  1  0  0  0  0
 13 14  1  0  0  0  0
 13 15  1  0  0  0  0
 13 16  1  0  0  0  0
 17 18  1  0  0  0  0
 19 20  2  0  0  0  0
 19 21  1  0  0  0  0
 21 22  1  0  0  0  0
 21 23  1  0  0  0  0
 23 24  1  0  0  0  0
 23 25  1  0  0  0  0
 23 26  1  0  0  0  0
M  END
$$$$

  -OEChem-01062216093D

 26 25  0     1  0  0  0  0  0999 V2000
   -3.1669   -3.1474    1.0893 H   0  0  0  0  0  0  0  0  0  0  0  0
   -2.9895   -2.1743    0.6223 C   0  0  0  0  0  0  0  0  0  0  0  0
   -3.7648   -1.4792    0.9537 H   0  0  0  0  0  0  0  0  0  0  0  0
   -3.0522   -2.2892   -0.4628 H   0  0  0  0  0  0  0  0  0  0  0  0
   -1.6201   -1.6476    1.0091 C   0  0  0  0  0  0  0  0  0  0  0  0
   -0.9119   -2.3318    1.7300 O   0  0  0  0  0  0  0  0  0  0  0  0
   -1.2181   -0.4262    0.4996 N   0  0  0  0  0  0  0  0  0  0  0  0
   -1.8369   -0.0689   -0.2258 H   0  0  0  0  0  0  0  0  0  0  0  0
    0.1003    0.2621    0.5609 C   0  0  1  0  0  0  0  0  0  0  0  0
   -0.1290    1.3252    0.6766 H   0  0  0  0  0  0  0  0  0  0  0  0
    1.0979   -0.0456    1.7092 C   0  0  1  0  0  0  0  0  0  0  0  0
    1.9898    0.5768    1.5801 H   0  0  0  0  0  0  0  0  0  0  0  0
    0.5051    0.3026    3.0757 C   0  0  0  0  0  0  0  0  0  0  0  0
   -0.3971   -0.2798    3.2789 H   0  0  0  0  0  0  0  0  0  0  0  0
    1.2354    0.0936    3.8634 H   0  0  0  0  0  0  0  0  0  0  0  0
    0.2472    1.3647    3.1185 H   0  0  0  0  0  0  0  0  0  0  0  0
    1.4998   -1.4097    1.7197 O   0  0  0  0  0  0  0  0  0  0  0  0
    0.6863   -1.9697    1.8174 H   0  0  0  0  0  0  0  0  0  0  0  0
    0.7805    0.1472   -0.8234 C   0  0  0  0  0  0  0  0  0  0  0  0
    0.0787    0.2069   -1.8289 O   0  0  0  0  0  0  0  0  0  0  0  0
    2.1561    0.1092   -0.9711 N   0  0  0  0  0  0  0  0  0  0  0  0
    2.6787   -0.1542   -0.1369 H   0  0  0  0  0  0  0  0  0  0  0  0
    2.8089   -0.0454   -2.2655 C   0  0  0  0  0  0  0  0  0  0  0  0
    2.5133    0.7610   -2.9450 H   0  0  0  0  0  0  0  0  0  0  0  0
    3.8960   -0.0104   -2.1457 H   0  0  0  0  0  0  0  0  0  0  0  0
    2.5391   -1.0053   -2.7182 H   0  0  0  0  0  0  0  0  0  0  0  0
  1  2  1  0  0  0  0
  2  3  1  0  0  0  0
  2  4  1  0  0  0  0
  2  5  1  0  0  0  0
  5  6  2  0  0  0  0
  5  7  1  0  0  0  0
  7  8  1  0  0  0  0
  7  9  1  0  0  0  0
  9 10  1  0  0  0  0
  9 11  1  0  0  0  0
  9 19  1  0  0  0  0
 11 12  1  0  0  0  0
 11 13  1  0  0  0  0
 11 17  1  0  0  0  0
 13 14  1  0  0  0  0
 13 15  1  0  0  0  0
 13 16  1  0  0  0  0
 17 18  1  0  0  0  0
 19 20  2  0  0  0  0
 19 21  1  0  0  0  0
 21 22  1  0  0  0  0
 21 23  1  0  0  0  0
 23 24  1  0  0  0  0
 23 25  1  0  0  0  0
 23 26  1  0  0  0  0
M  END
$$$$

  -OEChem-01062216093D

 26 25  0     1  0  0  0  0  0999 V2000
   -3.1742   -3.1380    1.1022 H   0  0  0  0  0  0  0  0  0  0  0  0
   -2.9961   -2.1654    0.6342 C   0  0  0  0  0  0  0  0  0  0  0  0
   -3.7585   -1.4640    0.9818 H   0  0  0  0  0  0  0  0  0  0  0  0
   -3.0802   -2.2773   -0.4497 H   0  0  0  0  0  0  0  0  0  0  0  0
   -1.6148   -1.6524    0.9973 C   0  0  0  0  0  0  0  0  0  0  0  0
   -0.8983   -2.3461    1.7005 O   0  0  0  0  0  0  0  0  0  0  0  0
   -1.2107   -0.4314    0.4884 N   0  0  0  0  0  0  0  0  0  0  0  0
   -1.8462   -0.0497   -0.2096 H   0  0  0  0  0  0  0  0  0  0  0  0
    0.1046    0.2601    0.5567 C   0  0  1  0  0  0  0  0  0  0  0  0
   -0.1274    1.3229    0.6709 H   0  0  0  0  0  0  0  0  0  0  0  0
    1.0986   -0.0449    1.7090 C   0  0  1  0  0  0  0  0  0  0  0  0
    1.9884    0.5806    1.5771 H   0  0  0  0  0  0  0  0  0  0  0  0
    0.5008    0.3021    3.0730 C   0  0  0  0  0  0  0  0  0  0  0  0
   -0.3958   -0.2888    3.2765 H   0  0  0  0  0  0  0  0  0  0  0  0
    1.2324    0.1024    3.8617 H   0  0  0  0  0  0  0  0  0  0  0  0
    0.2331    1.3619    3.1120 H   0  0  0  0  0  0  0  0  0  0  0  0
    1.5065   -1.4089    1.7223 O   0  0  0  0  0  0  0  0  0  0  0  0
    0.6945   -1.9724    1.8149 H   0  0  0  0  0  0  0  0  0  0  0  0
    0.7920    0.1432   -0.8215 C   0  0  0  0  0  0  0  0  0  0  0  0
    0.1345    0.3963   -1.8259 O   0  0  0  0  0  0  0  0  0  0  0  0
    2.1272   -0.1939   -0.9537 N   0  0  0  0  0  0  0  0  0  0  0  0
    2.5577   -0.6032   -0.1233 H   0  0  0  0  0  0  0  0  0  0  0  0
    2.7733   -0.4019   -2.2433 C   0  0  0  0  0  0  0  0  0  0  0  0
    2.6791    0.4919   -2.8689 H   0  0  0  0  0  0  0  0  0  0  0  0
    3.8381   -0.6101   -2.1016 H   0  0  0  0  0  0  0  0  0  0  0  0
    2.3193   -1.2494   -2.7673 H   0  0  0  0  0  0  0  0  0  0  0  0
  1  2  1  0  0  0  0
  2  3  1  0  0  0  0
  2  4  1  0  0  0  0
  2  5  1  0  0  0  0
  5  6  2  0  0  0  0
  5  7  1  0  0  0  0
  7  8  1  0  0  0  0
  7  9  1  0  0  0  0
  9 10  1  0  0  0  0
  9 11  1  0  0  0  0
  9 19  1  0  0  0  0
 11 12  1  0  0  0  0
 11 13  1  0  0  0  0
 11 17  1  0  0  0  0
 13 14  1  0  0  0  0
 13 15  1  0  0  0  0
 13 16  1  0  0  0  0
 17 18  1  0  0  0  0
 19 20  2  0  0  0  0
 19 21  1  0  0  0  0
 21 22  1  0  0  0  0
 21 23  1  0  0  0  0
 23 24  1  0  0  0  0
 23 25  1  0  0  0  0
 23 26  1  0  0  0  0
M  END
$$$$

  -OEChem-01062216093D

 26 25  0     1  0  0  0  0  0999 V2000
   -3.1841   -3.1271    1.1182 H   0  0  0  0  0  0  0  0  0  0  0  0
   -3.0034   -2.1565    0.6473 C   0  0  0  0  0  0  0  0  0  0  0  0
   -3.7525   -1.4473    1.0077 H   0  0  0  0  0  0  0  0  0  0  0  0
   -3.1072   -2.2671   -0.4350 H   0  0  0  0  0  0  0  0  0  0  0  0
   -1.6108   -1.6589    0.9871 C   0  0  0  0  0  0  0  0  0  0  0  0
   -0.8876   -2.3633    1.6726 O   0  0  0  0  0  0  0  0  0  0  0  0
   -1.2043   -0.4387    0.4780 N   0  0  0  0  0  0  0  0  0  0  0  0
   -1.8581   -0.0334   -0.1887 H   0  0  0  0  0  0  0  0  0  0  0  0
    0.1098    0.2543    0.5482 C   0  0  1  0  0  0  0  0  0  0  0  0
   -0.1231    1.3173    0.6623 H   0  0  0  0  0  0  0  0  0  0  0  0
    1.0983   -0.0516    1.7056 C   0  0  1  0  0  0  0  0  0  0  0  0
    1.9896    0.5714    1.5707 H   0  0  0  0  0  0  0  0  0  0  0  0
    0.4965    0.2990    3.0668 C   0  0  0  0  0  0  0  0  0  0  0  0
   -0.4018   -0.2906    3.2676 H   0  0  0  0  0  0  0  0  0  0  0  0
    1.2247    0.0996    3.8589 H   0  0  0  0  0  0  0  0  0  0  0  0
    0.2302    1.3593    3.1030 H   0  0  0  0  0  0  0  0  0  0  0  0
    1.5086   -1.4165    1.7268 O   0  0  0  0  0  0  0  0  0  0  0  0
    0.6965   -1.9808    1.8172 H   0  0  0  0  0  0  0  0  0  0  0  0
    0.8060    0.1399   -0.8236 C   0  0  0  0  0  0  0  0  0  0  0  0
    0.2222    0.5694   -1.8124 O   0  0  0  0  0  0  0  0  0  0  0  0
    2.0343   -0.4769   -0.9726 N   0  0  0  0  0  0  0  0  0  0  0  0
    2.3821   -0.9718   -0.1483 H   0  0  0  0  0  0  0  0  0  0  0  0
    2.6548   -0.7380   -2.2646 C   0  0  0  0  0  0  0  0  0  0  0  0
    2.7926    0.1954   -2.8204 H   0  0  0  0  0  0  0  0  0  0  0  0
    3.6359   -1.2019   -2.1238 H   0  0  0  0  0  0  0  0  0  0  0  0
    2.0320   -1.4146   -2.8588 H   0  0  0  0  0  0  0  0  0  0  0  0
  1  2  1  0  0  0  0
  2  3  1  0  0  0  0
  2  4  1  0  0  0  0
  2  5  1  0  0  0  0
  5  6  2  0  0  0  0
  5  7  1  0  0  0  0
  7  8  1  0  0  0  0
  7  9  1  0  0  0  0
  9 10  1  0  0  0  0
  9 11  1  0  0  0  0
  9 19  1  0  0  0  0
 11 12  1  0  0  0  0
 11 13  1  0  0  0  0
 11 17  1  0  0  0  0
 13 14  1  0  0  0  0
 13 15  1  0  0  0  0
 13 16  1  0  0  0  0
 17 18  1  0  0  0  0
 19 20  2  0  0  0  0
 19 21  1  0  0  0  0
 21 22  1  0  0  0  0
 21 23  1  0  0  0  0
 23 24  1  0  0  0  0
 23 25  1  0  0  0  0
 23 26  1  0  0  0  0
M  END
$$$$

  -OEChem-01062216093D

 26 25  0     1  0  0  0  0  0999 V2000
   -3.2217   -3.0986    1.1858 H   0  0  0  0  0  0  0  0  0  0  0  0
   -3.0333   -2.1384    0.6969 C   0  0  0  0  0  0  0  0  0  0  0  0
   -3.7526   -1.4066    1.0726 H   0  0  0  0  0  0  0  0  0  0  0  0
   -3.1748   -2.2592   -0.3800 H   0  0  0  0  0  0  0  0  0  0  0  0
   -1.6191   -1.6712    0.9858 C   0  0  0  0  0  0  0  0  0  0  0  0
   -0.8873   -2.3905    1.6460 O   0  0  0  0  0  0  0  0  0  0  0  0
   -1.2069   -0.4578    0.4653 N   0  0  0  0  0  0  0  0  0  0  0  0
   -1.8825   -0.0270   -0.1622 H   0  0  0  0  0  0  0  0  0  0  0  0
    0.1095    0.2317    0.5260 C   0  0  1  0  0  0  0  0  0  0  0  0
   -0.1217    1.2956    0.6350 H   0  0  0  0  0  0  0  0  0  0  0  0
    1.0951   -0.0710    1.6867 C   0  0  1  0  0  0  0  0  0  0  0  0
    1.9897    0.5451    1.5432 H   0  0  0  0  0  0  0  0  0  0  0  0
    0.4934    0.2948    3.0439 C   0  0  0  0  0  0  0  0  0  0  0  0
   -0.4071   -0.2901    3.2488 H   0  0  0  0  0  0  0  0  0  0  0  0
    1.2202    0.1001    3.8384 H   0  0  0  0  0  0  0  0  0  0  0  0
    0.2311    1.3564    3.0698 H   0  0  0  0  0  0  0  0  0  0  0  0
    1.5009   -1.4378    1.7242 O   0  0  0  0  0  0  0  0  0  0  0  0
    0.6863   -1.9985    1.8158 H   0  0  0  0  0  0  0  0  0  0  0  0
    0.8127    0.1091   -0.8398 C   0  0  0  0  0  0  0  0  0  0  0  0
    0.3450    0.7170   -1.7952 O   0  0  0  0  0  0  0  0  0  0  0  0
    1.8718   -0.7563   -1.0369 N   0  0  0  0  0  0  0  0  0  0  0  0
    2.1599   -1.3070   -0.2250 H   0  0  0  0  0  0  0  0  0  0  0  0
    2.4948   -1.0060   -2.3295 C   0  0  0  0  0  0  0  0  0  0  0  0
    2.8807   -0.0738   -2.7553 H   0  0  0  0  0  0  0  0  0  0  0  0
    3.3293   -1.7048   -2.2166 H   0  0  0  0  0  0  0  0  0  0  0  0
    1.7705   -1.4403   -3.0263 H   0  0  0  0  0  0  0  0  0  0  0  0
  1  2  1  0  0  0  0
  2  3  1  0  0  0  0
  2  4  1  0  0  0  0
  2  5  1  0  0  0  0
  5  6  2  0  0  0  0
  5  7  1  0  0  0  0
  7  8  1  0  0  0  0
  7  9  1  0  0  0  0
  9 10  1  0  0  0  0
  9 11  1  0  0  0  0
  9 19  1  0  0  0  0
 11 12  1  0  0  0  0
 11 13  1  0  0  0  0
 11 17  1  0  0  0  0
 13 14  1  0  0  0  0
 13 15  1  0  0  0  0
 13 16  1  0  0  0  0
 17 18  1  0  0  0  0
 19 20  2  0  0  0  0
 19 21  1  0  0  0  0
 21 22  1  0  0  0  0
 21 23  1  0  0  0  0
 23 24  1  0  0  0  0
 23 25  1  0  0  0  0
 23 26  1  0  0  0  0
M  END
$$$$

  -OEChem-01062216093D

 26 25  0     1  0  0  0  0  0999 V2000
   -3.2600   -3.0787    1.2428 H   0  0  0  0  0  0  0  0  0  0  0  0
   -3.0685   -2.1253    0.7419 C   0  0  0  0  0  0  0  0  0  0  0  0
   -3.7705   -1.3810    1.1257 H   0  0  0  0  0  0  0  0  0  0  0  0
   -3.2333   -2.2535   -0.3309 H   0  0  0  0  0  0  0  0  0  0  0  0
   -1.6422   -1.6746    0.9970 C   0  0  0  0  0  0  0  0  0  0  0  0
   -0.9053   -2.4002    1.6443 O   0  0  0  0  0  0  0  0  0  0  0  0
   -1.2249   -0.4703    0.4586 N   0  0  0  0  0  0  0  0  0  0  0  0
   -1.9177   -0.0217   -0.1364 H   0  0  0  0  0  0  0  0  0  0  0  0
    0.0958    0.2131    0.5010 C   0  0  1  0  0  0  0  0  0  0  0  0
   -0.1284    1.2791    0.6061 H   0  0  0  0  0  0  0  0  0  0  0  0
    1.0905   -0.0911    1.6525 C   0  0  1  0  0  0  0  0  0  0  0  0
    1.9885    0.5167    1.4946 H   0  0  0  0  0  0  0  0  0  0  0  0
    0.5070    0.2862    3.0143 C   0  0  0  0  0  0  0  0  0  0  0  0
   -0.3939   -0.2927    3.2337 H   0  0  0  0  0  0  0  0  0  0  0  0
    1.2424    0.0932    3.8010 H   0  0  0  0  0  0  0  0  0  0  0  0
    0.2499    1.3492    3.0369 H   0  0  0  0  0  0  0  0  0  0  0  0
    1.4879   -1.4606    1.6915 O   0  0  0  0  0  0  0  0  0  0  0  0
    0.6715   -2.0146    1.8046 H   0  0  0  0  0  0  0  0  0  0  0  0
    0.7971    0.0752   -0.8625 C   0  0  0  0  0  0  0  0  0  0  0  0
    0.4895    0.8449   -1.7642 O   0  0  0  0  0  0  0  0  0  0  0  0
    1.6318   -0.9915   -1.1336 N   0  0  0  0  0  0  0  0  0  0  0  0
    1.8784   -1.5814   -0.3361 H   0  0  0  0  0  0  0  0  0  0  0  0
    2.2891   -1.2081   -2.4149 C   0  0  0  0  0  0  0  0  0  0  0  0
    2.9131   -0.3473   -2.6763 H   0  0  0  0  0  0  0  0  0  0  0  0
    2.9268   -2.0958   -2.3652 H   0  0  0  0  0  0  0  0  0  0  0  0
    1.5464   -1.3597   -3.2049 H   0  0  0  0  0  0  0  0  0  0  0  0
  1  2  1  0  0  0  0
  2  3  1  0  0  0  0
  2  4  1  0  0  0  0
  2  5  1  0  0  0  0
  5  6  2  0  0  0  0
  5  7  1  0  0  0  0
  7  8  1  0  0  0  0
  7  9  1  0  0  0  0
  9 10  1  0  0  0  0
  9 11  1  0  0  0  0
  9 19  1  0  0  0  0
 11 12  1  0  0  0  0
 11 13  1  0  0  0  0
 11 17  1  0  0  0  0
 13 14  1  0  0  0  0
 13 15  1  0  0  0  0
 13 16  1  0  0  0  0
 17 18  1  0  0  0  0
 19 20  2  0  0  0  0
 19 21  1  0  0  0  0
 21 22  1  0  0  0  0
 21 23  1  0  0  0  0
 23 24  1  0  0  0  0
 23 25  1  0  0  0  0
 23 26  1  0  0  0  0
M  END
$$$$

  -OEChem-01062216093D

 26 25  0     1  0  0  0  0  0999 V2000
   -3.2797   -3.0711    1.2909 H   0  0  0  0  0  0  0  0  0  0  0  0
   -3.0965   -2.1170    0.7883 C   0  0  0  0  0  0  0  0  0  0  0  0
   -3.7783   -1.3684    1.1993 H   0  0  0  0  0  0  0  0  0  0  0  0
   -3.2986   -2.2384   -0.2788 H   0  0  0  0  0  0  0  0  0  0  0  0
   -1.6587   -1.6803    0.9987 C   0  0  0  0  0  0  0  0  0  0  0  0
   -0.9076   -2.4153    1.6186 O   0  0  0  0  0  0  0  0  0  0  0  0
   -1.2459   -0.4808    0.4463 N   0  0  0  0  0  0  0  0  0  0  0  0
   -1.9572   -0.0179   -0.1145 H   0  0  0  0  0  0  0  0  0  0  0  0
    0.0745    0.2060    0.4757 C   0  0  1  0  0  0  0  0  0  0  0  0
   -0.1503    1.2719    0.5815 H   0  0  0  0  0  0  0  0  0  0  0  0
    1.0820   -0.0983    1.6139 C   0  0  1  0  0  0  0  0  0  0  0  0
    1.9776    0.5106    1.4460 H   0  0  0  0  0  0  0  0  0  0  0  0
    0.5154    0.2752    2.9838 C   0  0  0  0  0  0  0  0  0  0  0  0
   -0.3768   -0.3118    3.2171 H   0  0  0  0  0  0  0  0  0  0  0  0
    1.2643    0.0894    3.7598 H   0  0  0  0  0  0  0  0  0  0  0  0
    0.2499    1.3361    3.0089 H   0  0  0  0  0  0  0  0  0  0  0  0
    1.4800   -1.4675    1.6414 O   0  0  0  0  0  0  0  0  0  0  0  0
    0.6669   -2.0218    1.7725 H   0  0  0  0  0  0  0  0  0  0  0  0
    0.7768    0.0602   -0.8851 C   0  0  0  0  0  0  0  0  0  0  0  0
    0.6791    0.9635   -1.7060 O   0  0  0  0  0  0  0  0  0  0  0  0
    1.3566   -1.1387   -1.2522 N   0  0  0  0  0  0  0  0  0  0  0  0
    1.5175   -1.7991   -0.4902 H   0  0  0  0  0  0  0  0  0  0  0  0
    2.0446   -1.3434   -2.5197 C   0  0  0  0  0  0  0  0  0  0  0  0
    2.9061   -0.6725   -2.6006 H   0  0  0  0  0  0  0  0  0  0  0  0
    2.3998   -2.3757   -2.5932 H   0  0  0  0  0  0  0  0  0  0  0  0
    1.3676   -1.1521   -3.3588 H   0  0  0  0  0  0  0  0  0  0  0  0
  1  2  1  0  0  0  0
  2  3  1  0  0  0  0
  2  4  1  0  0  0  0
  2  5  1  0  0  0  0
  5  6  2  0  0  0  0
  5  7  1  0  0  0  0
  7  8  1  0  0  0  0
  7  9  1  0  0  0  0
  9 10  1  0  0  0  0
  9 11  1  0  0  0  0
  9 19  1  0  0  0  0
 11 12  1  0  0  0  0
 11 13  1  0  0  0  0
 11 17  1  0  0  0  0
 13 14  1  0  0  0  0
 13 15  1  0  0  0  0
 13 16  1  0  0  0  0
 17 18  1  0  0  0  0
 19 20  2  0  0  0  0
 19 21  1  0  0  0  0
 21 22  1  0  0  0  0
 21 23  1  0  0  0  0
 23 24  1  0  0  0  0
 23 25  1  0  0  0  0
 23 26  1  0  0  0  0
M  END
$$$$

  -OEChem-01062216093D

 26 25  0     1  0  0  0  0  0999 V2000
   -3.2958   -3.0547    1.3488 H   0  0  0  0  0  0  0  0  0  0  0  0
   -3.1203   -2.1041    0.8368 C   0  0  0  0  0  0  0  0  0  0  0  0
   -3.7779   -1.3468    1.2706 H   0  0  0  0  0  0  0  0  0  0  0  0
   -3.3636   -2.2257   -0.2217 H   0  0  0  0  0  0  0  0  0  0  0  0
   -1.6705   -1.6843    0.9923 C   0  0  0  0  0  0  0  0  0  0  0  0
   -0.9001   -2.4373    1.5645 O   0  0  0  0  0  0  0  0  0  0  0  0
   -1.2644   -0.4862    0.4323 N   0  0  0  0  0  0  0  0  0  0  0  0
   -1.9963   -0.0028   -0.0825 H   0  0  0  0  0  0  0  0  0  0  0  0
    0.0536    0.2081    0.4548 C   0  0  1  0  0  0  0  0  0  0  0  0
   -0.1753    1.2730    0.5631 H   0  0  0  0  0  0  0  0  0  0  0  0
    1.0733   -0.0990    1.5796 C   0  0  1  0  0  0  0  0  0  0  0  0
    1.9634    0.5171    1.4092 H   0  0  0  0  0  0  0  0  0  0  0  0
    0.5180    0.2562    2.9588 C   0  0  0  0  0  0  0  0  0  0  0  0
   -0.3630   -0.3449    3.1979 H   0  0  0  0  0  0  0  0  0  0  0  0
    1.2789    0.0744    3.7240 H   0  0  0  0  0  0  0  0  0  0  0  0
    0.2387    1.3132    2.9955 H   0  0  0  0  0  0  0  0  0  0  0  0
    1.4777   -1.4660    1.5896 O   0  0  0  0  0  0  0  0  0  0  0  0
    0.6708   -2.0277    1.7214 H   0  0  0  0  0  0  0  0  0  0  0  0
    0.7611    0.0627   -0.9028 C   0  0  0  0  0  0  0  0  0  0  0  0
    0.9136    1.0498   -1.6108 O   0  0  0  0  0  0  0  0  0  0  0  0
    1.0738   -1.1909   -1.3934 N   0  0  0  0  0  0  0  0  0  0  0  0
    1.0758   -1.9404   -0.7025 H   0  0  0  0  0  0  0  0  0  0  0  0
    1.7797   -1.3992   -2.6506 C   0  0  0  0  0  0  0  0  0  0  0  0
    2.7701   -0.9332   -2.6170 H   0  0  0  0  0  0  0  0  0  0  0  0
    1.9053   -2.4698   -2.8387 H   0  0  0  0  0  0  0  0  0  0  0  0
    1.2149   -0.9672   -3.4834 H   0  0  0  0  0  0  0  0  0  0  0  0
  1  2  1  0  0  0  0
  2  3  1  0  0  0  0
  2  4  1  0  0  0  0
  2  5  1  0  0  0  0
  5  6  2  0  0  0  0
  5  7  1  0  0  0  0
  7  8  1  0  0  0  0
  7  9  1  0  0  0  0
  9 10  1  0  0  0  0
  9 11  1  0  0  0  0
  9 19  1  0  0  0  0
 11 12  1  0  0  0  0
 11 13  1  0  0  0  0
 11 17  1  0  0  0  0
 13 14  1  0  0  0  0
 13 15  1  0  0  0  0
 13 16  1  0  0  0  0
 17 18  1  0  0  0  0
 19 20  2  0  0  0  0
 19 21  1  0  0  0  0
 21 22  1  0  0  0  0
 21 23  1  0  0  0  0
 23 24  1  0  0  0  0
 23 25  1  0  0  0  0
 23 26  1  0  0  0  0
M  END
$$$$

  -OEChem-01062216093D

 26 25  0     1  0  0  0  0  0999 V2000
   -3.3037   -3.0394    1.4093 H   0  0  0  0  0  0  0  0  0  0  0  0
   -3.1362   -2.0911    0.8903 C   0  0  0  0  0  0  0  0  0  0  0  0
   -3.7627   -1.3243    1.3525 H   0  0  0  0  0  0  0  0  0  0  0  0
   -3.4270   -2.2079   -0.1566 H   0  0  0  0  0  0  0  0  0  0  0  0
   -1.6749   -1.6933    0.9829 C   0  0  0  0  0  0  0  0  0  0  0  0
   -0.8852   -2.4690    1.4936 O   0  0  0  0  0  0  0  0  0  0  0  0
   -1.2775   -0.4941    0.4201 N   0  0  0  0  0  0  0  0  0  0  0  0
   -2.0286    0.0107   -0.0432 H   0  0  0  0  0  0  0  0  0  0  0  0
    0.0374    0.2087    0.4385 C   0  0  1  0  0  0  0  0  0  0  0  0
   -0.1969    1.2722    0.5486 H   0  0  0  0  0  0  0  0  0  0  0  0
    1.0642   -0.0980    1.5564 C   0  0  1  0  0  0  0  0  0  0  0  0
    1.9499    0.5254    1.3878 H   0  0  0  0  0  0  0  0  0  0  0  0
    0.5085    0.2429    2.9393 C   0  0  0  0  0  0  0  0  0  0  0  0
   -0.3645   -0.3707    3.1771 H   0  0  0  0  0  0  0  0  0  0  0  0
    1.2736    0.0656    3.7014 H   0  0  0  0  0  0  0  0  0  0  0  0
    0.2162    1.2963    2.9832 H   0  0  0  0  0  0  0  0  0  0  0  0
    1.4780   -1.4617    1.5582 O   0  0  0  0  0  0  0  0  0  0  0  0
    0.6762   -2.0346    1.6637 H   0  0  0  0  0  0  0  0  0  0  0  0
    0.7512    0.0706   -0.9166 C   0  0  0  0  0  0  0  0  0  0  0  0
    1.1616    1.0726   -1.4879 O   0  0  0  0  0  0  0  0  0  0  0  0
    0.8025   -1.1554   -1.5544 N   0  0  0  0  0  0  0  0  0  0  0  0
    0.6019   -1.9631   -0.9681 H   0  0  0  0  0  0  0  0  0  0  0  0
    1.5148   -1.3653   -2.8078 C   0  0  0  0  0  0  0  0  0  0  0  0
    2.5791   -1.1383   -2.6857 H   0  0  0  0  0  0  0  0  0  0  0  0
    1.4158   -2.4069   -3.1281 H   0  0  0  0  0  0  0  0  0  0  0  0
    1.1048   -0.7232   -3.5944 H   0  0  0  0  0  0  0  0  0  0  0  0
  1  2  1  0  0  0  0
  2  3  1  0  0  0  0
  2  4  1  0  0  0  0
  2  5  1  0  0  0  0
  5  6  2  0  0  0  0
  5  7  1  0  0  0  0
  7  8  1  0  0  0  0
  7  9  1  0  0  0  0
  9 10  1  0  0  0  0
  9 11  1  0  0  0  0
  9 19  1  0  0  0  0
 11 12  1  0  0  0  0
 11 13  1  0  0  0  0
 11 17  1  0  0  0  0
 13 14  1  0  0  0  0
 13 15  1  0  0  0  0
 13 16  1  0  0  0  0
 17 18  1  0  0  0  0
 19 20  2  0  0  0  0
 19 21  1  0  0  0  0
 21 22  1  0  0  0  0
 21 23  1  0  0  0  0
 23 24  1  0  0  0  0
 23 25  1  0  0  0  0
 23 26  1  0  0  0  0
M  END
$$$$

  -OEChem-01062216093D

 26 25  0     1  0  0  0  0  0999 V2000
   -3.3066   -3.0336    1.4521 H   0  0  0  0  0  0  0  0  0  0  0  0
   -3.1465   -2.0843    0.9326 C   0  0  0  0  0  0  0  0  0  0  0  0
   -3.7514   -1.3144    1.4180 H   0  0  0  0  0  0  0  0  0  0  0  0
   -3.4706   -2.1931   -0.1054 H   0  0  0  0  0  0  0  0  0  0  0  0
   -1.6793   -1.7007    0.9814 C   0  0  0  0  0  0  0  0  0  0  0  0
   -0.8799   -2.4921    1.4497 O   0  0  0  0  0  0  0  0  0  0  0  0
   -1.2878   -0.5005    0.4165 N   0  0  0  0  0  0  0  0  0  0  0  0
   -2.0523    0.0216   -0.0037 H   0  0  0  0  0  0  0  0  0  0  0  0
    0.0265    0.2070    0.4278 C   0  0  1  0  0  0  0  0  0  0  0  0
   -0.2110    1.2694    0.5392 H   0  0  0  0  0  0  0  0  0  0  0  0
    1.0567   -0.1004    1.5431 C   0  0  1  0  0  0  0  0  0  0  0  0
    1.9411    0.5254    1.3765 H   0  0  0  0  0  0  0  0  0  0  0  0
    0.5014    0.2360    2.9270 C   0  0  0  0  0  0  0  0  0  0  0  0
   -0.3669   -0.3835    3.1659 H   0  0  0  0  0  0  0  0  0  0  0  0
    1.2692    0.0629    3.6872 H   0  0  0  0  0  0  0  0  0  0  0  0
    0.2034    1.2875    2.9724 H   0  0  0  0  0  0  0  0  0  0  0  0
    1.4727   -1.4631    1.5430 O   0  0  0  0  0  0  0  0  0  0  0  0
    0.6725   -2.0420    1.6218 H   0  0  0  0  0  0  0  0  0  0  0  0
    0.7467    0.0796   -0.9267 C   0  0  0  0  0  0  0  0  0  0  0  0
    1.3817    1.0309   -1.3635 O   0  0  0  0  0  0  0  0  0  0  0  0
    0.5564   -1.0381   -1.7197 N   0  0  0  0  0  0  0  0  0  0  0  0
    0.1685   -1.8499   -1.2454 H   0  0  0  0  0  0  0  0  0  0  0  0
    1.2615   -1.2407   -2.9789 C   0  0  0  0  0  0  0  0  0  0  0  0
    2.3435   -1.2676   -2.8117 H   0  0  0  0  0  0  0  0  0  0  0  0
    0.9566   -2.1879   -3.4340 H   0  0  0  0  0  0  0  0  0  0  0  0
    1.0333   -0.4322   -3.6814 H   0  0  0  0  0  0  0  0  0  0  0  0
  1  2  1  0  0  0  0
  2  3  1  0  0  0  0
  2  4  1  0  0  0  0
  2  5  1  0  0  0  0
  5  6  2  0  0  0  0
  5  7  1  0  0  0  0
  7  8  1  0  0  0  0
  7  9  1  0  0  0  0
  9 10  1  0  0  0  0
  9 11  1  0  0  0  0
  9 19  1  0  0  0  0
 11 12  1  0  0  0  0
 11 13  1  0  0  0  0
 11 17  1  0  0  0  0
 13 14  1  0  0  0  0
 13 15  1  0  0  0  0
 13 16  1  0  0  0  0
 17 18  1  0  0  0  0
 19 20  2  0  0  0  0
 19 21  1  0  0  0  0
 21 22  1  0  0  0  0
 21 23  1  0  0  0  0
 23 24  1  0  0  0  0
 23 25  1  0  0  0  0
 23 26  1  0  0  0  0
M  END
$$$$

  -OEChem-01062216093D

 26 25  0     1  0  0  0  0  0999 V2000
   -3.3028   -3.0314    1.4784 H   0  0  0  0  0  0  0  0  0  0  0  0
   -3.1454   -2.0822    0.9577 C   0  0  0  0  0  0  0  0  0  0  0  0
   -3.7360   -1.3089    1.4553 H   0  0  0  0  0  0  0  0  0  0  0  0
   -3.4895   -2.1868   -0.0742 H   0  0  0  0  0  0  0  0  0  0  0  0
   -1.6749   -1.7092    0.9804 C   0  0  0  0  0  0  0  0  0  0  0  0
   -0.8742   -2.5083    1.4316 O   0  0  0  0  0  0  0  0  0  0  0  0
   -1.2866   -0.5078    0.4149 N   0  0  0  0  0  0  0  0  0  0  0  0
   -2.0589    0.0267    0.0255 H   0  0  0  0  0  0  0  0  0  0  0  0
    0.0277    0.2028    0.4214 C   0  0  1  0  0  0  0  0  0  0  0  0
   -0.2114    1.2647    0.5314 H   0  0  0  0  0  0  0  0  0  0  0  0
    1.0543   -0.1039    1.5430 C   0  0  1  0  0  0  0  0  0  0  0  0
    1.9404    0.5211    1.3831 H   0  0  0  0  0  0  0  0  0  0  0  0
    0.4911    0.2340    2.9236 C   0  0  0  0  0  0  0  0  0  0  0  0
   -0.3790   -0.3845    3.1588 H   0  0  0  0  0  0  0  0  0  0  0  0
    1.2546    0.0609    3.6881 H   0  0  0  0  0  0  0  0  0  0  0  0
    0.1941    1.2859    2.9664 H   0  0  0  0  0  0  0  0  0  0  0  0
    1.4696   -1.4669    1.5501 O   0  0  0  0  0  0  0  0  0  0  0  0
    0.6690   -2.0479    1.6074 H   0  0  0  0  0  0  0  0  0  0  0  0
    0.7528    0.0840   -0.9340 C   0  0  0  0  0  0  0  0  0  0  0  0
    1.5708    0.9354   -1.2579 O   0  0  0  0  0  0  0  0  0  0  0  0
    0.3520   -0.8557   -1.8681 N   0  0  0  0  0  0  0  0  0  0  0  0
   -0.2079   -1.6226   -1.5063 H   0  0  0  0  0  0  0  0  0  0  0  0
    1.0259   -1.0315   -3.1488 C   0  0  0  0  0  0  0  0  0  0  0  0
    2.0761   -1.3015   -2.9950 H   0  0  0  0  0  0  0  0  0  0  0  0
    0.5433   -1.8276   -3.7237 H   0  0  0  0  0  0  0  0  0  0  0  0
    0.9820   -0.1082   -3.7362 H   0  0  0  0  0  0  0  0  0  0  0  0
  1  2  1  0  0  0  0
  2  3  1  0  0  0  0
  2  4  1  0  0  0  0
  2  5  1  0  0  0  0
  5  6  2  0  0  0  0
  5  7  1  0  0  0  0
  7  8  1  0  0  0  0
  7  9  1  0  0  0  0
  9 10  1  0  0  0  0
  9 11  1  0  0  0  0
  9 19  1  0  0  0  0
 11 12  1  0  0  0  0
 11 13  1  0  0  0  0
 11 17  1  0  0  0  0
 13 14  1  0  0  0  0
 13 15  1  0  0  0  0
 13 16  1  0  0  0  0
 17 18  1  0  0  0  0
 19 20  2  0  0  0  0
 19 21  1  0  0  0  0
 21 22  1  0  0  0  0
 21 23  1  0  0  0  0
 23 24  1  0  0  0  0
 23 25  1  0  0  0  0
 23 26  1  0  0  0  0
M  END
$$$$

  -OEChem-01062216093D

 26 25  0     1  0  0  0  0  0999 V2000
   -3.2942   -3.0290    1.4915 H   0  0  0  0  0  0  0  0  0  0  0  0
   -3.1349   -2.0855    0.9610 C   0  0  0  0  0  0  0  0  0  0  0  0
   -3.7203   -1.3055    1.4541 H   0  0  0  0  0  0  0  0  0  0  0  0
   -3.4837   -2.1990   -0.0683 H   0  0  0  0  0  0  0  0  0  0  0  0
   -1.6623   -1.7189    0.9753 C   0  0  0  0  0  0  0  0  0  0  0  0
   -0.8653   -2.5201    1.4284 O   0  0  0  0  0  0  0  0  0  0  0  0
   -1.2736   -0.5157    0.4123 N   0  0  0  0  0  0  0  0  0  0  0  0
   -2.0507    0.0301    0.0492 H   0  0  0  0  0  0  0  0  0  0  0  0
    0.0421    0.1946    0.4180 C   0  0  1  0  0  0  0  0  0  0  0  0
   -0.1969    1.2567    0.5240 H   0  0  0  0  0  0  0  0  0  0  0  0
    1.0586   -0.1090    1.5523 C   0  0  1  0  0  0  0  0  0  0  0  0
    1.9488    0.5122    1.4028 H   0  0  0  0  0  0  0  0  0  0  0  0
    0.4797    0.2382    2.9242 C   0  0  0  0  0  0  0  0  0  0  0  0
   -0.3955   -0.3759    3.1516 H   0  0  0  0  0  0  0  0  0  0  0  0
    1.2327    0.0659    3.6992 H   0  0  0  0  0  0  0  0  0  0  0  0
    0.1866    1.2916    2.9579 H   0  0  0  0  0  0  0  0  0  0  0  0
    1.4705   -1.4728    1.5753 O   0  0  0  0  0  0  0  0  0  0  0  0
    0.6682   -2.0531    1.6136 H   0  0  0  0  0  0  0  0  0  0  0  0
    0.7675    0.0806   -0.9403 C   0  0  0  0  0  0  0  0  0  0  0  0
    1.7357    0.7917   -1.1772 O   0  0  0  0  0  0  0  0  0  0  0  0
    0.1921   -0.6219   -1.9858 N   0  0  0  0  0  0  0  0  0  0  0  0
   -0.5219   -1.2950   -1.7248 H   0  0  0  0  0  0  0  0  0  0  0  0
    0.8235   -0.7503   -3.2937 C   0  0  0  0  0  0  0  0  0  0  0  0
    1.7989   -1.2398   -3.2015 H   0  0  0  0  0  0  0  0  0  0  0  0
    0.1952   -1.3498   -3.9593 H   0  0  0  0  0  0  0  0  0  0  0  0
    0.9655    0.2351   -3.7503 H   0  0  0  0  0  0  0  0  0  0  0  0
  1  2  1  0  0  0  0
  2  3  1  0  0  0  0
  2  4  1  0  0  0  0
  2  5  1  0  0  0  0
  5  6  2  0  0  0  0
  5  7  1  0  0  0  0
  7  8  1  0  0  0  0
  7  9  1  0  0  0  0
  9 10  1  0  0  0  0
  9 11  1  0  0  0  0
  9 19  1  0  0  0  0
 11 12  1  0  0  0  0
 11 13  1  0  0  0  0
 11 17  1  0  0  0  0
 13 14  1  0  0  0  0
 13 15  1  0  0  0  0
 13 16  1  0  0  0  0
 17 18  1  0  0  0  0
 19 20  2  0  0  0  0
 19 21  1  0  0  0  0
 21 22  1  0  0  0  0
 21 23  1  0  0  0  0
 23 24  1  0  0  0  0
 23 25  1  0  0  0  0
 23 26  1  0  0  0  0
M  END
$$$$

  -OEChem-01062216093D

 26 25  0     1  0  0  0  0  0999 V2000
   -3.2749   -3.0404    1.4752 H   0  0  0  0  0  0  0  0  0  0  0  0
   -3.1176   -2.0890    0.9585 C   0  0  0  0  0  0  0  0  0  0  0  0
   -3.6915   -1.3143    1.4730 H   0  0  0  0  0  0  0  0  0  0  0  0
   -3.4816   -2.1831   -0.0675 H   0  0  0  0  0  0  0  0  0  0  0  0
   -1.6427   -1.7312    0.9572 C   0  0  0  0  0  0  0  0  0  0  0  0
   -0.8454   -2.5392    1.3969 O   0  0  0  0  0  0  0  0  0  0  0  0
   -1.2565   -0.5233    0.4022 N   0  0  0  0  0  0  0  0  0  0  0  0
   -2.0398    0.0377    0.0785 H   0  0  0  0  0  0  0  0  0  0  0  0
    0.0596    0.1870    0.4135 C   0  0  1  0  0  0  0  0  0  0  0  0
   -0.1815    1.2487    0.5168 H   0  0  0  0  0  0  0  0  0  0  0  0
    1.0630   -0.1104    1.5642 C   0  0  1  0  0  0  0  0  0  0  0  0
    1.9546    0.5115    1.4271 H   0  0  0  0  0  0  0  0  0  0  0  0
    0.4624    0.2438    2.9252 C   0  0  0  0  0  0  0  0  0  0  0  0
   -0.4099   -0.3770    3.1459 H   0  0  0  0  0  0  0  0  0  0  0  0
    1.2066    0.0847    3.7117 H   0  0  0  0  0  0  0  0  0  0  0  0
    0.1594    1.2946    2.9467 H   0  0  0  0  0  0  0  0  0  0  0  0
    1.4757   -1.4736    1.6080 O   0  0  0  0  0  0  0  0  0  0  0  0
    0.6751   -2.0574    1.6137 H   0  0  0  0  0  0  0  0  0  0  0  0
    0.7814    0.0788   -0.9503 C   0  0  0  0  0  0  0  0  0  0  0  0
    1.8793    0.5936   -1.1192 O   0  0  0  0  0  0  0  0  0  0  0  0
    0.0819   -0.3383   -2.0712 N   0  0  0  0  0  0  0  0  0  0  0  0
   -0.7699   -0.8603   -1.8934 H   0  0  0  0  0  0  0  0  0  0  0  0
    0.6864   -0.4267   -3.3957 C   0  0  0  0  0  0  0  0  0  0  0  0
    1.5350   -1.1188   -3.3839 H   0  0  0  0  0  0  0  0  0  0  0  0
   -0.0472   -0.7888   -4.1222 H   0  0  0  0  0  0  0  0  0  0  0  0
    1.0384    0.5570   -3.7242 H   0  0  0  0  0  0  0  0  0  0  0  0
  1  2  1  0  0  0  0
  2  3  1  0  0  0  0
  2  4  1  0  0  0  0
  2  5  1  0  0  0  0
  5  6  2  0  0  0  0
  5  7  1  0  0  0  0
  7  8  1  0  0  0  0
  7  9  1  0  0  0  0
  9 10  1  0  0  0  0
  9 11  1  0  0  0  0
  9 19  1  0  0  0  0
 11 12  1  0  0  0  0
 11 13  1  0  0  0  0
 11 17  1  0  0  0  0
 13 14  1  0  0  0  0
 13 15  1  0  0  0  0
 13 16  1  0  0  0  0
 17 18  1  0  0  0  0
 19 20  2  0  0  0  0
 19 21  1  0  0  0  0
 21 22  1  0  0  0  0
 21 23  1  0  0  0  0
 23 24  1  0  0  0  0
 23 25  1  0  0  0  0
 23 26  1  0  0  0  0
M  END
$$$$

  -OEChem-01062216093D

 26 25  0     1  0  0  0  0  0999 V2000
   -3.2570   -3.0457    1.4670 H   0  0  0  0  0  0  0  0  0  0  0  0
   -3.1012   -2.0939    0.9501 C   0  0  0  0  0  0  0  0  0  0  0  0
   -3.6687   -1.3180    1.4698 H   0  0  0  0  0  0  0  0  0  0  0  0
   -3.4737   -2.1865   -0.0731 H   0  0  0  0  0  0  0  0  0  0  0  0
   -1.6250   -1.7410    0.9378 C   0  0  0  0  0  0  0  0  0  0  0  0
   -0.8284   -2.5538    1.3692 O   0  0  0  0  0  0  0  0  0  0  0  0
   -1.2390   -0.5293    0.3905 N   0  0  0  0  0  0  0  0  0  0  0  0
   -2.0256    0.0435    0.0983 H   0  0  0  0  0  0  0  0  0  0  0  0
    0.0796    0.1753    0.4080 C   0  0  1  0  0  0  0  0  0  0  0  0
   -0.1596    1.2378    0.5074 H   0  0  0  0  0  0  0  0  0  0  0  0
    1.0681   -0.1148    1.5761 C   0  0  1  0  0  0  0  0  0  0  0  0
    1.9619    0.5052    1.4462 H   0  0  0  0  0  0  0  0  0  0  0  0
    0.4474    0.2528    2.9245 C   0  0  0  0  0  0  0  0  0  0  0  0
   -0.4255   -0.3690    3.1399 H   0  0  0  0  0  0  0  0  0  0  0  0
    1.1814    0.1047    3.7225 H   0  0  0  0  0  0  0  0  0  0  0  0
    0.1407    1.3026    2.9308 H   0  0  0  0  0  0  0  0  0  0  0  0
    1.4783   -1.4774    1.6481 O   0  0  0  0  0  0  0  0  0  0  0  0
    0.6793   -2.0627    1.6215 H   0  0  0  0  0  0  0  0  0  0  0  0
    0.7947    0.0692   -0.9615 C   0  0  0  0  0  0  0  0  0  0  0  0
    1.9836    0.3319   -1.0866 O   0  0  0  0  0  0  0  0  0  0  0  0
    0.0369   -0.0297   -2.1178 N   0  0  0  0  0  0  0  0  0  0  0  0
   -0.9194   -0.3466   -2.0027 H   0  0  0  0  0  0  0  0  0  0  0  0
    0.6252   -0.0711   -3.4522 C   0  0  0  0  0  0  0  0  0  0  0  0
    1.2976   -0.9303   -3.5476 H   0  0  0  0  0  0  0  0  0  0  0  0
   -0.1601   -0.1587   -4.2091 H   0  0  0  0  0  0  0  0  0  0  0  0
    1.1928    0.8442   -3.6511 H   0  0  0  0  0  0  0  0  0  0  0  0
  1  2  1  0  0  0  0
  2  3  1  0  0  0  0
  2  4  1  0  0  0  0
  2  5  1  0  0  0  0
  5  6  2  0  0  0  0
  5  7  1  0  0  0  0
  7  8  1  0  0  0  0
  7  9  1  0  0  0  0
  9 10  1  0  0  0  0
  9 11  1  0  0  0  0
  9 19  1  0  0  0  0
 11 12  1  0  0  0  0
 11 13  1  0  0  0  0
 11 17  1  0  0  0  0
 13 14  1  0  0  0  0
 13 15  1  0  0  0  0
 13 16  1  0  0  0  0
 17 18  1  0  0  0  0
 19 20  2  0  0  0  0
 19 21  1  0  0  0  0
 21 22  1  0  0  0  0
 21 23  1  0  0  0  0
 23 24  1  0  0  0  0
 23 25  1  0  0  0  0
 23 26  1  0  0  0  0
M  END
$$$$

  -OEChem-01062216093D

 26 25  0     1  0  0  0  0  0999 V2000
   -3.2451   -3.0651    1.4319 H   0  0  0  0  0  0  0  0  0  0  0  0
   -3.0873   -2.1105    0.9210 C   0  0  0  0  0  0  0  0  0  0  0  0
   -3.6657   -1.3400    1.4365 H   0  0  0  0  0  0  0  0  0  0  0  0
   -3.4447   -2.2005   -0.1077 H   0  0  0  0  0  0  0  0  0  0  0  0
   -1.6130   -1.7501    0.9292 C   0  0  0  0  0  0  0  0  0  0  0  0
   -0.8194   -2.5573    1.3766 O   0  0  0  0  0  0  0  0  0  0  0  0
   -1.2269   -0.5349    0.3895 N   0  0  0  0  0  0  0  0  0  0  0  0
   -2.0125    0.0339    0.0895 H   0  0  0  0  0  0  0  0  0  0  0  0
    0.0950    0.1611    0.4081 C   0  0  1  0  0  0  0  0  0  0  0  0
   -0.1415    1.2241    0.5064 H   0  0  0  0  0  0  0  0  0  0  0  0
    1.0752   -0.1181    1.5863 C   0  0  1  0  0  0  0  0  0  0  0  0
    1.9715    0.4969    1.4488 H   0  0  0  0  0  0  0  0  0  0  0  0
    0.4467    0.2732    2.9245 C   0  0  0  0  0  0  0  0  0  0  0  0
   -0.4329   -0.3390    3.1403 H   0  0  0  0  0  0  0  0  0  0  0  0
    1.1727    0.1298    3.7307 H   0  0  0  0  0  0  0  0  0  0  0  0
    0.1482    1.3253    2.9145 H   0  0  0  0  0  0  0  0  0  0  0  0
    1.4832   -1.4794    1.6883 O   0  0  0  0  0  0  0  0  0  0  0  0
    0.6862   -2.0658    1.6408 H   0  0  0  0  0  0  0  0  0  0  0  0
    0.7982    0.0593   -0.9684 C   0  0  0  0  0  0  0  0  0  0  0  0
    2.0148    0.0028   -1.0835 O   0  0  0  0  0  0  0  0  0  0  0  0
    0.0600    0.2896   -2.1191 N   0  0  0  0  0  0  0  0  0  0  0  0
   -0.9495    0.2828   -2.0299 H   0  0  0  0  0  0  0  0  0  0  0  0
    0.6423    0.2813   -3.4569 C   0  0  0  0  0  0  0  0  0  0  0  0
    1.0967   -0.6918   -3.6713 H   0  0  0  0  0  0  0  0  0  0  0  0
   -0.1300    0.4761   -4.2070 H   0  0  0  0  0  0  0  0  0  0  0  0
    1.4112    1.0562   -3.5459 H   0  0  0  0  0  0  0  0  0  0  0  0
  1  2  1  0  0  0  0
  2  3  1  0  0  0  0
  2  4  1  0  0  0  0
  2  5  1  0  0  0  0
  5  6  2  0  0  0  0
  5  7  1  0  0  0  0
  7  8  1  0  0  0  0
  7  9  1  0  0  0  0
  9 10  1  0  0  0  0
  9 11  1  0  0  0  0
  9 19  1  0  0  0  0
 11 12  1  0  0  0  0
 11 13  1  0  0  0  0
 11 17  1  0  0  0  0
 13 14  1  0  0  0  0
 13 15  1  0  0  0  0
 13 16  1  0  0  0  0
 17 18  1  0  0  0  0
 19 20  2  0  0  0  0
 19 21  1  0  0  0  0
 21 22  1  0  0  0  0
 21 23  1  0  0  0  0
 23 24  1  0  0  0  0
 23 25  1  0  0  0  0
 23 26  1  0  0  0  0
M  END
$$$$

  -OEChem-01062216093D

 26 25  0     1  0  0  0  0  0999 V2000
   -3.2544   -3.0875    1.3477 H   0  0  0  0  0  0  0  0  0  0  0  0
   -3.0780   -2.1393    0.8314 C   0  0  0  0  0  0  0  0  0  0  0  0
   -3.7210   -1.3752    1.2749 H   0  0  0  0  0  0  0  0  0  0  0  0
   -3.3390   -2.2613   -0.2227 H   0  0  0  0  0  0  0  0  0  0  0  0
   -1.6208   -1.7353    0.9609 C   0  0  0  0  0  0  0  0  0  0  0  0
   -0.8525   -2.5024    1.5117 O   0  0  0  0  0  0  0  0  0  0  0  0
   -1.2244   -0.5232    0.4215 N   0  0  0  0  0  0  0  0  0  0  0  0
   -1.9838   -0.0083   -0.0119 H   0  0  0  0  0  0  0  0  0  0  0  0
    0.1049    0.1553    0.4249 C   0  0  1  0  0  0  0  0  0  0  0  0
   -0.1202    1.2203    0.5277 H   0  0  0  0  0  0  0  0  0  0  0  0
    1.0959   -0.1194    1.5941 C   0  0  1  0  0  0  0  0  0  0  0  0
    1.9968    0.4820    1.4280 H   0  0  0  0  0  0  0  0  0  0  0  0
    0.4928    0.3014    2.9350 C   0  0  0  0  0  0  0  0  0  0  0  0
   -0.4001   -0.2858    3.1659 H   0  0  0  0  0  0  0  0  0  0  0  0
    1.2237    0.1472    3.7345 H   0  0  0  0  0  0  0  0  0  0  0  0
    0.2205    1.3605    2.9178 H   0  0  0  0  0  0  0  0  0  0  0  0
    1.4948   -1.4815    1.7126 O   0  0  0  0  0  0  0  0  0  0  0  0
    0.6890   -2.0572    1.7012 H   0  0  0  0  0  0  0  0  0  0  0  0
    0.7793    0.0458   -0.9640 C   0  0  0  0  0  0  0  0  0  0  0  0
    1.9136   -0.3794   -1.1276 O   0  0  0  0  0  0  0  0  0  0  0  0
    0.1315    0.5859   -2.0646 N   0  0  0  0  0  0  0  0  0  0  0  0
   -0.7902    0.9839   -1.9252 H   0  0  0  0  0  0  0  0  0  0  0  0
    0.7065    0.5986   -3.4054 C   0  0  0  0  0  0  0  0  0  0  0  0
    0.9278   -0.4215   -3.7364 H   0  0  0  0  0  0  0  0  0  0  0  0
    0.0047    1.0467   -4.1151 H   0  0  0  0  0  0  0  0  0  0  0  0
    1.6329    1.1823   -3.4195 H   0  0  0  0  0  0  0  0  0  0  0  0
  1  2  1  0  0  0  0
  2  3  1  0  0  0  0
  2  4  1  0  0  0  0
  2  5  1  0  0  0  0
  5  6  2  0  0  0  0
  5  7  1  0  0  0  0
  7  8  1  0  0  0  0
  7  9  1  0  0  0  0
  9 10  1  0  0  0  0
  9 11  1  0  0  0  0
  9 19  1  0  0  0  0
 11 12  1  0  0  0  0
 11 13  1  0  0  0  0
 11 17  1  0  0  0  0
 13 14  1  0  0  0  0
 13 15  1  0  0  0  0
 13 16  1  0  0  0  0
 17 18  1  0  0  0  0
 19 20  2  0  0  0  0
 19 21  1  0  0  0  0
 21 22  1  0  0  0  0
 21 23  1  0  0  0  0
 23 24  1  0  0  0  0
 23 25  1  0  0  0  0
 23 26  1  0  0  0  0
M  END
$$$$

  -OEChem-01062216093D

 26 25  0     1  0  0  0  0  0999 V2000
   -3.2421   -3.1127    1.2564 H   0  0  0  0  0  0  0  0  0  0  0  0
   -3.0608   -2.1598    0.7507 C   0  0  0  0  0  0  0  0  0  0  0  0
   -3.7551   -1.4155    1.1476 H   0  0  0  0  0  0  0  0  0  0  0  0
   -3.2462   -2.2906   -0.3183 H   0  0  0  0  0  0  0  0  0  0  0  0
   -1.6295   -1.7102    0.9783 C   0  0  0  0  0  0  0  0  0  0  0  0
   -0.8866   -2.4370    1.6132 O   0  0  0  0  0  0  0  0  0  0  0  0
   -1.2304   -0.4964    0.4447 N   0  0  0  0  0  0  0  0  0  0  0  0
   -1.9523   -0.0382   -0.1022 H   0  0  0  0  0  0  0  0  0  0  0  0
    0.1047    0.1658    0.4464 C   0  0  1  0  0  0  0  0  0  0  0  0
   -0.1130    1.2309    0.5609 H   0  0  0  0  0  0  0  0  0  0  0  0
    1.1079   -0.1136    1.6022 C   0  0  1  0  0  0  0  0  0  0  0  0
    2.0108    0.4787    1.4169 H   0  0  0  0  0  0  0  0  0  0  0  0
    0.5308    0.3207    2.9505 C   0  0  0  0  0  0  0  0  0  0  0  0
   -0.3700   -0.2490    3.1943 H   0  0  0  0  0  0  0  0  0  0  0  0
    1.2692    0.1543    3.7408 H   0  0  0  0  0  0  0  0  0  0  0  0
    0.2780    1.3845    2.9347 H   0  0  0  0  0  0  0  0  0  0  0  0
    1.5021   -1.4761    1.7197 O   0  0  0  0  0  0  0  0  0  0  0  0
    0.6904   -2.0428    1.7352 H   0  0  0  0  0  0  0  0  0  0  0  0
    0.7602    0.0570   -0.9492 C   0  0  0  0  0  0  0  0  0  0  0  0
    1.6660   -0.7214   -1.2065 O   0  0  0  0  0  0  0  0  0  0  0  0
    0.2885    0.8669   -1.9708 N   0  0  0  0  0  0  0  0  0  0  0  0
   -0.4208    1.5553   -1.7420 H   0  0  0  0  0  0  0  0  0  0  0  0
    0.8481    0.8599   -3.3182 C   0  0  0  0  0  0  0  0  0  0  0  0
    0.7853   -0.1427   -3.7547 H   0  0  0  0  0  0  0  0  0  0  0  0
    0.2944    1.5504   -3.9615 H   0  0  0  0  0  0  0  0  0  0  0  0
    1.8982    1.1701   -3.2989 H   0  0  0  0  0  0  0  0  0  0  0  0
  1  2  1  0  0  0  0
  2  3  1  0  0  0  0
  2  4  1  0  0  0  0
  2  5  1  0  0  0  0
  5  6  2  0  0  0  0
  5  7  1  0  0  0  0
  7  8  1  0  0  0  0
  7  9  1  0  0  0  0
  9 10  1  0  0  0  0
  9 11  1  0  0  0  0
  9 19  1  0  0  0  0
 11 12  1  0  0  0  0
 11 13  1  0  0  0  0
 11 17  1  0  0  0  0
 13 14  1  0  0  0  0
 13 15  1  0  0  0  0
 13 16  1  0  0  0  0
 17 18  1  0  0  0  0
 19 20  2  0  0  0  0
 19 21  1  0  0  0  0
 21 22  1  0  0  0  0
 21 23  1  0  0  0  0
 23 24  1  0  0  0  0
 23 25  1  0  0  0  0
 23 26  1  0  0  0  0
M  END
$$$$

  -OEChem-01062216093D

 26 25  0     1  0  0  0  0  0999 V2000
   -3.2144   -3.1355    1.1845 H   0  0  0  0  0  0  0  0  0  0  0  0
   -3.0377   -2.1745    0.6927 C   0  0  0  0  0  0  0  0  0  0  0  0
   -3.7703   -1.4525    1.0613 H   0  0  0  0  0  0  0  0  0  0  0  0
   -3.1705   -2.3033   -0.3843 H   0  0  0  0  0  0  0  0  0  0  0  0
   -1.6314   -1.6856    0.9868 C   0  0  0  0  0  0  0  0  0  0  0  0
   -0.9069   -2.3805    1.6777 O   0  0  0  0  0  0  0  0  0  0  0  0
   -1.2369   -0.4683    0.4578 N   0  0  0  0  0  0  0  0  0  0  0  0
   -1.9295   -0.0513   -0.1564 H   0  0  0  0  0  0  0  0  0  0  0  0
    0.0983    0.1907    0.4705 C   0  0  1  0  0  0  0  0  0  0  0  0
   -0.1233    1.2536    0.5969 H   0  0  0  0  0  0  0  0  0  0  0  0
    1.1124   -0.0970    1.6120 C   0  0  1  0  0  0  0  0  0  0  0  0
    2.0123    0.4982    1.4225 H   0  0  0  0  0  0  0  0  0  0  0  0
    0.5511    0.3240    2.9712 C   0  0  0  0  0  0  0  0  0  0  0  0
   -0.3499   -0.2441    3.2177 H   0  0  0  0  0  0  0  0  0  0  0  0
    1.2964    0.1457    3.7523 H   0  0  0  0  0  0  0  0  0  0  0  0
    0.3023    1.3890    2.9703 H   0  0  0  0  0  0  0  0  0  0  0  0
    1.5095   -1.4594    1.7042 O   0  0  0  0  0  0  0  0  0  0  0  0
    0.6965   -2.0233    1.7395 H   0  0  0  0  0  0  0  0  0  0  0  0
    0.7598    0.0870   -0.9208 C   0  0  0  0  0  0  0  0  0  0  0  0
    1.3252   -0.9279   -1.3002 O   0  0  0  0  0  0  0  0  0  0  0  0
    0.5354    1.0918   -1.8492 N   0  0  0  0  0  0  0  0  0  0  0  0
    0.0809    1.9410   -1.5285 H   0  0  0  0  0  0  0  0  0  0  0  0
    1.0585    1.0507   -3.2107 C   0  0  0  0  0  0  0  0  0  0  0  0
    0.6767    0.1726   -3.7423 H   0  0  0  0  0  0  0  0  0  0  0  0
    0.7533    1.9458   -3.7610 H   0  0  0  0  0  0  0  0  0  0  0  0
    2.1528    1.0073   -3.1993 H   0  0  0  0  0  0  0  0  0  0  0  0
  1  2  1  0  0  0  0
  2  3  1  0  0  0  0
  2  4  1  0  0  0  0
  2  5  1  0  0  0  0
  5  6  2  0  0  0  0
  5  7  1  0  0  0  0
  7  8  1  0  0  0  0
  7  9  1  0  0  0  0
  9 10  1  0  0  0  0
  9 11  1  0  0  0  0
  9 19  1  0  0  0  0
 11 12  1  0  0  0  0
 11 13  1  0  0  0  0
 11 17  1  0  0  0  0
 13 14  1  0  0  0  0
 13 15  1  0  0  0  0
 13 16  1  0  0  0  0
 17 18  1  0  0  0  0
 19 20  2  0  0  0  0
 19 21  1  0  0  0  0
 21 22  1  0  0  0  0
 21 23  1  0  0  0  0
 23 24  1  0  0  0  0
 23 25  1  0  0  0  0
 23 26  1  0  0  0  0
M  END
$$$$

  -OEChem-01062216093D

 26 25  0     1  0  0  0  0  0999 V2000
   -3.1999   -3.1457    1.1477 H   0  0  0  0  0  0  0  0  0  0  0  0
   -3.0259   -2.1826    0.6589 C   0  0  0  0  0  0  0  0  0  0  0  0
   -3.7873   -1.4750    0.9955 H   0  0  0  0  0  0  0  0  0  0  0  0
   -3.1141   -2.3183   -0.4218 H   0  0  0  0  0  0  0  0  0  0  0  0
   -1.6428   -1.6617    1.0036 C   0  0  0  0  0  0  0  0  0  0  0  0
   -0.9351   -2.3318    1.7363 O   0  0  0  0  0  0  0  0  0  0  0  0
   -1.2485   -0.4461    0.4708 N   0  0  0  0  0  0  0  0  0  0  0  0
   -1.9122   -0.0665   -0.1974 H   0  0  0  0  0  0  0  0  0  0  0  0
    0.0881    0.2086    0.4888 C   0  0  1  0  0  0  0  0  0  0  0  0
   -0.1342    1.2707    0.6198 H   0  0  0  0  0  0  0  0  0  0  0  0
    1.1123   -0.0894    1.6147 C   0  0  1  0  0  0  0  0  0  0  0  0
    2.0115    0.5053    1.4202 H   0  0  0  0  0  0  0  0  0  0  0  0
    0.5726    0.3212    2.9858 C   0  0  0  0  0  0  0  0  0  0  0  0
   -0.3336   -0.2361    3.2373 H   0  0  0  0  0  0  0  0  0  0  0  0
    1.3247    0.1233    3.7556 H   0  0  0  0  0  0  0  0  0  0  0  0
    0.3381    1.3894    3.0001 H   0  0  0  0  0  0  0  0  0  0  0  0
    1.5036   -1.4547    1.6758 O   0  0  0  0  0  0  0  0  0  0  0  0
    0.6870   -2.0110    1.7429 H   0  0  0  0  0  0  0  0  0  0  0  0
    0.7572    0.0991   -0.8973 C   0  0  0  0  0  0  0  0  0  0  0  0
    1.0002   -0.9891   -1.4004 O   0  0  0  0  0  0  0  0  0  0  0  0
    0.8133    1.2175   -1.7138 N   0  0  0  0  0  0  0  0  0  0  0  0
    0.6073    2.1192   -1.2951 H   0  0  0  0  0  0  0  0  0  0  0  0
    1.3292    1.1834   -3.0779 C   0  0  0  0  0  0  0  0  0  0  0  0
    0.7454    0.4903   -3.6929 H   0  0  0  0  0  0  0  0  0  0  0  0
    1.2688    2.1781   -3.5299 H   0  0  0  0  0  0  0  0  0  0  0  0
    2.3764    0.8628   -3.0836 H   0  0  0  0  0  0  0  0  0  0  0  0
  1  2  1  0  0  0  0
  2  3  1  0  0  0  0
  2  4  1  0  0  0  0
  2  5  1  0  0  0  0
  5  6  2  0  0  0  0
  5  7  1  0  0  0  0
  7  8  1  0  0  0  0
  7  9  1  0  0  0  0
  9 10  1  0  0  0  0
  9 11  1  0  0  0  0
  9 19  1  0  0  0  0
 11 12  1  0  0  0  0
 11 13  1  0  0  0  0
 11 17  1  0  0  0  0
 13 14  1  0  0  0  0
 13 15  1  0  0  0  0
 13 16  1  0  0  0  0
 17 18  1  0  0  0  0
 19 20  2  0  0  0  0
 19 21  1  0  0  0  0
 21 22  1  0  0  0  0
 21 23  1  0  0  0  0
 23 24  1  0  0  0  0
 23 25  1  0  0  0  0
 23 26  1  0  0  0  0
M  END
$$$$

  -OEChem-01062216093D

 26 25  0     1  0  0  0  0  0999 V2000
   -3.1969   -3.1489    1.1473 H   0  0  0  0  0  0  0  0  0  0  0  0
   -3.0203   -2.1919    0.6479 C   0  0  0  0  0  0  0  0  0  0  0  0
   -3.7982   -1.4878    0.9528 H   0  0  0  0  0  0  0  0  0  0  0  0
   -3.0780   -2.3455   -0.4326 H   0  0  0  0  0  0  0  0  0  0  0  0
   -1.6526   -1.6502    1.0204 C   0  0  0  0  0  0  0  0  0  0  0  0
   -0.9546   -2.3036    1.7781 O   0  0  0  0  0  0  0  0  0  0  0  0
   -1.2594   -0.4374    0.4810 N   0  0  0  0  0  0  0  0  0  0  0  0
   -1.9023   -0.0887   -0.2238 H   0  0  0  0  0  0  0  0  0  0  0  0
    0.0780    0.2166    0.4975 C   0  0  1  0  0  0  0  0  0  0  0  0
   -0.1461    1.2787    0.6262 H   0  0  0  0  0  0  0  0  0  0  0  0
    1.1083   -0.0863    1.6148 C   0  0  1  0  0  0  0  0  0  0  0  0
    2.0087    0.5053    1.4163 H   0  0  0  0  0  0  0  0  0  0  0  0
    0.5833    0.3219    2.9924 C   0  0  0  0  0  0  0  0  0  0  0  0
   -0.3230   -0.2312    3.2517 H   0  0  0  0  0  0  0  0  0  0  0  0
    1.3416    0.1184    3.7545 H   0  0  0  0  0  0  0  0  0  0  0  0
    0.3540    1.3911    3.0117 H   0  0  0  0  0  0  0  0  0  0  0  0
    1.4936   -1.4539    1.6569 O   0  0  0  0  0  0  0  0  0  0  0  0
    0.6756   -2.0042    1.7534 H   0  0  0  0  0  0  0  0  0  0  0  0
    0.7553    0.1036   -0.8844 C   0  0  0  0  0  0  0  0  0  0  0  0
    0.7342   -0.9504   -1.5075 O   0  0  0  0  0  0  0  0  0  0  0  0
    1.0996    1.2567   -1.5712 N   0  0  0  0  0  0  0  0  0  0  0  0
    1.1150    2.1284   -1.0505 H   0  0  0  0  0  0  0  0  0  0  0  0
    1.6336    1.2469   -2.9288 C   0  0  0  0  0  0  0  0  0  0  0  0
    0.9131    0.8006   -3.6223 H   0  0  0  0  0  0  0  0  0  0  0  0
    1.8423    2.2685   -3.2603 H   0  0  0  0  0  0  0  0  0  0  0  0
    2.5652    0.6726   -2.9700 H   0  0  0  0  0  0  0  0  0  0  0  0
  1  2  1  0  0  0  0
  2  3  1  0  0  0  0
  2  4  1  0  0  0  0
  2  5  1  0  0  0  0
  5  6  2  0  0  0  0
  5  7  1  0  0  0  0
  7  8  1  0  0  0  0
  7  9  1  0  0  0  0
  9 10  1  0  0  0  0
  9 11  1  0  0  0  0
  9 19  1  0  0  0  0
 11 12  1  0  0  0  0
 11 13  1  0  0  0  0
 11 17  1  0  0  0  0
 13 14  1  0  0  0  0
 13 15  1  0  0  0  0
 13 16  1  0  0  0  0
 17 18  1  0  0  0  0
 19 20  2  0  0  0  0
 19 21  1  0  0  0  0
 21 22  1  0  0  0  0
 21 23  1  0  0  0  0
 23 24  1  0  0  0  0
 23 25  1  0  0  0  0
 23 26  1  0  0  0  0
M  END
$$$$

  -OEChem-01062216093D

 26 25  0     1  0  0  0  0  0999 V2000
   -3.1962   -3.1513    1.1525 H   0  0  0  0  0  0  0  0  0  0  0  0
   -3.0191   -2.1972    0.6477 C   0  0  0  0  0  0  0  0  0  0  0  0
   -3.8069   -1.4966    0.9344 H   0  0  0  0  0  0  0  0  0  0  0  0
   -3.0584   -2.3602   -0.4323 H   0  0  0  0  0  0  0  0  0  0  0  0
   -1.6617   -1.6417    1.0365 C   0  0  0  0  0  0  0  0  0  0  0  0
   -0.9686   -2.2855    1.8072 O   0  0  0  0  0  0  0  0  0  0  0  0
   -1.2690   -0.4313    0.4914 N   0  0  0  0  0  0  0  0  0  0  0  0
   -1.8938   -0.1102   -0.2429 H   0  0  0  0  0  0  0  0  0  0  0  0
    0.0686    0.2236    0.5026 C   0  0  1  0  0  0  0  0  0  0  0  0
   -0.1543    1.2865    0.6282 H   0  0  0  0  0  0  0  0  0  0  0  0
    1.1033   -0.0845    1.6128 C   0  0  1  0  0  0  0  0  0  0  0  0
    2.0049    0.5047    1.4131 H   0  0  0  0  0  0  0  0  0  0  0  0
    0.5891    0.3188    2.9958 C   0  0  0  0  0  0  0  0  0  0  0  0
   -0.3219   -0.2258    3.2564 H   0  0  0  0  0  0  0  0  0  0  0  0
    1.3490    0.1025    3.7528 H   0  0  0  0  0  0  0  0  0  0  0  0
    0.3707    1.3902    3.0232 H   0  0  0  0  0  0  0  0  0  0  0  0
    1.4815   -1.4541    1.6383 O   0  0  0  0  0  0  0  0  0  0  0  0
    0.6625   -1.9985    1.7594 H   0  0  0  0  0  0  0  0  0  0  0  0
    0.7494    0.1079   -0.8778 C   0  0  0  0  0  0  0  0  0  0  0  0
    0.5069   -0.8411   -1.6146 O   0  0  0  0  0  0  0  0  0  0  0  0
    1.3722    1.2167   -1.4276 N   0  0  0  0  0  0  0  0  0  0  0  0
    1.5801    1.9935   -0.8074 H   0  0  0  0  0  0  0  0  0  0  0  0
    1.9478    1.2236   -2.7679 C   0  0  0  0  0  0  0  0  0  0  0  0
    1.1750    1.0297   -3.5192 H   0  0  0  0  0  0  0  0  0  0  0  0
    2.3975    2.1980   -2.9807 H   0  0  0  0  0  0  0  0  0  0  0  0
    2.7248    0.4568   -2.8552 H   0  0  0  0  0  0  0  0  0  0  0  0
  1  2  1  0  0  0  0
  2  3  1  0  0  0  0
  2  4  1  0  0  0  0
  2  5  1  0  0  0  0
  5  6  2  0  0  0  0
  5  7  1  0  0  0  0
  7  8  1  0  0  0  0
  7  9  1  0  0  0  0
  9 10  1  0  0  0  0
  9 11  1  0  0  0  0
  9 19  1  0  0  0  0
 11 12  1  0  0  0  0
 11 13  1  0  0  0  0
 11 17  1  0  0  0  0
 13 14  1  0  0  0  0
 13 15  1  0  0  0  0
 13 16  1  0  0  0  0
 17 18  1  0  0  0  0
 19 20  2  0  0  0  0
 19 21  1  0  0  0  0
 21 22  1  0  0  0  0
 21 23  1  0  0  0  0
 23 24  1  0  0  0  0
 23 25  1  0  0  0  0
 23 26  1  0  0  0  0
M  END
$$$$

  -OEChem-01062216093D

 26 25  0     1  0  0  0  0  0999 V2000
   -3.1949   -3.1521    1.1437 H   0  0  0  0  0  0  0  0  0  0  0  0
   -3.0175   -2.1945    0.6457 C   0  0  0  0  0  0  0  0  0  0  0  0
   -3.8084   -1.4975    0.9326 H   0  0  0  0  0  0  0  0  0  0  0  0
   -3.0511   -2.3508   -0.4356 H   0  0  0  0  0  0  0  0  0  0  0  0
   -1.6636   -1.6374    1.0445 C   0  0  0  0  0  0  0  0  0  0  0  0
   -0.9713   -2.2839    1.8140 O   0  0  0  0  0  0  0  0  0  0  0  0
   -1.2705   -0.4266    0.5015 N   0  0  0  0  0  0  0  0  0  0  0  0
   -1.8849   -0.1177   -0.2471 H   0  0  0  0  0  0  0  0  0  0  0  0
    0.0651    0.2332    0.5111 C   0  0  1  0  0  0  0  0  0  0  0  0
   -0.1561    1.2965    0.6367 H   0  0  0  0  0  0  0  0  0  0  0  0
    1.0998   -0.0830    1.6199 C   0  0  1  0  0  0  0  0  0  0  0  0
    2.0028    0.5060    1.4272 H   0  0  0  0  0  0  0  0  0  0  0  0
    0.5874    0.3105    3.0069 C   0  0  0  0  0  0  0  0  0  0  0  0
   -0.3275   -0.2299    3.2622 H   0  0  0  0  0  0  0  0  0  0  0  0
    1.3449    0.0814    3.7626 H   0  0  0  0  0  0  0  0  0  0  0  0
    0.3762    1.3830    3.0447 H   0  0  0  0  0  0  0  0  0  0  0  0
    1.4756   -1.4536    1.6315 O   0  0  0  0  0  0  0  0  0  0  0  0
    0.6570   -1.9961    1.7655 H   0  0  0  0  0  0  0  0  0  0  0  0
    0.7430    0.1194   -0.8723 C   0  0  0  0  0  0  0  0  0  0  0  0
    0.3220   -0.6755   -1.7064 O   0  0  0  0  0  0  0  0  0  0  0  0
    1.6183    1.1063   -1.2955 N   0  0  0  0  0  0  0  0  0  0  0  0
    1.9848    1.7386   -0.5903 H   0  0  0  0  0  0  0  0  0  0  0  0
    2.2376    1.1060   -2.6162 C   0  0  0  0  0  0  0  0  0  0  0  0
    1.4737    1.1550   -3.3993 H   0  0  0  0  0  0  0  0  0  0  0  0
    2.8971    1.9724   -2.7247 H   0  0  0  0  0  0  0  0  0  0  0  0
    2.8321    0.1976   -2.7601 H   0  0  0  0  0  0  0  0  0  0  0  0
  1  2  1  0  0  0  0
  2  3  1  0  0  0  0
  2  4  1  0  0  0  0
  2  5  1  0  0  0  0
  5  6  2  0  0  0  0
  5  7  1  0  0  0  0
  7  8  1  0  0  0  0
  7  9  1  0  0  0  0
  9 10  1  0  0  0  0
  9 11  1  0  0  0  0
  9 19  1  0  0  0  0
 11 12  1  0  0  0  0
 11 13  1  0  0  0  0
 11 17  1  0  0  0  0
 13 14  1  0  0  0  0
 13 15  1  0  0  0  0
 13 16  1  0  0  0  0
 17 18  1  0  0  0  0
 19 20  2  0  0  0  0
 19 21  1  0  0  0  0
 21 22  1  0  0  0  0
 21 23  1  0  0  0  0
 23 24  1  0  0  0  0
 23 25  1  0  0  0  0
 23 26  1  0  0  0  0
M  END
$$$$

  -OEChem-01062216093D

 26 25  0     1  0  0  0  0  0999 V2000
   -3.1882   -3.1537    1.1264 H   0  0  0  0  0  0  0  0  0  0  0  0
   -3.0108   -2.1912    0.6378 C   0  0  0  0  0  0  0  0  0  0  0  0
   -3.8048   -1.4987    0.9274 H   0  0  0  0  0  0  0  0  0  0  0  0
   -3.0398   -2.3374   -0.4450 H   0  0  0  0  0  0  0  0  0  0  0  0
   -1.6599   -1.6346    1.0473 C   0  0  0  0  0  0  0  0  0  0  0  0
   -0.9694   -2.2878    1.8129 O   0  0  0  0  0  0  0  0  0  0  0  0
   -1.2636   -0.4214    0.5119 N   0  0  0  0  0  0  0  0  0  0  0  0
   -1.8696   -0.1151   -0.2455 H   0  0  0  0  0  0  0  0  0  0  0  0
    0.0697    0.2441    0.5252 C   0  0  1  0  0  0  0  0  0  0  0  0
   -0.1484    1.3080    0.6519 H   0  0  0  0  0  0  0  0  0  0  0  0
    1.0983   -0.0801    1.6390 C   0  0  1  0  0  0  0  0  0  0  0  0
    2.0029    0.5111    1.4635 H   0  0  0  0  0  0  0  0  0  0  0  0
    0.5761    0.3020    3.0251 C   0  0  0  0  0  0  0  0  0  0  0  0
   -0.3398   -0.2408    3.2712 H   0  0  0  0  0  0  0  0  0  0  0  0
    1.3296    0.0691    3.7836 H   0  0  0  0  0  0  0  0  0  0  0  0
    0.3634    1.3741    3.0684 H   0  0  0  0  0  0  0  0  0  0  0  0
    1.4727   -1.4511    1.6408 O   0  0  0  0  0  0  0  0  0  0  0  0
    0.6536   -1.9932    1.7767 H   0  0  0  0  0  0  0  0  0  0  0  0
    0.7432    0.1337   -0.8625 C   0  0  0  0  0  0  0  0  0  0  0  0
    0.1794   -0.4653   -1.7735 O   0  0  0  0  0  0  0  0  0  0  0  0
    1.8327    0.9282   -1.1804 N   0  0  0  0  0  0  0  0  0  0  0  0
    2.3281    1.3640   -0.4080 H   0  0  0  0  0  0  0  0  0  0  0  0
    2.4770    0.9050   -2.4887 C   0  0  0  0  0  0  0  0  0  0  0  0
    1.7671    1.1901   -3.2725 H   0  0  0  0  0  0  0  0  0  0  0  0
    3.3136    1.6100   -2.5106 H   0  0  0  0  0  0  0  0  0  0  0  0
    2.8615   -0.0967   -2.7081 H   0  0  0  0  0  0  0  0  0  0  0  0
  1  2  1  0  0  0  0
  2  3  1  0  0  0  0
  2  4  1  0  0  0  0
  2  5  1  0  0  0  0
  5  6  2  0  0  0  0
  5  7  1  0  0  0  0
  7  8  1  0  0  0  0
  7  9  1  0  0  0  0
  9 10  1  0  0  0  0
  9 11  1  0  0  0  0
  9 19  1  0  0  0  0
 11 12  1  0  0  0  0
 11 13  1  0  0  0  0
 11 17  1  0  0  0  0
 13 14  1  0  0  0  0
 13 15  1  0  0  0  0
 13 16  1  0  0  0  0
 17 18  1  0  0  0  0
 19 20  2  0  0  0  0
 19 21  1  0  0  0  0
 21 22  1  0  0  0  0
 21 23  1  0  0  0  0
 23 24  1  0  0  0  0
 23 25  1  0  0  0  0
 23 26  1  0  0  0  0
M  END
$$$$

  -OEChem-01062216093D

 26 25  0     1  0  0  0  0  0999 V2000
   -3.2623   -3.1198    1.1132 H   0  0  0  0  0  0  0  0  0  0  0  0
   -3.0661   -2.1495    0.6482 C   0  0  0  0  0  0  0  0  0  0  0  0
   -3.7739   -1.4195    1.0482 H   0  0  0  0  0  0  0  0  0  0  0  0
   -3.2167   -2.2399   -0.4306 H   0  0  0  0  0  0  0  0  0  0  0  0
   -1.6437   -1.7063    0.9367 C   0  0  0  0  0  0  0  0  0  0  0  0
   -0.8992   -2.4779    1.5202 O   0  0  0  0  0  0  0  0  0  0  0  0
   -1.2260   -0.4830    0.4440 N   0  0  0  0  0  0  0  0  0  0  0  0
   -1.8715   -0.0767   -0.2310 H   0  0  0  0  0  0  0  0  0  0  0  0
    0.1051    0.1836    0.4850 C   0  0  1  0  0  0  0  0  0  0  0  0
   -0.0990    1.1832    0.8785 H   0  0  0  0  0  0  0  0  0  0  0  0
    1.2247   -0.3593    1.4099 C   0  0  1  0  0  0  0  0  0  0  0  0
    2.1201    0.2530    1.2659 H   0  0  0  0  0  0  0  0  0  0  0  0
    0.8776   -0.2512    2.8979 C   0  0  0  0  0  0  0  0  0  0  0  0
   -0.0444   -0.7809    3.1442 H   0  0  0  0  0  0  0  0  0  0  0  0
    1.6883   -0.6729    3.4999 H   0  0  0  0  0  0  0  0  0  0  0  0
    0.7515    0.7983    3.1790 H   0  0  0  0  0  0  0  0  0  0  0  0
    1.5705   -1.6945    1.0669 O   0  0  0  0  0  0  0  0  0  0  0  0
    0.7748   -2.2608    1.2262 H   0  0  0  0  0  0  0  0  0  0  0  0
    0.6142    0.4395   -0.9537 C   0  0  0  0  0  0  0  0  0  0  0  0
   -0.1563    0.2968   -1.8993 O   0  0  0  0  0  0  0  0  0  0  0  0
    1.8352    1.0490   -1.1910 N   0  0  0  0  0  0  0  0  0  0  0  0
    2.4974    1.0605   -0.4204 H   0  0  0  0  0  0  0  0  0  0  0  0
    2.3353    1.3276   -2.5323 C   0  0  0  0  0  0  0  0  0  0  0  0
    1.6426    1.9807   -3.0735 H   0  0  0  0  0  0  0  0  0  0  0  0
    3.3063    1.8289   -2.4766 H   0  0  0  0  0  0  0  0  0  0  0  0
    2.4566    0.3969   -3.0965 H   0  0  0  0  0  0  0  0  0  0  0  0
  1  2  1  0  0  0  0
  2  3  1  0  0  0  0
  2  4  1  0  0  0  0
  2  5  1  0  0  0  0
  5  6  2  0  0  0  0
  5  7  1  0  0  0  0
  7  8  1  0  0  0  0
  7  9  1  0  0  0  0
  9 10  1  0  0  0  0
  9 11  1  0  0  0  0
  9 19  1  0  0  0  0
 11 12  1  0  0  0  0
 11 13  1  0  0  0  0
 11 17  1  0  0  0  0
 13 14  1  0  0  0  0
 13 15  1  0  0  0  0
 13 16  1  0  0  0  0
 17 18  1  0  0  0  0
 19 20  2  0  0  0  0
 19 21  1  0  0  0  0
 21 22  1  0  0  0  0
 21 23  1  0  0  0  0
 23 24  1  0  0  0  0
 23 25  1  0  0  0  0
 23 26  1  0  0  0  0
M  END
$$$$

  -OEChem-01062216093D

 26 25  0     1  0  0  0  0  0999 V2000
   -3.2582   -3.1127    1.0998 H   0  0  0  0  0  0  0  0  0  0  0  0
   -3.0581   -2.1410    0.6394 C   0  0  0  0  0  0  0  0  0  0  0  0
   -3.7592   -1.4087    1.0468 H   0  0  0  0  0  0  0  0  0  0  0  0
   -3.2141   -2.2244   -0.4391 H   0  0  0  0  0  0  0  0  0  0  0  0
   -1.6318   -1.7085    0.9238 C   0  0  0  0  0  0  0  0  0  0  0  0
   -0.8861   -2.4900    1.4927 O   0  0  0  0  0  0  0  0  0  0  0  0
   -1.2090   -0.4835    0.4404 N   0  0  0  0  0  0  0  0  0  0  0  0
   -1.8592   -0.0555   -0.2168 H   0  0  0  0  0  0  0  0  0  0  0  0
    0.1189    0.1865    0.5004 C   0  0  1  0  0  0  0  0  0  0  0  0
   -0.0887    1.1869    0.8904 H   0  0  0  0  0  0  0  0  0  0  0  0
    1.2284   -0.3533    1.4396 C   0  0  1  0  0  0  0  0  0  0  0  0
    2.1211    0.2674    1.3158 H   0  0  0  0  0  0  0  0  0  0  0  0
    0.8542   -0.2566    2.9214 C   0  0  0  0  0  0  0  0  0  0  0  0
   -0.0641   -0.8008    3.1489 H   0  0  0  0  0  0  0  0  0  0  0  0
    1.6605   -0.6695    3.5351 H   0  0  0  0  0  0  0  0  0  0  0  0
    0.7080    0.7897    3.2047 H   0  0  0  0  0  0  0  0  0  0  0  0
    1.5843   -1.6867    1.0993 O   0  0  0  0  0  0  0  0  0  0  0  0
    0.7877   -2.2562    1.2452 H   0  0  0  0  0  0  0  0  0  0  0  0
    0.6301    0.4390   -0.9382 C   0  0  0  0  0  0  0  0  0  0  0  0
   -0.1868    0.5170   -1.8521 O   0  0  0  0  0  0  0  0  0  0  0  0
    1.9499    0.7617   -1.2046 N   0  0  0  0  0  0  0  0  0  0  0  0
    2.6234    0.5292   -0.4789 H   0  0  0  0  0  0  0  0  0  0  0  0
    2.4503    0.9991   -2.5533 C   0  0  0  0  0  0  0  0  0  0  0  0
    1.9068    1.8240   -3.0258 H   0  0  0  0  0  0  0  0  0  0  0  0
    3.5117    1.2627   -2.5205 H   0  0  0  0  0  0  0  0  0  0  0  0
    2.3337    0.1010   -3.1686 H   0  0  0  0  0  0  0  0  0  0  0  0
  1  2  1  0  0  0  0
  2  3  1  0  0  0  0
  2  4  1  0  0  0  0
  2  5  1  0  0  0  0
  5  6  2  0  0  0  0
  5  7  1  0  0  0  0
  7  8  1  0  0  0  0
  7  9  1  0  0  0  0
  9 10  1  0  0  0  0
  9 11  1  0  0  0  0
  9 19  1  0  0  0  0
 11 12  1  0  0  0  0
 11 13  1  0  0  0  0
 11 17  1  0  0  0  0
 13 14  1  0  0  0  0
 13 15  1  0  0  0  0
 13 16  1  0  0  0  0
 17 18  1  0  0  0  0
 19 20  2  0  0  0  0
 19 21  1  0  0  0  0
 21 22  1  0  0  0  0
 21 23  1  0  0  0  0
 23 24  1  0  0  0  0
 23 25  1  0  0  0  0
 23 26  1  0  0  0  0
M  END
$$$$

  -OEChem-01062216093D

 26 25  0     1  0  0  0  0  0999 V2000
   -3.2561   -3.1049    1.1024 H   0  0  0  0  0  0  0  0  0  0  0  0
   -3.0561   -2.1336    0.6412 C   0  0  0  0  0  0  0  0  0  0  0  0
   -3.7472   -1.3979    1.0596 H   0  0  0  0  0  0  0  0  0  0  0  0
   -3.2271   -2.2135   -0.4354 H   0  0  0  0  0  0  0  0  0  0  0  0
   -1.6235   -1.7108    0.9078 C   0  0  0  0  0  0  0  0  0  0  0  0
   -0.8726   -2.4999    1.4593 O   0  0  0  0  0  0  0  0  0  0  0  0
   -1.1992   -0.4848    0.4288 N   0  0  0  0  0  0  0  0  0  0  0  0
   -1.8639   -0.0290   -0.1944 H   0  0  0  0  0  0  0  0  0  0  0  0
    0.1252    0.1881    0.5057 C   0  0  1  0  0  0  0  0  0  0  0  0
   -0.0877    1.1886    0.8924 H   0  0  0  0  0  0  0  0  0  0  0  0
    1.2301   -0.3457    1.4534 C   0  0  1  0  0  0  0  0  0  0  0  0
    2.1175    0.2852    1.3390 H   0  0  0  0  0  0  0  0  0  0  0  0
    0.8389   -0.2592    2.9311 C   0  0  0  0  0  0  0  0  0  0  0  0
   -0.0701   -0.8233    3.1477 H   0  0  0  0  0  0  0  0  0  0  0  0
    1.6468   -0.6570    3.5525 H   0  0  0  0  0  0  0  0  0  0  0  0
    0.6686    0.7833    3.2148 H   0  0  0  0  0  0  0  0  0  0  0  0
    1.5979   -1.6768    1.1138 O   0  0  0  0  0  0  0  0  0  0  0  0
    0.8026   -2.2512    1.2489 H   0  0  0  0  0  0  0  0  0  0  0  0
    0.6437    0.4357   -0.9291 C   0  0  0  0  0  0  0  0  0  0  0  0
   -0.1670    0.7252   -1.8043 O   0  0  0  0  0  0  0  0  0  0  0  0
    1.9936    0.4592   -1.2332 N   0  0  0  0  0  0  0  0  0  0  0  0
    2.6056    0.0147   -0.5506 H   0  0  0  0  0  0  0  0  0  0  0  0
    2.4968    0.6434   -2.5890 C   0  0  0  0  0  0  0  0  0  0  0  0
    2.1356    1.5885   -3.0081 H   0  0  0  0  0  0  0  0  0  0  0  0
    3.5909    0.6663   -2.5846 H   0  0  0  0  0  0  0  0  0  0  0  0
    2.1682   -0.1777   -3.2348 H   0  0  0  0  0  0  0  0  0  0  0  0
  1  2  1  0  0  0  0
  2  3  1  0  0  0  0
  2  4  1  0  0  0  0
  2  5  1  0  0  0  0
  5  6  2  0  0  0  0
  5  7  1  0  0  0  0
  7  8  1  0  0  0  0
  7  9  1  0  0  0  0
  9 10  1  0  0  0  0
  9 11  1  0  0  0  0
  9 19  1  0  0  0  0
 11 12  1  0  0  0  0
 11 13  1  0  0  0  0
 11 17  1  0  0  0  0
 13 14  1  0  0  0  0
 13 15  1  0  0  0  0
 13 16  1  0  0  0  0
 17 18  1  0  0  0  0
 19 20  2  0  0  0  0
 19 21  1  0  0  0  0
 21 22  1  0  0  0  0
 21 23  1  0  0  0  0
 23 24  1  0  0  0  0
 23 25  1  0  0  0  0
 23 26  1  0  0  0  0
M  END
$$$$

  -OEChem-01062216093D

 26 25  0     1  0  0  0  0  0999 V2000
   -3.2617   -3.0909    1.1259 H   0  0  0  0  0  0  0  0  0  0  0  0
   -3.0601   -2.1246    0.6544 C   0  0  0  0  0  0  0  0  0  0  0  0
   -3.7386   -1.3800    1.0779 H   0  0  0  0  0  0  0  0  0  0  0  0
   -3.2485   -2.2107   -0.4188 H   0  0  0  0  0  0  0  0  0  0  0  0
   -1.6198   -1.7124    0.8961 C   0  0  0  0  0  0  0  0  0  0  0  0
   -0.8630   -2.5087    1.4288 O   0  0  0  0  0  0  0  0  0  0  0  0
   -1.1946   -0.4867    0.4169 N   0  0  0  0  0  0  0  0  0  0  0  0
   -1.8740   -0.0085   -0.1723 H   0  0  0  0  0  0  0  0  0  0  0  0
    0.1271    0.1887    0.5032 C   0  0  1  0  0  0  0  0  0  0  0  0
   -0.0887    1.1894    0.8889 H   0  0  0  0  0  0  0  0  0  0  0  0
    1.2303   -0.3438    1.4536 C   0  0  1  0  0  0  0  0  0  0  0  0
    2.1143    0.2928    1.3387 H   0  0  0  0  0  0  0  0  0  0  0  0
    0.8348   -0.2629    2.9303 C   0  0  0  0  0  0  0  0  0  0  0  0
   -0.0647   -0.8431    3.1446 H   0  0  0  0  0  0  0  0  0  0  0  0
    1.6483   -0.6459    3.5541 H   0  0  0  0  0  0  0  0  0  0  0  0
    0.6459    0.7768    3.2130 H   0  0  0  0  0  0  0  0  0  0  0  0
    1.6055   -1.6738    1.1119 O   0  0  0  0  0  0  0  0  0  0  0  0
    0.8113   -2.2516    1.2421 H   0  0  0  0  0  0  0  0  0  0  0  0
    0.6545    0.4319   -0.9267 C   0  0  0  0  0  0  0  0  0  0  0  0
   -0.1103    0.9083   -1.7593 O   0  0  0  0  0  0  0  0  0  0  0  0
    1.9633    0.1614   -1.2834 N   0  0  0  0  0  0  0  0  0  0  0  0
    2.4819   -0.4262   -0.6295 H   0  0  0  0  0  0  0  0  0  0  0  0
    2.4609    0.2878   -2.6474 C   0  0  0  0  0  0  0  0  0  0  0  0
    2.3025    1.3047   -3.0219 H   0  0  0  0  0  0  0  0  0  0  0  0
    3.5339    0.0748   -2.6778 H   0  0  0  0  0  0  0  0  0  0  0  0
    1.9469   -0.4162   -3.3100 H   0  0  0  0  0  0  0  0  0  0  0  0
  1  2  1  0  0  0  0
  2  3  1  0  0  0  0
  2  4  1  0  0  0  0
  2  5  1  0  0  0  0
  5  6  2  0  0  0  0
  5  7  1  0  0  0  0
  7  8  1  0  0  0  0
  7  9  1  0  0  0  0
  9 10  1  0  0  0  0
  9 11  1  0  0  0  0
  9 19  1  0  0  0  0
 11 12  1  0  0  0  0
 11 13  1  0  0  0  0
 11 17  1  0  0  0  0
 13 14  1  0  0  0  0
 13 15  1  0  0  0  0
 13 16  1  0  0  0  0
 17 18  1  0  0  0  0
 19 20  2  0  0  0  0
 19 21  1  0  0  0  0
 21 22  1  0  0  0  0
 21 23  1  0  0  0  0
 23 24  1  0  0  0  0
 23 25  1  0  0  0  0
 23 26  1  0  0  0  0
M  END
$$$$

  -OEChem-01062216093D

 26 25  0     1  0  0  0  0  0999 V2000
   -3.2671   -3.0748    1.1616 H   0  0  0  0  0  0  0  0  0  0  0  0
   -3.0663   -2.1133    0.6804 C   0  0  0  0  0  0  0  0  0  0  0  0
   -3.7242   -1.3587    1.1183 H   0  0  0  0  0  0  0  0  0  0  0  0
   -3.2841   -2.2017   -0.3869 H   0  0  0  0  0  0  0  0  0  0  0  0
   -1.6152   -1.7183    0.8821 C   0  0  0  0  0  0  0  0  0  0  0  0
   -0.8521   -2.5251    1.3892 O   0  0  0  0  0  0  0  0  0  0  0  0
   -1.1905   -0.4930    0.4014 N   0  0  0  0  0  0  0  0  0  0  0  0
   -1.8891    0.0104   -0.1420 H   0  0  0  0  0  0  0  0  0  0  0  0
    0.1292    0.1855    0.4921 C   0  0  1  0  0  0  0  0  0  0  0  0
   -0.0894    1.1855    0.8783 H   0  0  0  0  0  0  0  0  0  0  0  0
    1.2287   -0.3493    1.4458 C   0  0  1  0  0  0  0  0  0  0  0  0
    2.1120    0.2884    1.3296 H   0  0  0  0  0  0  0  0  0  0  0  0
    0.8260   -0.2708    2.9206 C   0  0  0  0  0  0  0  0  0  0  0  0
   -0.0730   -0.8542    3.1293 H   0  0  0  0  0  0  0  0  0  0  0  0
    1.6374   -0.6523    3.5476 H   0  0  0  0  0  0  0  0  0  0  0  0
    0.6327    0.7681    3.2033 H   0  0  0  0  0  0  0  0  0  0  0  0
    1.6100   -1.6801    1.1069 O   0  0  0  0  0  0  0  0  0  0  0  0
    0.8162   -2.2598    1.2332 H   0  0  0  0  0  0  0  0  0  0  0  0
    0.6691    0.4290   -0.9309 C   0  0  0  0  0  0  0  0  0  0  0  0
   -0.0165    1.0759   -1.7148 O   0  0  0  0  0  0  0  0  0  0  0  0
    1.8688   -0.1101   -1.3566 N   0  0  0  0  0  0  0  0  0  0  0  0
    2.2998   -0.7843   -0.7207 H   0  0  0  0  0  0  0  0  0  0  0  0
    2.3417   -0.0367   -2.7324 C   0  0  0  0  0  0  0  0  0  0  0  0
    2.4173    1.0063   -3.0570 H   0  0  0  0  0  0  0  0  0  0  0  0
    3.3319   -0.4949   -2.8155 H   0  0  0  0  0  0  0  0  0  0  0  0
    1.6557   -0.5663   -3.4014 H   0  0  0  0  0  0  0  0  0  0  0  0
  1  2  1  0  0  0  0
  2  3  1  0  0  0  0
  2  4  1  0  0  0  0
  2  5  1  0  0  0  0
  5  6  2  0  0  0  0
  5  7  1  0  0  0  0
  7  8  1  0  0  0  0
  7  9  1  0  0  0  0
  9 10  1  0  0  0  0
  9 11  1  0  0  0  0
  9 19  1  0  0  0  0
 11 12  1  0  0  0  0
 11 13  1  0  0  0  0
 11 17  1  0  0  0  0
 13 14  1  0  0  0  0
 13 15  1  0  0  0  0
 13 16  1  0  0  0  0
 17 18  1  0  0  0  0
 19 20  2  0  0  0  0
 19 21  1  0  0  0  0
 21 22  1  0  0  0  0
 21 23  1  0  0  0  0
 23 24  1  0  0  0  0
 23 25  1  0  0  0  0
 23 26  1  0  0  0  0
M  END
$$$$

  -OEChem-01062216093D

 26 25  0     1  0  0  0  0  0999 V2000
   -3.2839   -3.0581    1.2205 H   0  0  0  0  0  0  0  0  0  0  0  0
   -3.0827   -2.1055    0.7221 C   0  0  0  0  0  0  0  0  0  0  0  0
   -3.7210   -1.3374    1.1657 H   0  0  0  0  0  0  0  0  0  0  0  0
   -3.3258   -2.2045   -0.3387 H   0  0  0  0  0  0  0  0  0  0  0  0
   -1.6227   -1.7264    0.8847 C   0  0  0  0  0  0  0  0  0  0  0  0
   -0.8568   -2.5393    1.3775 O   0  0  0  0  0  0  0  0  0  0  0  0
   -1.1975   -0.5066    0.3897 N   0  0  0  0  0  0  0  0  0  0  0  0
   -1.9115    0.0116   -0.1180 H   0  0  0  0  0  0  0  0  0  0  0  0
    0.1230    0.1722    0.4706 C   0  0  1  0  0  0  0  0  0  0  0  0
   -0.0938    1.1747    0.8521 H   0  0  0  0  0  0  0  0  0  0  0  0
    1.2217   -0.3612    1.4262 C   0  0  1  0  0  0  0  0  0  0  0  0
    2.1073    0.2715    1.2987 H   0  0  0  0  0  0  0  0  0  0  0  0
    0.8237   -0.2700    2.9016 C   0  0  0  0  0  0  0  0  0  0  0  0
   -0.0753   -0.8510    3.1172 H   0  0  0  0  0  0  0  0  0  0  0  0
    1.6364   -0.6476    3.5294 H   0  0  0  0  0  0  0  0  0  0  0  0
    0.6325    0.7713    3.1769 H   0  0  0  0  0  0  0  0  0  0  0  0
    1.6000   -1.6965    1.0979 O   0  0  0  0  0  0  0  0  0  0  0  0
    0.8053   -2.2733    1.2332 H   0  0  0  0  0  0  0  0  0  0  0  0
    0.6711    0.4053   -0.9495 C   0  0  0  0  0  0  0  0  0  0  0  0
    0.1034    1.2146   -1.6735 O   0  0  0  0  0  0  0  0  0  0  0  0
    1.6958   -0.3673   -1.4614 N   0  0  0  0  0  0  0  0  0  0  0  0
    2.0632   -1.0930   -0.8420 H   0  0  0  0  0  0  0  0  0  0  0  0
    2.1667   -0.2935   -2.8376 C   0  0  0  0  0  0  0  0  0  0  0  0
    2.5010    0.7218   -3.0748 H   0  0  0  0  0  0  0  0  0  0  0  0
    3.0088   -0.9766   -2.9843 H   0  0  0  0  0  0  0  0  0  0  0  0
    1.3674   -0.5738   -3.5313 H   0  0  0  0  0  0  0  0  0  0  0  0
  1  2  1  0  0  0  0
  2  3  1  0  0  0  0
  2  4  1  0  0  0  0
  2  5  1  0  0  0  0
  5  6  2  0  0  0  0
  5  7  1  0  0  0  0
  7  8  1  0  0  0  0
  7  9  1  0  0  0  0
  9 10  1  0  0  0  0
  9 11  1  0  0  0  0
  9 19  1  0  0  0  0
 11 12  1  0  0  0  0
 11 13  1  0  0  0  0
 11 17  1  0  0  0  0
 13 14  1  0  0  0  0
 13 15  1  0  0  0  0
 13 16  1  0  0  0  0
 17 18  1  0  0  0  0
 19 20  2  0  0  0  0
 19 21  1  0  0  0  0
 21 22  1  0  0  0  0
 21 23  1  0  0  0  0
 23 24  1  0  0  0  0
 23 25  1  0  0  0  0
 23 26  1  0  0  0  0
M  END
$$$$

  -OEChem-01062216093D

 26 25  0     1  0  0  0  0  0999 V2000
   -3.2930   -3.0747    1.2465 H   0  0  0  0  0  0  0  0  0  0  0  0
   -3.1078   -2.1027    0.7802 C   0  0  0  0  0  0  0  0  0  0  0  0
   -3.7256   -1.3518    1.2787 H   0  0  0  0  0  0  0  0  0  0  0  0
   -3.3921   -2.1586   -0.2736 H   0  0  0  0  0  0  0  0  0  0  0  0
   -1.6415   -1.7329    0.9028 C   0  0  0  0  0  0  0  0  0  0  0  0
   -0.8687   -2.5467    1.3833 O   0  0  0  0  0  0  0  0  0  0  0  0
   -1.2205   -0.5221    0.3826 N   0  0  0  0  0  0  0  0  0  0  0  0
   -1.9505    0.0048   -0.0915 H   0  0  0  0  0  0  0  0  0  0  0  0
    0.1009    0.1575    0.4412 C   0  0  1  0  0  0  0  0  0  0  0  0
   -0.1117    1.1640    0.8150 H   0  0  0  0  0  0  0  0  0  0  0  0
    1.2098   -0.3687    1.3876 C   0  0  1  0  0  0  0  0  0  0  0  0
    2.0939    0.2618    1.2413 H   0  0  0  0  0  0  0  0  0  0  0  0
    0.8312   -0.2643    2.8671 C   0  0  0  0  0  0  0  0  0  0  0  0
   -0.0583   -0.8525    3.1014 H   0  0  0  0  0  0  0  0  0  0  0  0
    1.6567   -0.6263    3.4873 H   0  0  0  0  0  0  0  0  0  0  0  0
    0.6329    0.7780    3.1331 H   0  0  0  0  0  0  0  0  0  0  0  0
    1.5833   -1.7074    1.0666 O   0  0  0  0  0  0  0  0  0  0  0  0
    0.7925   -2.2830    1.2270 H   0  0  0  0  0  0  0  0  0  0  0  0
    0.6451    0.3687   -0.9823 C   0  0  0  0  0  0  0  0  0  0  0  0
    0.2461    1.3258   -1.6340 O   0  0  0  0  0  0  0  0  0  0  0  0
    1.4368   -0.5873   -1.5878 N   0  0  0  0  0  0  0  0  0  0  0  0
    1.7606   -1.3466   -0.9853 H   0  0  0  0  0  0  0  0  0  0  0  0
    1.9565   -0.4772   -2.9439 C   0  0  0  0  0  0  0  0  0  0  0  0
    2.5914    0.4096   -3.0407 H   0  0  0  0  0  0  0  0  0  0  0  0
    2.5543   -1.3599   -3.1907 H   0  0  0  0  0  0  0  0  0  0  0  0
    1.1353   -0.4039   -3.6644 H   0  0  0  0  0  0  0  0  0  0  0  0
  1  2  1  0  0  0  0
  2  3  1  0  0  0  0
  2  4  1  0  0  0  0
  2  5  1  0  0  0  0
  5  6  2  0  0  0  0
  5  7  1  0  0  0  0
  7  8  1  0  0  0  0
  7  9  1  0  0  0  0
  9 10  1  0  0  0  0
  9 11  1  0  0  0  0
  9 19  1  0  0  0  0
 11 12  1  0  0  0  0
 11 13  1  0  0  0  0
 11 17  1  0  0  0  0
 13 14  1  0  0  0  0
 13 15  1  0  0  0  0
 13 16  1  0  0  0  0
 17 18  1  0  0  0  0
 19 20  2  0  0  0  0
 19 21  1  0  0  0  0
 21 22  1  0  0  0  0
 21 23  1  0  0  0  0
 23 24  1  0  0  0  0
 23 25  1  0  0  0  0
 23 26  1  0  0  0  0
M  END
$$$$

  -OEChem-01062216093D

 26 25  0     1  0  0  0  0  0999 V2000
   -3.3066   -3.0674    1.3172 H   0  0  0  0  0  0  0  0  0  0  0  0
   -3.1298   -2.1005    0.8372 C   0  0  0  0  0  0  0  0  0  0  0  0
   -3.7277   -1.3416    1.3479 H   0  0  0  0  0  0  0  0  0  0  0  0
   -3.4469   -2.1634   -0.2068 H   0  0  0  0  0  0  0  0  0  0  0  0
   -1.6580   -1.7392    0.9114 C   0  0  0  0  0  0  0  0  0  0  0  0
   -0.8748   -2.5579    1.3658 O   0  0  0  0  0  0  0  0  0  0  0  0
   -1.2459   -0.5323    0.3744 N   0  0  0  0  0  0  0  0  0  0  0  0
   -1.9920    0.0024   -0.0639 H   0  0  0  0  0  0  0  0  0  0  0  0
    0.0737    0.1543    0.4168 C   0  0  1  0  0  0  0  0  0  0  0  0
   -0.1386    1.1607    0.7912 H   0  0  0  0  0  0  0  0  0  0  0  0
    1.1946   -0.3706    1.3469 C   0  0  1  0  0  0  0  0  0  0  0  0
    2.0756    0.2617    1.1897 H   0  0  0  0  0  0  0  0  0  0  0  0
    0.8365   -0.2708    2.8316 C   0  0  0  0  0  0  0  0  0  0  0  0
   -0.0471   -0.8630    3.0778 H   0  0  0  0  0  0  0  0  0  0  0  0
    1.6722   -0.6306    3.4392 H   0  0  0  0  0  0  0  0  0  0  0  0
    0.6377    0.7703    3.1022 H   0  0  0  0  0  0  0  0  0  0  0  0
    1.5650   -1.7070    1.0134 O   0  0  0  0  0  0  0  0  0  0  0  0
    0.7814   -2.2862    1.1944 H   0  0  0  0  0  0  0  0  0  0  0  0
    0.6187    0.3571   -1.0067 C   0  0  0  0  0  0  0  0  0  0  0  0
    0.4410    1.4301   -1.5691 O   0  0  0  0  0  0  0  0  0  0  0  0
    1.1458   -0.7078   -1.7112 N   0  0  0  0  0  0  0  0  0  0  0  0
    1.3815   -1.5279   -1.1507 H   0  0  0  0  0  0  0  0  0  0  0  0
    1.7049   -0.5861   -3.0507 C   0  0  0  0  0  0  0  0  0  0  0  0
    2.5595    0.0983   -3.0482 H   0  0  0  0  0  0  0  0  0  0  0  0
    2.0433   -1.5637   -3.4072 H   0  0  0  0  0  0  0  0  0  0  0  0
    0.9510   -0.2074   -3.7487 H   0  0  0  0  0  0  0  0  0  0  0  0
  1  2  1  0  0  0  0
  2  3  1  0  0  0  0
  2  4  1  0  0  0  0
  2  5  1  0  0  0  0
  5  6  2  0  0  0  0
  5  7  1  0  0  0  0
  7  8  1  0  0  0  0
  7  9  1  0  0  0  0
  9 10  1  0  0  0  0
  9 11  1  0  0  0  0
  9 19  1  0  0  0  0
 11 12  1  0  0  0  0
 11 13  1  0  0  0  0
 11 17  1  0  0  0  0
 13 14  1  0  0  0  0
 13 15  1  0  0  0  0
 13 16  1  0  0  0  0
 17 18  1  0  0  0  0
 19 20  2  0  0  0  0
 19 21  1  0  0  0  0
 21 22  1  0  0  0  0
 21 23  1  0  0  0  0
 23 24  1  0  0  0  0
 23 25  1  0  0  0  0
 23 26  1  0  0  0  0
M  END
$$$$

  -OEChem-01062216093D

 26 25  0     1  0  0  0  0  0999 V2000
   -3.3097   -3.0538    1.3870 H   0  0  0  0  0  0  0  0  0  0  0  0
   -3.1413   -2.0966    0.8849 C   0  0  0  0  0  0  0  0  0  0  0  0
   -3.7174   -1.3249    1.4015 H   0  0  0  0  0  0  0  0  0  0  0  0
   -3.4926   -2.1749   -0.1470 H   0  0  0  0  0  0  0  0  0  0  0  0
   -1.6653   -1.7456    0.9065 C   0  0  0  0  0  0  0  0  0  0  0  0
   -0.8711   -2.5734    1.3233 O   0  0  0  0  0  0  0  0  0  0  0  0
   -1.2631   -0.5385    0.3629 N   0  0  0  0  0  0  0  0  0  0  0  0
   -2.0226    0.0049   -0.0394 H   0  0  0  0  0  0  0  0  0  0  0  0
    0.0528    0.1582    0.4023 C   0  0  1  0  0  0  0  0  0  0  0  0
   -0.1647    1.1625    0.7796 H   0  0  0  0  0  0  0  0  0  0  0  0
    1.1821   -0.3653    1.3205 C   0  0  1  0  0  0  0  0  0  0  0  0
    2.0585    0.2742    1.1645 H   0  0  0  0  0  0  0  0  0  0  0  0
    0.8308   -0.2824    2.8080 C   0  0  0  0  0  0  0  0  0  0  0  0
   -0.0493   -0.8805    3.0527 H   0  0  0  0  0  0  0  0  0  0  0  0
    1.6710   -0.6451    3.4077 H   0  0  0  0  0  0  0  0  0  0  0  0
    0.6298    0.7552    3.0897 H   0  0  0  0  0  0  0  0  0  0  0  0
    1.5567   -1.6956    0.9707 O   0  0  0  0  0  0  0  0  0  0  0  0
    0.7800   -2.2828    1.1516 H   0  0  0  0  0  0  0  0  0  0  0  0
    0.6049    0.3619   -1.0180 C   0  0  0  0  0  0  0  0  0  0  0  0
    0.6821    1.4935   -1.4791 O   0  0  0  0  0  0  0  0  0  0  0  0
    0.8545   -0.7298   -1.8277 N   0  0  0  0  0  0  0  0  0  0  0  0
    0.9335   -1.6216   -1.3410 H   0  0  0  0  0  0  0  0  0  0  0  0
    1.4171   -0.6129   -3.1663 C   0  0  0  0  0  0  0  0  0  0  0  0
    2.4105   -0.1542   -3.1254 H   0  0  0  0  0  0  0  0  0  0  0  0
    1.5092   -1.6022   -3.6246 H   0  0  0  0  0  0  0  0  0  0  0  0
    0.7706    0.0013   -3.8018 H   0  0  0  0  0  0  0  0  0  0  0  0
  1  2  1  0  0  0  0
  2  3  1  0  0  0  0
  2  4  1  0  0  0  0
  2  5  1  0  0  0  0
  5  6  2  0  0  0  0
  5  7  1  0  0  0  0
  7  8  1  0  0  0  0
  7  9  1  0  0  0  0
  9 10  1  0  0  0  0
  9 11  1  0  0  0  0
  9 19  1  0  0  0  0
 11 12  1  0  0  0  0
 11 13  1  0  0  0  0
 11 17  1  0  0  0  0
 13 14  1  0  0  0  0
 13 15  1  0  0  0  0
 13 16  1  0  0  0  0
 17 18  1  0  0  0  0
 19 20  2  0  0  0  0
 19 21  1  0  0  0  0
 21 22  1  0  0  0  0
 21 23  1  0  0  0  0
 23 24  1  0  0  0  0
 23 25  1  0  0  0  0
 23 26  1  0  0  0  0
M  END
$$$$

  -OEChem-01062216093D

 26 25  0     1  0  0  0  0  0999 V2000
   -3.3068   -3.0572    1.4266 H   0  0  0  0  0  0  0  0  0  0  0  0
   -3.1503   -2.0974    0.9258 C   0  0  0  0  0  0  0  0  0  0  0  0
   -3.7109   -1.3280    1.4623 H   0  0  0  0  0  0  0  0  0  0  0  0
   -3.5289   -2.1689   -0.0968 H   0  0  0  0  0  0  0  0  0  0  0  0
   -1.6735   -1.7495    0.9099 C   0  0  0  0  0  0  0  0  0  0  0  0
   -0.8693   -2.5846    1.2896 O   0  0  0  0  0  0  0  0  0  0  0  0
   -1.2819   -0.5409    0.3619 N   0  0  0  0  0  0  0  0  0  0  0  0
   -2.0528    0.0102   -0.0067 H   0  0  0  0  0  0  0  0  0  0  0  0
    0.0324    0.1624    0.3931 C   0  0  1  0  0  0  0  0  0  0  0  0
   -0.1871    1.1650    0.7737 H   0  0  0  0  0  0  0  0  0  0  0  0
    1.1728   -0.3595    1.2982 C   0  0  1  0  0  0  0  0  0  0  0  0
    2.0443    0.2856    1.1389 H   0  0  0  0  0  0  0  0  0  0  0  0
    0.8340   -0.2887    2.7889 C   0  0  0  0  0  0  0  0  0  0  0  0
   -0.0294   -0.9082    3.0396 H   0  0  0  0  0  0  0  0  0  0  0  0
    1.6883   -0.6343    3.3790 H   0  0  0  0  0  0  0  0  0  0  0  0
    0.6126    0.7432    3.0765 H   0  0  0  0  0  0  0  0  0  0  0  0
    1.5513   -1.6855    0.9391 O   0  0  0  0  0  0  0  0  0  0  0  0
    0.7781   -2.2785    1.1123 H   0  0  0  0  0  0  0  0  0  0  0  0
    0.5849    0.3723   -1.0265 C   0  0  0  0  0  0  0  0  0  0  0  0
    0.9402    1.4899   -1.3779 O   0  0  0  0  0  0  0  0  0  0  0  0
    0.5524   -0.6606   -1.9451 N   0  0  0  0  0  0  0  0  0  0  0  0
    0.4132   -1.5889   -1.5521 H   0  0  0  0  0  0  0  0  0  0  0  0
    1.1295   -0.5501   -3.2784 C   0  0  0  0  0  0  0  0  0  0  0  0
    2.2048   -0.3531   -3.2146 H   0  0  0  0  0  0  0  0  0  0  0  0
    0.9791   -1.4812   -3.8332 H   0  0  0  0  0  0  0  0  0  0  0  0
    0.6544    0.2631   -3.8370 H   0  0  0  0  0  0  0  0  0  0  0  0
  1  2  1  0  0  0  0
  2  3  1  0  0  0  0
  2  4  1  0  0  0  0
  2  5  1  0  0  0  0
  5  6  2  0  0  0  0
  5  7  1  0  0  0  0
  7  8  1  0  0  0  0
  7  9  1  0  0  0  0
  9 10  1  0  0  0  0
  9 11  1  0  0  0  0
  9 19  1  0  0  0  0
 11 12  1  0  0  0  0
 11 13  1  0  0  0  0
 11 17  1  0  0  0  0
 13 14  1  0  0  0  0
 13 15  1  0  0  0  0
 13 16  1  0  0  0  0
 17 18  1  0  0  0  0
 19 20  2  0  0  0  0
 19 21  1  0  0  0  0
 21 22  1  0  0  0  0
 21 23  1  0  0  0  0
 23 24  1  0  0  0  0
 23 25  1  0  0  0  0
 23 26  1  0  0  0  0
M  END
$$$$

  -OEChem-01062216093D

 26 25  0     1  0  0  0  0  0999 V2000
   -3.2969   -3.0667    1.4435 H   0  0  0  0  0  0  0  0  0  0  0  0
   -3.1480   -2.1015    0.9506 C   0  0  0  0  0  0  0  0  0  0  0  0
   -3.6957   -1.3374    1.5078 H   0  0  0  0  0  0  0  0  0  0  0  0
   -3.5475   -2.1599   -0.0648 H   0  0  0  0  0  0  0  0  0  0  0  0
   -1.6711   -1.7566    0.9091 C   0  0  0  0  0  0  0  0  0  0  0  0
   -0.8618   -2.5970    1.2636 O   0  0  0  0  0  0  0  0  0  0  0  0
   -1.2881   -0.5454    0.3607 N   0  0  0  0  0  0  0  0  0  0  0  0
   -2.0679    0.0129    0.0230 H   0  0  0  0  0  0  0  0  0  0  0  0
    0.0238    0.1656    0.3882 C   0  0  1  0  0  0  0  0  0  0  0  0
   -0.1994    1.1670    0.7691 H   0  0  0  0  0  0  0  0  0  0  0  0
    1.1685   -0.3547    1.2907 C   0  0  1  0  0  0  0  0  0  0  0  0
    2.0379    0.2945    1.1351 H   0  0  0  0  0  0  0  0  0  0  0  0
    0.8281   -0.2916    2.7814 C   0  0  0  0  0  0  0  0  0  0  0  0
   -0.0322   -0.9167    3.0289 H   0  0  0  0  0  0  0  0  0  0  0  0
    1.6837   -0.6354    3.3704 H   0  0  0  0  0  0  0  0  0  0  0  0
    0.6019    0.7381    3.0735 H   0  0  0  0  0  0  0  0  0  0  0  0
    1.5532   -1.6782    0.9298 O   0  0  0  0  0  0  0  0  0  0  0  0
    0.7796   -2.2749    1.0849 H   0  0  0  0  0  0  0  0  0  0  0  0
    0.5786    0.3841   -1.0306 C   0  0  0  0  0  0  0  0  0  0  0  0
    1.1690    1.4232   -1.2958 O   0  0  0  0  0  0  0  0  0  0  0  0
    0.2860   -0.5140   -2.0414 N   0  0  0  0  0  0  0  0  0  0  0  0
   -0.0592   -1.4202   -1.7354 H   0  0  0  0  0  0  0  0  0  0  0  0
    0.8426   -0.3991   -3.3833 C   0  0  0  0  0  0  0  0  0  0  0  0
    1.9356   -0.4594   -3.3505 H   0  0  0  0  0  0  0  0  0  0  0  0
    0.4689   -1.2087   -4.0173 H   0  0  0  0  0  0  0  0  0  0  0  0
    0.5554    0.5546   -3.8383 H   0  0  0  0  0  0  0  0  0  0  0  0
  1  2  1  0  0  0  0
  2  3  1  0  0  0  0
  2  4  1  0  0  0  0
  2  5  1  0  0  0  0
  5  6  2  0  0  0  0
  5  7  1  0  0  0  0
  7  8  1  0  0  0  0
  7  9  1  0  0  0  0
  9 10  1  0  0  0  0
  9 11  1  0  0  0  0
  9 19  1  0  0  0  0
 11 12  1  0  0  0  0
 11 13  1  0  0  0  0
 11 17  1  0  0  0  0
 13 14  1  0  0  0  0
 13 15  1  0  0  0  0
 13 16  1  0  0  0  0
 17 18  1  0  0  0  0
 19 20  2  0  0  0  0
 19 21  1  0  0  0  0
 21 22  1  0  0  0  0
 21 23  1  0  0  0  0
 23 24  1  0  0  0  0
 23 25  1  0  0  0  0
 23 26  1  0  0  0  0
M  END
$$$$

  -OEChem-01062216093D

 26 25  0     1  0  0  0  0  0999 V2000
   -3.2886   -3.0667    1.4627 H   0  0  0  0  0  0  0  0  0  0  0  0
   -3.1413   -2.1052    0.9618 C   0  0  0  0  0  0  0  0  0  0  0  0
   -3.6820   -1.3353    1.5179 H   0  0  0  0  0  0  0  0  0  0  0  0
   -3.5501   -2.1703   -0.0495 H   0  0  0  0  0  0  0  0  0  0  0  0
   -1.6637   -1.7652    0.9047 C   0  0  0  0  0  0  0  0  0  0  0  0
   -0.8550   -2.6092    1.2510 O   0  0  0  0  0  0  0  0  0  0  0  0
   -1.2837   -0.5520    0.3574 N   0  0  0  0  0  0  0  0  0  0  0  0
   -2.0690    0.0148    0.0480 H   0  0  0  0  0  0  0  0  0  0  0  0
    0.0278    0.1631    0.3837 C   0  0  1  0  0  0  0  0  0  0  0  0
   -0.1979    1.1646    0.7622 H   0  0  0  0  0  0  0  0  0  0  0  0
    1.1688   -0.3565    1.2938 C   0  0  1  0  0  0  0  0  0  0  0  0
    2.0407    0.2911    1.1460 H   0  0  0  0  0  0  0  0  0  0  0  0
    0.8178   -0.2927    2.7823 C   0  0  0  0  0  0  0  0  0  0  0  0
   -0.0438   -0.9183    3.0238 H   0  0  0  0  0  0  0  0  0  0  0  0
    1.6694   -0.6362    3.3776 H   0  0  0  0  0  0  0  0  0  0  0  0
    0.5893    0.7369    3.0724 H   0  0  0  0  0  0  0  0  0  0  0  0
    1.5545   -1.6814    0.9390 O   0  0  0  0  0  0  0  0  0  0  0  0
    0.7762   -2.2763    1.0775 H   0  0  0  0  0  0  0  0  0  0  0  0
    0.5869    0.3890   -1.0349 C   0  0  0  0  0  0  0  0  0  0  0  0
    1.3679    1.3093   -1.2401 O   0  0  0  0  0  0  0  0  0  0  0  0
    0.0680   -0.3084   -2.1123 N   0  0  0  0  0  0  0  0  0  0  0  0
   -0.4582   -1.1462   -1.8808 H   0  0  0  0  0  0  0  0  0  0  0  0
    0.5814   -0.1619   -3.4688 C   0  0  0  0  0  0  0  0  0  0  0  0
    1.6387   -0.4439   -3.5101 H   0  0  0  0  0  0  0  0  0  0  0  0
    0.0232   -0.8050   -4.1558 H   0  0  0  0  0  0  0  0  0  0  0  0
    0.4793    0.8742   -3.8082 H   0  0  0  0  0  0  0  0  0  0  0  0
  1  2  1  0  0  0  0
  2  3  1  0  0  0  0
  2  4  1  0  0  0  0
  2  5  1  0  0  0  0
  5  6  2  0  0  0  0
  5  7  1  0  0  0  0
  7  8  1  0  0  0  0
  7  9  1  0  0  0  0
  9 10  1  0  0  0  0
  9 11  1  0  0  0  0
  9 19  1  0  0  0  0
 11 12  1  0  0  0  0
 11 13  1  0  0  0  0
 11 17  1  0  0  0  0
 13 14  1  0  0  0  0
 13 15  1  0  0  0  0
 13 16  1  0  0  0  0
 17 18  1  0  0  0  0
 19 20  2  0  0  0  0
 19 21  1  0  0  0  0
 21 22  1  0  0  0  0
 21 23  1  0  0  0  0
 23 24  1  0  0  0  0
 23 25  1  0  0  0  0
 23 26  1  0  0  0  0
M  END
$$$$

  -OEChem-01062216093D

 26 25  0     1  0  0  0  0  0999 V2000
   -3.2834   -3.0528    1.4950 H   0  0  0  0  0  0  0  0  0  0  0  0
   -3.1332   -2.1072    0.9656 C   0  0  0  0  0  0  0  0  0  0  0  0
   -3.6698   -1.3198    1.5007 H   0  0  0  0  0  0  0  0  0  0  0  0
   -3.5444   -2.2004   -0.0425 H   0  0  0  0  0  0  0  0  0  0  0  0
   -1.6539   -1.7757    0.8962 C   0  0  0  0  0  0  0  0  0  0  0  0
   -0.8491   -2.6225    1.2434 O   0  0  0  0  0  0  0  0  0  0  0  0
   -1.2728   -0.5612    0.3510 N   0  0  0  0  0  0  0  0  0  0  0  0
   -2.0608    0.0152    0.0673 H   0  0  0  0  0  0  0  0  0  0  0  0
    0.0408    0.1531    0.3759 C   0  0  1  0  0  0  0  0  0  0  0  0
   -0.1853    1.1555    0.7510 H   0  0  0  0  0  0  0  0  0  0  0  0
    1.1748   -0.3661    1.2994 C   0  0  1  0  0  0  0  0  0  0  0  0
    2.0517    0.2759    1.1598 H   0  0  0  0  0  0  0  0  0  0  0  0
    0.8087   -0.2909    2.7837 C   0  0  0  0  0  0  0  0  0  0  0  0
   -0.0594   -0.9094    3.0203 H   0  0  0  0  0  0  0  0  0  0  0  0
    1.6520   -0.6361    3.3894 H   0  0  0  0  0  0  0  0  0  0  0  0
    0.5840    0.7420    3.0652 H   0  0  0  0  0  0  0  0  0  0  0  0
    1.5595   -1.6954    0.9604 O   0  0  0  0  0  0  0  0  0  0  0  0
    0.7756   -2.2859    1.0849 H   0  0  0  0  0  0  0  0  0  0  0  0
    0.6005    0.3840   -1.0445 C   0  0  0  0  0  0  0  0  0  0  0  0
    1.5382    1.1524   -1.2162 O   0  0  0  0  0  0  0  0  0  0  0  0
   -0.1018   -0.0584   -2.1532 N   0  0  0  0  0  0  0  0  0  0  0  0
   -0.7799   -0.7942   -1.9807 H   0  0  0  0  0  0  0  0  0  0  0  0
    0.3660    0.1486   -3.5188 C   0  0  0  0  0  0  0  0  0  0  0  0
    1.3424   -0.3253   -3.6654 H   0  0  0  0  0  0  0  0  0  0  0  0
   -0.3421   -0.2859   -4.2309 H   0  0  0  0  0  0  0  0  0  0  0  0
    0.4583    1.2182   -3.7348 H   0  0  0  0  0  0  0  0  0  0  0  0
  1  2  1  0  0  0  0
  2  3  1  0  0  0  0
  2  4  1  0  0  0  0
  2  5  1  0  0  0  0
  5  6  2  0  0  0  0
  5  7  1  0  0  0  0
  7  8  1  0  0  0  0
  7  9  1  0  0  0  0
  9 10  1  0  0  0  0
  9 11  1  0  0  0  0
  9 19  1  0  0  0  0
 11 12  1  0  0  0  0
 11 13  1  0  0  0  0
 11 17  1  0  0  0  0
 13 14  1  0  0  0  0
 13 15  1  0  0  0  0
 13 16  1  0  0  0  0
 17 18  1  0  0  0  0
 19 20  2  0  0  0  0
 19 21  1  0  0  0  0
 21 22  1  0  0  0  0
 21 23  1  0  0  0  0
 23 24  1  0  0  0  0
 23 25  1  0  0  0  0
 23 26  1  0  0  0  0
M  END
$$$$

  -OEChem-01062216093D

 26 25  0     1  0  0  0  0  0999 V2000
   -3.2670   -3.0627    1.4744 H   0  0  0  0  0  0  0  0  0  0  0  0
   -3.1185   -2.1082    0.9608 C   0  0  0  0  0  0  0  0  0  0  0  0
   -3.6449   -1.3284    1.5167 H   0  0  0  0  0  0  0  0  0  0  0  0
   -3.5417   -2.1810   -0.0440 H   0  0  0  0  0  0  0  0  0  0  0  0
   -1.6385   -1.7828    0.8790 C   0  0  0  0  0  0  0  0  0  0  0  0
   -0.8361   -2.6353    1.2167 O   0  0  0  0  0  0  0  0  0  0  0  0
   -1.2579   -0.5650    0.3392 N   0  0  0  0  0  0  0  0  0  0  0  0
   -2.0498    0.0220    0.0919 H   0  0  0  0  0  0  0  0  0  0  0  0
    0.0565    0.1488    0.3672 C   0  0  1  0  0  0  0  0  0  0  0  0
   -0.1703    1.1520    0.7393 H   0  0  0  0  0  0  0  0  0  0  0  0
    1.1811   -0.3693    1.3066 C   0  0  1  0  0  0  0  0  0  0  0  0
    2.0611    0.2707    1.1798 H   0  0  0  0  0  0  0  0  0  0  0  0
    0.7925   -0.2893    2.7851 C   0  0  0  0  0  0  0  0  0  0  0  0
   -0.0722   -0.9163    3.0122 H   0  0  0  0  0  0  0  0  0  0  0  0
    1.6305   -0.6225    3.4051 H   0  0  0  0  0  0  0  0  0  0  0  0
    0.5527    0.7425    3.0577 H   0  0  0  0  0  0  0  0  0  0  0  0
    1.5683   -1.7022    0.9850 O   0  0  0  0  0  0  0  0  0  0  0  0
    0.7784   -2.2894    1.0860 H   0  0  0  0  0  0  0  0  0  0  0  0
    0.6120    0.3843   -1.0573 C   0  0  0  0  0  0  0  0  0  0  0  0
    1.6824    0.9541   -1.2254 O   0  0  0  0  0  0  0  0  0  0  0  0
   -0.2182    0.2326   -2.1564 N   0  0  0  0  0  0  0  0  0  0  0  0
   -1.0358   -0.3516   -2.0161 H   0  0  0  0  0  0  0  0  0  0  0  0
    0.2247    0.4861   -3.5231 C   0  0  0  0  0  0  0  0  0  0  0  0
    1.0664   -0.1655   -3.7808 H   0  0  0  0  0  0  0  0  0  0  0  0
   -0.5909    0.2944   -4.2268 H   0  0  0  0  0  0  0  0  0  0  0  0
    0.5390    1.5290   -3.6379 H   0  0  0  0  0  0  0  0  0  0  0  0
  1  2  1  0  0  0  0
  2  3  1  0  0  0  0
  2  4  1  0  0  0  0
  2  5  1  0  0  0  0
  5  6  2  0  0  0  0
  5  7  1  0  0  0  0
  7  8  1  0  0  0  0
  7  9  1  0  0  0  0
  9 10  1  0  0  0  0
  9 11  1  0  0  0  0
  9 19  1  0  0  0  0
 11 12  1  0  0  0  0
 11 13  1  0  0  0  0
 11 17  1  0  0  0  0
 13 14  1  0  0  0  0
 13 15  1  0  0  0  0
 13 16  1  0  0  0  0
 17 18  1  0  0  0  0
 19 20  2  0  0  0  0
 19 21  1  0  0  0  0
 21 22  1  0  0  0  0
 21 23  1  0  0  0  0
 23 24  1  0  0  0  0
 23 25  1  0  0  0  0
 23 26  1  0  0  0  0
M  END
$$$$

  -OEChem-01062216093D

 26 25  0     1  0  0  0  0  0999 V2000
   -3.2524   -3.0905    1.4108 H   0  0  0  0  0  0  0  0  0  0  0  0
   -3.1037   -2.1139    0.9404 C   0  0  0  0  0  0  0  0  0  0  0  0
   -3.6214   -1.3576    1.5356 H   0  0  0  0  0  0  0  0  0  0  0  0
   -3.5360   -2.1395   -0.0628 H   0  0  0  0  0  0  0  0  0  0  0  0
   -1.6230   -1.7913    0.8607 C   0  0  0  0  0  0  0  0  0  0  0  0
   -0.8230   -2.6445    1.2018 O   0  0  0  0  0  0  0  0  0  0  0  0
   -1.2422   -0.5705    0.3280 N   0  0  0  0  0  0  0  0  0  0  0  0
   -2.0360    0.0214    0.1021 H   0  0  0  0  0  0  0  0  0  0  0  0
    0.0742    0.1389    0.3585 C   0  0  1  0  0  0  0  0  0  0  0  0
   -0.1530    1.1432    0.7270 H   0  0  0  0  0  0  0  0  0  0  0  0
    1.1899   -0.3722    1.3154 C   0  0  1  0  0  0  0  0  0  0  0  0
    2.0713    0.2671    1.1935 H   0  0  0  0  0  0  0  0  0  0  0  0
    0.7812   -0.2764    2.7876 C   0  0  0  0  0  0  0  0  0  0  0  0
   -0.0845   -0.9041    3.0090 H   0  0  0  0  0  0  0  0  0  0  0  0
    1.6115   -0.6007    3.4223 H   0  0  0  0  0  0  0  0  0  0  0  0
    0.5351    0.7574    3.0463 H   0  0  0  0  0  0  0  0  0  0  0  0
    1.5819   -1.7101    1.0212 O   0  0  0  0  0  0  0  0  0  0  0  0
    0.7878   -2.2948    1.1014 H   0  0  0  0  0  0  0  0  0  0  0  0
    0.6210    0.3788   -1.0709 C   0  0  0  0  0  0  0  0  0  0  0  0
    1.7882    0.6893   -1.2690 O   0  0  0  0  0  0  0  0  0  0  0  0
   -0.2680    0.5422   -2.1221 N   0  0  0  0  0  0  0  0  0  0  0  0
   -1.2040    0.1796   -1.9816 H   0  0  0  0  0  0  0  0  0  0  0  0
    0.1605    0.8407   -3.4844 C   0  0  0  0  0  0  0  0  0  0  0  0
    0.8175    0.0499   -3.8618 H   0  0  0  0  0  0  0  0  0  0  0  0
   -0.7075    0.9158   -4.1463 H   0  0  0  0  0  0  0  0  0  0  0  0
    0.7006    1.7928   -3.5167 H   0  0  0  0  0  0  0  0  0  0  0  0
  1  2  1  0  0  0  0
  2  3  1  0  0  0  0
  2  4  1  0  0  0  0
  2  5  1  0  0  0  0
  5  6  2  0  0  0  0
  5  7  1  0  0  0  0
  7  8  1  0  0  0  0
  7  9  1  0  0  0  0
  9 10  1  0  0  0  0
  9 11  1  0  0  0  0
  9 19  1  0  0  0  0
 11 12  1  0  0  0  0
 11 13  1  0  0  0  0
 11 17  1  0  0  0  0
 13 14  1  0  0  0  0
 13 15  1  0  0  0  0
 13 16  1  0  0  0  0
 17 18  1  0  0  0  0
 19 20  2  0  0  0  0
 19 21  1  0  0  0  0
 21 22  1  0  0  0  0
 21 23  1  0  0  0  0
 23 24  1  0  0  0  0
 23 25  1  0  0  0  0
 23 26  1  0  0  0  0
M  END
$$$$

  -OEChem-01062216093D

 26 25  0     1  0  0  0  0  0999 V2000
   -3.2609   -3.0841    1.3903 H   0  0  0  0  0  0  0  0  0  0  0  0
   -3.0978   -2.1299    0.8805 C   0  0  0  0  0  0  0  0  0  0  0  0
   -3.6567   -1.3531    1.4076 H   0  0  0  0  0  0  0  0  0  0  0  0
   -3.4728   -2.2109   -0.1427 H   0  0  0  0  0  0  0  0  0  0  0  0
   -1.6187   -1.7907    0.8655 C   0  0  0  0  0  0  0  0  0  0  0  0
   -0.8277   -2.6301    1.2579 O   0  0  0  0  0  0  0  0  0  0  0  0
   -1.2300   -0.5698    0.3389 N   0  0  0  0  0  0  0  0  0  0  0  0
   -2.0176    0.0061    0.0610 H   0  0  0  0  0  0  0  0  0  0  0  0
    0.0934    0.1250    0.3591 C   0  0  1  0  0  0  0  0  0  0  0  0
   -0.1245    1.1305    0.7289 H   0  0  0  0  0  0  0  0  0  0  0  0
    1.2063   -0.3816    1.3221 C   0  0  1  0  0  0  0  0  0  0  0  0
    2.0914    0.2490    1.1828 H   0  0  0  0  0  0  0  0  0  0  0  0
    0.8020   -0.2557    2.7933 C   0  0  0  0  0  0  0  0  0  0  0  0
   -0.0771   -0.8615    3.0233 H   0  0  0  0  0  0  0  0  0  0  0  0
    1.6257   -0.5891    3.4320 H   0  0  0  0  0  0  0  0  0  0  0  0
    0.5785    0.7868    3.0376 H   0  0  0  0  0  0  0  0  0  0  0  0
    1.5904   -1.7270    1.0547 O   0  0  0  0  0  0  0  0  0  0  0  0
    0.7908   -2.3030    1.1372 H   0  0  0  0  0  0  0  0  0  0  0  0
    0.6195    0.3684   -1.0780 C   0  0  0  0  0  0  0  0  0  0  0  0
    1.8100    0.3438   -1.3584 O   0  0  0  0  0  0  0  0  0  0  0  0
   -0.2496    0.8552   -2.0430 N   0  0  0  0  0  0  0  0  0  0  0  0
   -1.2386    0.8595   -1.8246 H   0  0  0  0  0  0  0  0  0  0  0  0
    0.1662    1.1836   -3.4025 C   0  0  0  0  0  0  0  0  0  0  0  0
    0.5917    0.3037   -3.8965 H   0  0  0  0  0  0  0  0  0  0  0  0
   -0.6919    1.5279   -3.9874 H   0  0  0  0  0  0  0  0  0  0  0  0
    0.9180    1.9800   -3.3922 H   0  0  0  0  0  0  0  0  0  0  0  0
  1  2  1  0  0  0  0
  2  3  1  0  0  0  0
  2  4  1  0  0  0  0
  2  5  1  0  0  0  0
  5  6  2  0  0  0  0
  5  7  1  0  0  0  0
  7  8  1  0  0  0  0
  7  9  1  0  0  0  0
  9 10  1  0  0  0  0
  9 11  1  0  0  0  0
  9 19  1  0  0  0  0
 11 12  1  0  0  0  0
 11 13  1  0  0  0  0
 11 17  1  0  0  0  0
 13 14  1  0  0  0  0
 13 15  1  0  0  0  0
 13 16  1  0  0  0  0
 17 18  1  0  0  0  0
 19 20  2  0  0  0  0
 19 21  1  0  0  0  0
 21 22  1  0  0  0  0
 21 23  1  0  0  0  0
 23 24  1  0  0  0  0
 23 25  1  0  0  0  0
 23 26  1  0  0  0  0
M  END
$$$$

  -OEChem-01062216093D

 26 25  0     1  0  0  0  0  0999 V2000
   -3.2793   -3.1016    1.3110 H   0  0  0  0  0  0  0  0  0  0  0  0
   -3.1001   -2.1506    0.8009 C   0  0  0  0  0  0  0  0  0  0  0  0
   -3.7173   -1.3812    1.2708 H   0  0  0  0  0  0  0  0  0  0  0  0
   -3.3916   -2.2548   -0.2471 H   0  0  0  0  0  0  0  0  0  0  0  0
   -1.6329   -1.7738    0.8958 C   0  0  0  0  0  0  0  0  0  0  0  0
   -0.8588   -2.5788    1.3833 O   0  0  0  0  0  0  0  0  0  0  0  0
   -1.2321   -0.5577    0.3670 N   0  0  0  0  0  0  0  0  0  0  0  0
   -1.9892   -0.0397   -0.0665 H   0  0  0  0  0  0  0  0  0  0  0  0
    0.1016    0.1129    0.3661 C   0  0  1  0  0  0  0  0  0  0  0  0
   -0.0994    1.1212    0.7378 H   0  0  0  0  0  0  0  0  0  0  0  0
    1.2205   -0.3901    1.3223 C   0  0  1  0  0  0  0  0  0  0  0  0
    2.1097    0.2250    1.1457 H   0  0  0  0  0  0  0  0  0  0  0  0
    0.8484   -0.2222    2.7980 C   0  0  0  0  0  0  0  0  0  0  0  0
   -0.0426   -0.7978    3.0576 H   0  0  0  0  0  0  0  0  0  0  0  0
    1.6747   -0.5646    3.4282 H   0  0  0  0  0  0  0  0  0  0  0  0
    0.6581    0.8307    3.0245 H   0  0  0  0  0  0  0  0  0  0  0  0
    1.5886   -1.7441    1.0803 O   0  0  0  0  0  0  0  0  0  0  0  0
    0.7855   -2.3083    1.1944 H   0  0  0  0  0  0  0  0  0  0  0  0
    0.5980    0.3499   -1.0804 C   0  0  0  0  0  0  0  0  0  0  0  0
    1.6808   -0.0406   -1.4914 O   0  0  0  0  0  0  0  0  0  0  0  0
   -0.1680    1.1351   -1.9291 N   0  0  0  0  0  0  0  0  0  0  0  0
   -1.0163    1.5475   -1.5578 H   0  0  0  0  0  0  0  0  0  0  0  0
    0.2475    1.4902   -3.2821 C   0  0  0  0  0  0  0  0  0  0  0  0
    0.4187    0.5885   -3.8799 H   0  0  0  0  0  0  0  0  0  0  0  0
   -0.5286    2.0857   -3.7722 H   0  0  0  0  0  0  0  0  0  0  0  0
    1.1717    2.0774   -3.2582 H   0  0  0  0  0  0  0  0  0  0  0  0
  1  2  1  0  0  0  0
  2  3  1  0  0  0  0
  2  4  1  0  0  0  0
  2  5  1  0  0  0  0
  5  6  2  0  0  0  0
  5  7  1  0  0  0  0
  7  8  1  0  0  0  0
  7  9  1  0  0  0  0
  9 10  1  0  0  0  0
  9 11  1  0  0  0  0
  9 19  1  0  0  0  0
 11 12  1  0  0  0  0
 11 13  1  0  0  0  0
 11 17  1  0  0  0  0
 13 14  1  0  0  0  0
 13 15  1  0  0  0  0
 13 16  1  0  0  0  0
 17 18  1  0  0  0  0
 19 20  2  0  0  0  0
 19 21  1  0  0  0  0
 21 22  1  0  0  0  0
 21 23  1  0  0  0  0
 23 24  1  0  0  0  0
 23 25  1  0  0  0  0
 23 26  1  0  0  0  0
M  END
$$$$

  -OEChem-01062216093D

 26 25  0     1  0  0  0  0  0999 V2000
   -3.2756   -3.1112    1.2544 H   0  0  0  0  0  0  0  0  0  0  0  0
   -3.0939   -2.1558    0.7534 C   0  0  0  0  0  0  0  0  0  0  0  0
   -3.7380   -1.3969    1.2038 H   0  0  0  0  0  0  0  0  0  0  0  0
   -3.3481   -2.2611   -0.3043 H   0  0  0  0  0  0  0  0  0  0  0  0
   -1.6367   -1.7569    0.8991 C   0  0  0  0  0  0  0  0  0  0  0  0
   -0.8687   -2.5467    1.4204 O   0  0  0  0  0  0  0  0  0  0  0  0
   -1.2351   -0.5376    0.3794 N   0  0  0  0  0  0  0  0  0  0  0  0
   -1.9730   -0.0435   -0.1126 H   0  0  0  0  0  0  0  0  0  0  0  0
    0.1015    0.1220    0.3799 C   0  0  1  0  0  0  0  0  0  0  0  0
   -0.0960    1.1266    0.7631 H   0  0  0  0  0  0  0  0  0  0  0  0
    1.2261   -0.3823    1.3263 C   0  0  1  0  0  0  0  0  0  0  0  0
    2.1138    0.2317    1.1373 H   0  0  0  0  0  0  0  0  0  0  0  0
    0.8695   -0.2092    2.8051 C   0  0  0  0  0  0  0  0  0  0  0  0
   -0.0219   -0.7798    3.0747 H   0  0  0  0  0  0  0  0  0  0  0  0
    1.7002   -0.5544    3.4280 H   0  0  0  0  0  0  0  0  0  0  0  0
    0.6861    0.8449    3.0311 H   0  0  0  0  0  0  0  0  0  0  0  0
    1.5947   -1.7353    1.0842 O   0  0  0  0  0  0  0  0  0  0  0  0
    0.7907   -2.2982    1.1960 H   0  0  0  0  0  0  0  0  0  0  0  0
    0.5890    0.3679   -1.0655 C   0  0  0  0  0  0  0  0  0  0  0  0
    1.4424   -0.3167   -1.6093 O   0  0  0  0  0  0  0  0  0  0  0  0
    0.0155    1.3973   -1.7963 N   0  0  0  0  0  0  0  0  0  0  0  0
   -0.6404    2.0085   -1.3210 H   0  0  0  0  0  0  0  0  0  0  0  0
    0.4215    1.7307   -3.1575 C   0  0  0  0  0  0  0  0  0  0  0  0
    0.2839    0.8699   -3.8205 H   0  0  0  0  0  0  0  0  0  0  0  0
   -0.1817    2.5595   -3.5401 H   0  0  0  0  0  0  0  0  0  0  0  0
    1.4751    2.0288   -3.1810 H   0  0  0  0  0  0  0  0  0  0  0  0
  1  2  1  0  0  0  0
  2  3  1  0  0  0  0
  2  4  1  0  0  0  0
  2  5  1  0  0  0  0
  5  6  2  0  0  0  0
  5  7  1  0  0  0  0
  7  8  1  0  0  0  0
  7  9  1  0  0  0  0
  9 10  1  0  0  0  0
  9 11  1  0  0  0  0
  9 19  1  0  0  0  0
 11 12  1  0  0  0  0
 11 13  1  0  0  0  0
 11 17  1  0  0  0  0
 13 14  1  0  0  0  0
 13 15  1  0  0  0  0
 13 16  1  0  0  0  0
 17 18  1  0  0  0  0
 19 20  2  0  0  0  0
 19 21  1  0  0  0  0
 21 22  1  0  0  0  0
 21 23  1  0  0  0  0
 23 24  1  0  0  0  0
 23 25  1  0  0  0  0
 23 26  1  0  0  0  0
M  END
$$$$

  -OEChem-01062216093D

 26 25  0     1  0  0  0  0  0999 V2000
   -3.2675   -3.1172    1.2058 H   0  0  0  0  0  0  0  0  0  0  0  0
   -3.0848   -2.1563    0.7156 C   0  0  0  0  0  0  0  0  0  0  0  0
   -3.7481   -1.4077    1.1552 H   0  0  0  0  0  0  0  0  0  0  0  0
   -3.3123   -2.2570   -0.3485 H   0  0  0  0  0  0  0  0  0  0  0  0
   -1.6366   -1.7408    0.8981 C   0  0  0  0  0  0  0  0  0  0  0  0
   -0.8733   -2.5190    1.4445 O   0  0  0  0  0  0  0  0  0  0  0  0
   -1.2358   -0.5179    0.3870 N   0  0  0  0  0  0  0  0  0  0  0  0
   -1.9562   -0.0437   -0.1491 H   0  0  0  0  0  0  0  0  0  0  0  0
    0.1010    0.1371    0.4005 C   0  0  1  0  0  0  0  0  0  0  0  0
   -0.1020    1.1360    0.7948 H   0  0  0  0  0  0  0  0  0  0  0  0
    1.2299   -0.3701    1.3369 C   0  0  1  0  0  0  0  0  0  0  0  0
    2.1146    0.2477    1.1482 H   0  0  0  0  0  0  0  0  0  0  0  0
    0.8808   -0.2081    2.8189 C   0  0  0  0  0  0  0  0  0  0  0  0
   -0.0137   -0.7739    3.0872 H   0  0  0  0  0  0  0  0  0  0  0  0
    1.7112   -0.5644    3.4359 H   0  0  0  0  0  0  0  0  0  0  0  0
    0.7055    0.8454    3.0544 H   0  0  0  0  0  0  0  0  0  0  0  0
    1.6011   -1.7179    1.0776 O   0  0  0  0  0  0  0  0  0  0  0  0
    0.7979   -2.2830    1.1837 H   0  0  0  0  0  0  0  0  0  0  0  0
    0.5989    0.3919   -1.0380 C   0  0  0  0  0  0  0  0  0  0  0  0
    1.1079   -0.4884   -1.7158 O   0  0  0  0  0  0  0  0  0  0  0  0
    0.2853    1.5918   -1.6572 N   0  0  0  0  0  0  0  0  0  0  0  0
   -0.1198    2.3274   -1.0868 H   0  0  0  0  0  0  0  0  0  0  0  0
    0.6569    1.9000   -3.0338 C   0  0  0  0  0  0  0  0  0  0  0  0
    0.2112    1.1754   -3.7235 H   0  0  0  0  0  0  0  0  0  0  0  0
    0.3023    2.8983   -3.3071 H   0  0  0  0  0  0  0  0  0  0  0  0
    1.7454    1.8747   -3.1511 H   0  0  0  0  0  0  0  0  0  0  0  0
  1  2  1  0  0  0  0
  2  3  1  0  0  0  0
  2  4  1  0  0  0  0
  2  5  1  0  0  0  0
  5  6  2  0  0  0  0
  5  7  1  0  0  0  0
  7  8  1  0  0  0  0
  7  9  1  0  0  0  0
  9 10  1  0  0  0  0
  9 11  1  0  0  0  0
  9 19  1  0  0  0  0
 11 12  1  0  0  0  0
 11 13  1  0  0  0  0
 11 17  1  0  0  0  0
 13 14  1  0  0  0  0
 13 15  1  0  0  0  0
 13 16  1  0  0  0  0
 17 18  1  0  0  0  0
 19 20  2  0  0  0  0
 19 21  1  0  0  0  0
 21 22  1  0  0  0  0
 21 23  1  0  0  0  0
 23 24  1  0  0  0  0
 23 25  1  0  0  0  0
 23 26  1  0  0  0  0
M  END
$$$$

  -OEChem-01062216093D

 26 25  0     1  0  0  0  0  0999 V2000
   -3.2622   -3.1240    1.1671 H   0  0  0  0  0  0  0  0  0  0  0  0
   -3.0797   -2.1590    0.6856 C   0  0  0  0  0  0  0  0  0  0  0  0
   -3.7646   -1.4211    1.1098 H   0  0  0  0  0  0  0  0  0  0  0  0
   -3.2766   -2.2588   -0.3847 H   0  0  0  0  0  0  0  0  0  0  0  0
   -1.6428   -1.7246    0.9086 C   0  0  0  0  0  0  0  0  0  0  0  0
   -0.8863   -2.4895    1.4835 O   0  0  0  0  0  0  0  0  0  0  0  0
   -1.2398   -0.5029    0.3971 N   0  0  0  0  0  0  0  0  0  0  0  0
   -1.9397   -0.0536   -0.1862 H   0  0  0  0  0  0  0  0  0  0  0  0
    0.0973    0.1503    0.4194 C   0  0  1  0  0  0  0  0  0  0  0  0
   -0.1106    1.1469    0.8170 H   0  0  0  0  0  0  0  0  0  0  0  0
    1.2294   -0.3616    1.3460 C   0  0  1  0  0  0  0  0  0  0  0  0
    2.1140    0.2566    1.1574 H   0  0  0  0  0  0  0  0  0  0  0  0
    0.8933   -0.2105    2.8325 C   0  0  0  0  0  0  0  0  0  0  0  0
   -0.0104   -0.7608    3.1025 H   0  0  0  0  0  0  0  0  0  0  0  0
    1.7212   -0.5890    3.4396 H   0  0  0  0  0  0  0  0  0  0  0  0
    0.7394    0.8434    3.0802 H   0  0  0  0  0  0  0  0  0  0  0  0
    1.5950   -1.7056    1.0623 O   0  0  0  0  0  0  0  0  0  0  0  0
    0.7939   -2.2712    1.1816 H   0  0  0  0  0  0  0  0  0  0  0  0
    0.6079    0.4021   -1.0144 C   0  0  0  0  0  0  0  0  0  0  0  0
    0.7866   -0.5233   -1.7940 O   0  0  0  0  0  0  0  0  0  0  0  0
    0.5860    1.6887   -1.5291 N   0  0  0  0  0  0  0  0  0  0  0  0
    0.4300    2.4549   -0.8813 H   0  0  0  0  0  0  0  0  0  0  0  0
    0.9451    2.0027   -2.9079 C   0  0  0  0  0  0  0  0  0  0  0  0
    0.2716    1.4936   -3.6056 H   0  0  0  0  0  0  0  0  0  0  0  0
    0.8712    3.0804   -3.0821 H   0  0  0  0  0  0  0  0  0  0  0  0
    1.9731    1.6884   -3.1177 H   0  0  0  0  0  0  0  0  0  0  0  0
  1  2  1  0  0  0  0
  2  3  1  0  0  0  0
  2  4  1  0  0  0  0
  2  5  1  0  0  0  0
  5  6  2  0  0  0  0
  5  7  1  0  0  0  0
  7  8  1  0  0  0  0
  7  9  1  0  0  0  0
  9 10  1  0  0  0  0
  9 11  1  0  0  0  0
  9 19  1  0  0  0  0
 11 12  1  0  0  0  0
 11 13  1  0  0  0  0
 11 17  1  0  0  0  0
 13 14  1  0  0  0  0
 13 15  1  0  0  0  0
 13 16  1  0  0  0  0
 17 18  1  0  0  0  0
 19 20  2  0  0  0  0
 19 21  1  0  0  0  0
 21 22  1  0  0  0  0
 21 23  1  0  0  0  0
 23 24  1  0  0  0  0
 23 25  1  0  0  0  0
 23 26  1  0  0  0  0
M  END
$$$$

  -OEChem-01062216093D

 26 25  0     1  0  0  0  0  0999 V2000
   -3.2626   -3.1273    1.1517 H   0  0  0  0  0  0  0  0  0  0  0  0
   -3.0788   -2.1622    0.6707 C   0  0  0  0  0  0  0  0  0  0  0  0
   -3.7816   -1.4297    1.0747 H   0  0  0  0  0  0  0  0  0  0  0  0
   -3.2488   -2.2683   -0.4038 H   0  0  0  0  0  0  0  0  0  0  0  0
   -1.6524   -1.7118    0.9269 C   0  0  0  0  0  0  0  0  0  0  0  0
   -0.9021   -2.4665    1.5238 O   0  0  0  0  0  0  0  0  0  0  0  0
   -1.2468   -0.4932    0.4107 N   0  0  0  0  0  0  0  0  0  0  0  0
   -1.9255   -0.0724   -0.2175 H   0  0  0  0  0  0  0  0  0  0  0  0
    0.0917    0.1570    0.4314 C   0  0  1  0  0  0  0  0  0  0  0  0
   -0.1155    1.1548    0.8271 H   0  0  0  0  0  0  0  0  0  0  0  0
    1.2271   -0.3599    1.3485 C   0  0  1  0  0  0  0  0  0  0  0  0
    2.1132    0.2546    1.1552 H   0  0  0  0  0  0  0  0  0  0  0  0
    0.9074   -0.2110    2.8389 C   0  0  0  0  0  0  0  0  0  0  0  0
   -0.0030   -0.7460    3.1158 H   0  0  0  0  0  0  0  0  0  0  0  0
    1.7343   -0.6064    3.4364 H   0  0  0  0  0  0  0  0  0  0  0  0
    0.7738    0.8443    3.0927 H   0  0  0  0  0  0  0  0  0  0  0  0
    1.5816   -1.7029    1.0472 O   0  0  0  0  0  0  0  0  0  0  0  0
    0.7821   -2.2661    1.1885 H   0  0  0  0  0  0  0  0  0  0  0  0
    0.6075    0.4034   -1.0011 C   0  0  0  0  0  0  0  0  0  0  0  0
    0.5042   -0.4640   -1.8592 O   0  0  0  0  0  0  0  0  0  0  0  0
    0.8875    1.6959   -1.4145 N   0  0  0  0  0  0  0  0  0  0  0  0
    0.9646    2.4135   -0.7003 H   0  0  0  0  0  0  0  0  0  0  0  0
    1.2641    2.0313   -2.7833 C   0  0  0  0  0  0  0  0  0  0  0  0
    0.4650    1.7569   -3.4802 H   0  0  0  0  0  0  0  0  0  0  0  0
    1.4447    3.1067   -2.8734 H   0  0  0  0  0  0  0  0  0  0  0  0
    2.1789    1.5014   -3.0695 H   0  0  0  0  0  0  0  0  0  0  0  0
  1  2  1  0  0  0  0
  2  3  1  0  0  0  0
  2  4  1  0  0  0  0
  2  5  1  0  0  0  0
  5  6  2  0  0  0  0
  5  7  1  0  0  0  0
  7  8  1  0  0  0  0
  7  9  1  0  0  0  0
  9 10  1  0  0  0  0
  9 11  1  0  0  0  0
  9 19  1  0  0  0  0
 11 12  1  0  0  0  0
 11 13  1  0  0  0  0
 11 17  1  0  0  0  0
 13 14  1  0  0  0  0
 13 15  1  0  0  0  0
 13 16  1  0  0  0  0
 17 18  1  0  0  0  0
 19 20  2  0  0  0  0
 19 21  1  0  0  0  0
 21 22  1  0  0  0  0
 21 23  1  0  0  0  0
 23 24  1  0  0  0  0
 23 25  1  0  0  0  0
 23 26  1  0  0  0  0
M  END
$$$$

  -OEChem-01062216093D

 26 25  0     1  0  0  0  0  0999 V2000
   -3.2641   -3.1299    1.1455 H   0  0  0  0  0  0  0  0  0  0  0  0
   -3.0786   -2.1648    0.6655 C   0  0  0  0  0  0  0  0  0  0  0  0
   -3.7924   -1.4356    1.0562 H   0  0  0  0  0  0  0  0  0  0  0  0
   -3.2309   -2.2739   -0.4114 H   0  0  0  0  0  0  0  0  0  0  0  0
   -1.6594   -1.7048    0.9432 C   0  0  0  0  0  0  0  0  0  0  0  0
   -0.9125   -2.4542    1.5515 O   0  0  0  0  0  0  0  0  0  0  0  0
   -1.2525   -0.4886    0.4238 N   0  0  0  0  0  0  0  0  0  0  0  0
   -1.9135   -0.0920   -0.2388 H   0  0  0  0  0  0  0  0  0  0  0  0
    0.0864    0.1609    0.4395 C   0  0  1  0  0  0  0  0  0  0  0  0
   -0.1189    1.1604    0.8322 H   0  0  0  0  0  0  0  0  0  0  0  0
    1.2236   -0.3602    1.3502 C   0  0  1  0  0  0  0  0  0  0  0  0
    2.1119    0.2502    1.1545 H   0  0  0  0  0  0  0  0  0  0  0  0
    0.9144   -0.2116    2.8428 C   0  0  0  0  0  0  0  0  0  0  0  0
    0.0016   -0.7390    3.1261 H   0  0  0  0  0  0  0  0  0  0  0  0
    1.7424   -0.6140    3.4341 H   0  0  0  0  0  0  0  0  0  0  0  0
    0.7906    0.8445    3.0989 H   0  0  0  0  0  0  0  0  0  0  0  0
    1.5685   -1.7030    1.0376 O   0  0  0  0  0  0  0  0  0  0  0  0
    0.7720   -2.2648    1.2011 H   0  0  0  0  0  0  0  0  0  0  0  0
    0.6034    0.4053   -0.9933 C   0  0  0  0  0  0  0  0  0  0  0  0
    0.2618   -0.3326   -1.9103 O   0  0  0  0  0  0  0  0  0  0  0  0
    1.1763    1.6242   -1.3174 N   0  0  0  0  0  0  0  0  0  0  0  0
    1.4616    2.2273   -0.5518 H   0  0  0  0  0  0  0  0  0  0  0  0
    1.5896    1.9751   -2.6714 C   0  0  0  0  0  0  0  0  0  0  0  0
    0.7333    1.9485   -3.3536 H   0  0  0  0  0  0  0  0  0  0  0  0
    2.0113    2.9846   -2.6882 H   0  0  0  0  0  0  0  0  0  0  0  0
    2.3504    1.2753   -3.0331 H   0  0  0  0  0  0  0  0  0  0  0  0
  1  2  1  0  0  0  0
  2  3  1  0  0  0  0
  2  4  1  0  0  0  0
  2  5  1  0  0  0  0
  5  6  2  0  0  0  0
  5  7  1  0  0  0  0
  7  8  1  0  0  0  0
  7  9  1  0  0  0  0
  9 10  1  0  0  0  0
  9 11  1  0  0  0  0
  9 19  1  0  0  0  0
 11 12  1  0  0  0  0
 11 13  1  0  0  0  0
 11 17  1  0  0  0  0
 13 14  1  0  0  0  0
 13 15  1  0  0  0  0
 13 16  1  0  0  0  0
 17 18  1  0  0  0  0
 19 20  2  0  0  0  0
 19 21  1  0  0  0  0
 21 22  1  0  0  0  0
 21 23  1  0  0  0  0
 23 24  1  0  0  0  0
 23 25  1  0  0  0  0
 23 26  1  0  0  0  0
M  END
$$$$

  -OEChem-01062216093D

 26 25  0     1  0  0  0  0  0999 V2000
   -3.2652   -3.1291    1.1424 H   0  0  0  0  0  0  0  0  0  0  0  0
   -3.0775   -2.1630    0.6654 C   0  0  0  0  0  0  0  0  0  0  0  0
   -3.7928   -1.4346    1.0546 H   0  0  0  0  0  0  0  0  0  0  0  0
   -3.2247   -2.2693   -0.4124 H   0  0  0  0  0  0  0  0  0  0  0  0
   -1.6600   -1.7028    0.9502 C   0  0  0  0  0  0  0  0  0  0  0  0
   -0.9142   -2.4546    1.5573 O   0  0  0  0  0  0  0  0  0  0  0  0
   -1.2516   -0.4864    0.4330 N   0  0  0  0  0  0  0  0  0  0  0  0
   -1.9012   -0.1022   -0.2490 H   0  0  0  0  0  0  0  0  0  0  0  0
    0.0853    0.1684    0.4493 C   0  0  1  0  0  0  0  0  0  0  0  0
   -0.1178    1.1691    0.8404 H   0  0  0  0  0  0  0  0  0  0  0  0
    1.2208   -0.3607    1.3588 C   0  0  1  0  0  0  0  0  0  0  0  0
    2.1117    0.2479    1.1708 H   0  0  0  0  0  0  0  0  0  0  0  0
    0.9119   -0.2226    2.8526 C   0  0  0  0  0  0  0  0  0  0  0  0
   -0.0050   -0.7448    3.1318 H   0  0  0  0  0  0  0  0  0  0  0  0
    1.7364   -0.6363    3.4412 H   0  0  0  0  0  0  0  0  0  0  0  0
    0.7960    0.8323    3.1173 H   0  0  0  0  0  0  0  0  0  0  0  0
    1.5616   -1.7016    1.0337 O   0  0  0  0  0  0  0  0  0  0  0  0
    0.7672   -2.2640    1.2078 H   0  0  0  0  0  0  0  0  0  0  0  0
    0.6006    0.4139   -0.9852 C   0  0  0  0  0  0  0  0  0  0  0  0
    0.0714   -0.1505   -1.9370 O   0  0  0  0  0  0  0  0  0  0  0  0
    1.4368    1.4870   -1.2456 N   0  0  0  0  0  0  0  0  0  0  0  0
    1.8884    1.9308   -0.4514 H   0  0  0  0  0  0  0  0  0  0  0  0
    1.8930    1.8337   -2.5870 C   0  0  0  0  0  0  0  0  0  0  0  0
    1.0416    2.0697   -3.2340 H   0  0  0  0  0  0  0  0  0  0  0  0
    2.5482    2.7092   -2.5484 H   0  0  0  0  0  0  0  0  0  0  0  0
    2.4517    1.0017   -3.0285 H   0  0  0  0  0  0  0  0  0  0  0  0
  1  2  1  0  0  0  0
  2  3  1  0  0  0  0
  2  4  1  0  0  0  0
  2  5  1  0  0  0  0
  5  6  2  0  0  0  0
  5  7  1  0  0  0  0
  7  8  1  0  0  0  0
  7  9  1  0  0  0  0
  9 10  1  0  0  0  0
  9 11  1  0  0  0  0
  9 19  1  0  0  0  0
 11 12  1  0  0  0  0
 11 13  1  0  0  0  0
 11 17  1  0  0  0  0
 13 14  1  0  0  0  0
 13 15  1  0  0  0  0
 13 16  1  0  0  0  0
 17 18  1  0  0  0  0
 19 20  2  0  0  0  0
 19 21  1  0  0  0  0
 21 22  1  0  0  0  0
 21 23  1  0  0  0  0
 23 24  1  0  0  0  0
 23 25  1  0  0  0  0
 23 26  1  0  0  0  0
M  END
$$$$

  -OEChem-01062216093D

 26 25  0     1  0  0  0  0  0999 V2000
   -3.2645   -3.1276    1.1328 H   0  0  0  0  0  0  0  0  0  0  0  0
   -3.0738   -2.1593    0.6613 C   0  0  0  0  0  0  0  0  0  0  0  0
   -3.7880   -1.4315    1.0539 H   0  0  0  0  0  0  0  0  0  0  0  0
   -3.2206   -2.2590   -0.4173 H   0  0  0  0  0  0  0  0  0  0  0  0
   -1.6553   -1.7039    0.9498 C   0  0  0  0  0  0  0  0  0  0  0  0
   -0.9101   -2.4634    1.5480 O   0  0  0  0  0  0  0  0  0  0  0  0
   -1.2438   -0.4842    0.4424 N   0  0  0  0  0  0  0  0  0  0  0  0
   -1.8901   -0.0948   -0.2408 H   0  0  0  0  0  0  0  0  0  0  0  0
    0.0906    0.1763    0.4643 C   0  0  1  0  0  0  0  0  0  0  0  0
   -0.1105    1.1765    0.8577 H   0  0  0  0  0  0  0  0  0  0  0  0
    1.2213   -0.3623    1.3764 C   0  0  1  0  0  0  0  0  0  0  0  0
    2.1155    0.2452    1.2047 H   0  0  0  0  0  0  0  0  0  0  0  0
    0.9027   -0.2361    2.8691 C   0  0  0  0  0  0  0  0  0  0  0  0
   -0.0177   -0.7577    3.1376 H   0  0  0  0  0  0  0  0  0  0  0  0
    1.7221   -0.6566    3.4600 H   0  0  0  0  0  0  0  0  0  0  0  0
    0.7877    0.8170    3.1410 H   0  0  0  0  0  0  0  0  0  0  0  0
    1.5611   -1.7007    1.0399 O   0  0  0  0  0  0  0  0  0  0  0  0
    0.7673   -2.2646    1.2139 H   0  0  0  0  0  0  0  0  0  0  0  0
    0.6006    0.4289   -0.9727 C   0  0  0  0  0  0  0  0  0  0  0  0
   -0.0727    0.0687   -1.9336 O   0  0  0  0  0  0  0  0  0  0  0  0
    1.6577    1.2940   -1.2027 N   0  0  0  0  0  0  0  0  0  0  0  0
    2.2389    1.5370   -0.4060 H   0  0  0  0  0  0  0  0  0  0  0  0
    2.1479    1.6131   -2.5387 C   0  0  0  0  0  0  0  0  0  0  0  0
    1.3572    2.0761   -3.1385 H   0  0  0  0  0  0  0  0  0  0  0  0
    2.9859    2.3139   -2.4755 H   0  0  0  0  0  0  0  0  0  0  0  0
    2.4917    0.7062   -3.0472 H   0  0  0  0  0  0  0  0  0  0  0  0
  1  2  1  0  0  0  0
  2  3  1  0  0  0  0
  2  4  1  0  0  0  0
  2  5  1  0  0  0  0
  5  6  2  0  0  0  0
  5  7  1  0  0  0  0
  7  8  1  0  0  0  0
  7  9  1  0  0  0  0
  9 10  1  0  0  0  0
  9 11  1  0  0  0  0
  9 19  1  0  0  0  0
 11 12  1  0  0  0  0
 11 13  1  0  0  0  0
 11 17  1  0  0  0  0
 13 14  1  0  0  0  0
 13 15  1  0  0  0  0
 13 16  1  0  0  0  0
 17 18  1  0  0  0  0
 19 20  2  0  0  0  0
 19 21  1  0  0  0  0
 21 22  1  0  0  0  0
 21 23  1  0  0  0  0
 23 24  1  0  0  0  0
 23 25  1  0  0  0  0
 23 26  1  0  0  0  0
M  END
$$$$

  -OEChem-01062216093D

 26 25  0     1  0  0  0  0  0999 V2000
   -3.4079   -2.9642    1.1279 H   0  0  0  0  0  0  0  0  0  0  0  0
   -3.1799   -1.9774    0.7149 C   0  0  0  0  0  0  0  0  0  0  0  0
   -3.7461   -1.2258    1.2702 H   0  0  0  0  0  0  0  0  0  0  0  0
   -3.4873   -1.9550   -0.3336 H   0  0  0  0  0  0  0  0  0  0  0  0
   -1.6934   -1.6934    0.8234 C   0  0  0  0  0  0  0  0  0  0  0  0
   -0.9469   -2.5996    1.1580 O   0  0  0  0  0  0  0  0  0  0  0  0
   -1.2215   -0.4726    0.3794 N   0  0  0  0  0  0  0  0  0  0  0  0
   -1.9044    0.0750   -0.1421 H   0  0  0  0  0  0  0  0  0  0  0  0
    0.1405    0.1245    0.4133 C   0  0  1  0  0  0  0  0  0  0  0  0
    0.0361    0.9878    1.0763 H   0  0  0  0  0  0  0  0  0  0  0  0
    1.3211   -0.6604    1.0376 C   0  0  1  0  0  0  0  0  0  0  0  0
    2.2295   -0.0671    0.8976 H   0  0  0  0  0  0  0  0  0  0  0  0
    1.2131   -0.8659    2.5534 C   0  0  0  0  0  0  0  0  0  0  0  0
    1.2646    0.0998    3.0645 H   0  0  0  0  0  0  0  0  0  0  0  0
    2.0456   -1.4837    2.9028 H   0  0  0  0  0  0  0  0  0  0  0  0
    0.2809   -1.3486    2.8474 H   0  0  0  0  0  0  0  0  0  0  0  0
    1.5290   -1.8801    0.3388 O   0  0  0  0  0  0  0  0  0  0  0  0
    0.7425   -2.4529    0.5034 H   0  0  0  0  0  0  0  0  0  0  0  0
    0.4806    0.7645   -0.9528 C   0  0  0  0  0  0  0  0  0  0  0  0
   -0.4111    0.9124   -1.7841 O   0  0  0  0  0  0  0  0  0  0  0  0
    1.6967    1.3871   -1.1794 N   0  0  0  0  0  0  0  0  0  0  0  0
    2.4511    1.1677   -0.5351 H   0  0  0  0  0  0  0  0  0  0  0  0
    2.0349    2.0312   -2.4432 C   0  0  0  0  0  0  0  0  0  0  0  0
    1.3282    2.8379   -2.6644 H   0  0  0  0  0  0  0  0  0  0  0  0
    3.0400    2.4603   -2.3903 H   0  0  0  0  0  0  0  0  0  0  0  0
    2.0097    1.3050   -3.2626 H   0  0  0  0  0  0  0  0  0  0  0  0
  1  2  1  0  0  0  0
  2  3  1  0  0  0  0
  2  4  1  0  0  0  0
  2  5  1  0  0  0  0
  5  6  2  0  0  0  0
  5  7  1  0  0  0  0
  7  8  1  0  0  0  0
  7  9  1  0  0  0  0
  9 10  1  0  0  0  0
  9 11  1  0  0  0  0
  9 19  1  0  0  0  0
 11 12  1  0  0  0  0
 11 13  1  0  0  0  0
 11 17  1  0  0  0  0
 13 14  1  0  0  0  0
 13 15  1  0  0  0  0
 13 16  1  0  0  0  0
 17 18  1  0  0  0  0
 19 20  2  0  0  0  0
 19 21  1  0  0  0  0
 21 22  1  0  0  0  0
 21 23  1  0  0  0  0
 23 24  1  0  0  0  0
 23 25  1  0  0  0  0
 23 26  1  0  0  0  0
M  END
$$$$

  -OEChem-01062216093D

 26 25  0     1  0  0  0  0  0999 V2000
   -3.4100   -2.9427    1.1382 H   0  0  0  0  0  0  0  0  0  0  0  0
   -3.1749   -1.9623    0.7140 C   0  0  0  0  0  0  0  0  0  0  0  0
   -3.7247   -1.1991    1.2702 H   0  0  0  0  0  0  0  0  0  0  0  0
   -3.4960   -1.9440   -0.3306 H   0  0  0  0  0  0  0  0  0  0  0  0
   -1.6835   -1.6965    0.8014 C   0  0  0  0  0  0  0  0  0  0  0  0
   -0.9402   -2.6135    1.1139 O   0  0  0  0  0  0  0  0  0  0  0  0
   -1.2029   -0.4754    0.3683 N   0  0  0  0  0  0  0  0  0  0  0  0
   -1.8904    0.1014   -0.1146 H   0  0  0  0  0  0  0  0  0  0  0  0
    0.1589    0.1193    0.4261 C   0  0  1  0  0  0  0  0  0  0  0  0
    0.0485    0.9832    1.0877 H   0  0  0  0  0  0  0  0  0  0  0  0
    1.3304   -0.6658    1.0682 C   0  0  1  0  0  0  0  0  0  0  0  0
    2.2394   -0.0677    0.9545 H   0  0  0  0  0  0  0  0  0  0  0  0
    1.1884   -0.8826    2.5795 C   0  0  0  0  0  0  0  0  0  0  0  0
    1.2089    0.0809    3.0969 H   0  0  0  0  0  0  0  0  0  0  0  0
    2.0236   -1.4869    2.9462 H   0  0  0  0  0  0  0  0  0  0  0  0
    0.2586   -1.3852    2.8471 H   0  0  0  0  0  0  0  0  0  0  0  0
    1.5513   -1.8843    0.3706 O   0  0  0  0  0  0  0  0  0  0  0  0
    0.7609   -2.4574    0.5177 H   0  0  0  0  0  0  0  0  0  0  0  0
    0.5068    0.7575   -0.9391 C   0  0  0  0  0  0  0  0  0  0  0  0
   -0.4100    1.1158   -1.6734 O   0  0  0  0  0  0  0  0  0  0  0  0
    1.8014    1.1106   -1.2802 N   0  0  0  0  0  0  0  0  0  0  0  0
    2.5445    0.6624   -0.7497 H   0  0  0  0  0  0  0  0  0  0  0  0
    2.1439    1.7265   -2.5569 C   0  0  0  0  0  0  0  0  0  0  0  0
    1.6206    2.6813   -2.6752 H   0  0  0  0  0  0  0  0  0  0  0  0
    3.2203    1.9169   -2.6074 H   0  0  0  0  0  0  0  0  0  0  0  0
    1.8683    1.0675   -3.3870 H   0  0  0  0  0  0  0  0  0  0  0  0
  1  2  1  0  0  0  0
  2  3  1  0  0  0  0
  2  4  1  0  0  0  0
  2  5  1  0  0  0  0
  5  6  2  0  0  0  0
  5  7  1  0  0  0  0
  7  8  1  0  0  0  0
  7  9  1  0  0  0  0
  9 10  1  0  0  0  0
  9 11  1  0  0  0  0
  9 19  1  0  0  0  0
 11 12  1  0  0  0  0
 11 13  1  0  0  0  0
 11 17  1  0  0  0  0
 13 14  1  0  0  0  0
 13 15  1  0  0  0  0
 13 16  1  0  0  0  0
 17 18  1  0  0  0  0
 19 20  2  0  0  0  0
 19 21  1  0  0  0  0
 21 22  1  0  0  0  0
 21 23  1  0  0  0  0
 23 24  1  0  0  0  0
 23 25  1  0  0  0  0
 23 26  1  0  0  0  0
M  END
$$$$

  -OEChem-01062216093D

 26 25  0     1  0  0  0  0  0999 V2000
   -3.3986   -2.9418    1.1352 H   0  0  0  0  0  0  0  0  0  0  0  0
   -3.1683   -1.9546    0.7244 C   0  0  0  0  0  0  0  0  0  0  0  0
   -3.7028   -1.1996    1.3059 H   0  0  0  0  0  0  0  0  0  0  0  0
   -3.5107   -1.9158   -0.3128 H   0  0  0  0  0  0  0  0  0  0  0  0
   -1.6745   -1.6964    0.7862 C   0  0  0  0  0  0  0  0  0  0  0  0
   -0.9285   -2.6189    1.0752 O   0  0  0  0  0  0  0  0  0  0  0  0
   -1.1941   -0.4744    0.3559 N   0  0  0  0  0  0  0  0  0  0  0  0
   -1.8917    0.1262   -0.0807 H   0  0  0  0  0  0  0  0  0  0  0  0
    0.1653    0.1216    0.4331 C   0  0  1  0  0  0  0  0  0  0  0  0
    0.0476    0.9866    1.0921 H   0  0  0  0  0  0  0  0  0  0  0  0
    1.3339   -0.6595    1.0845 C   0  0  1  0  0  0  0  0  0  0  0  0
    2.2402   -0.0535    0.9860 H   0  0  0  0  0  0  0  0  0  0  0  0
    1.1728   -0.8877    2.5919 C   0  0  0  0  0  0  0  0  0  0  0  0
    1.1781    0.0723    3.1163 H   0  0  0  0  0  0  0  0  0  0  0  0
    2.0076   -1.4878    2.9665 H   0  0  0  0  0  0  0  0  0  0  0  0
    0.2436   -1.4000    2.8425 H   0  0  0  0  0  0  0  0  0  0  0  0
    1.5671   -1.8738    0.3824 O   0  0  0  0  0  0  0  0  0  0  0  0
    0.7750   -2.4488    0.5153 H   0  0  0  0  0  0  0  0  0  0  0  0
    0.5238    0.7535   -0.9300 C   0  0  0  0  0  0  0  0  0  0  0  0
   -0.3669    1.2962   -1.5774 O   0  0  0  0  0  0  0  0  0  0  0  0
    1.8276    0.8307   -1.3872 N   0  0  0  0  0  0  0  0  0  0  0  0
    2.4907    0.2025   -0.9365 H   0  0  0  0  0  0  0  0  0  0  0  0
    2.1797    1.3821   -2.6897 C   0  0  0  0  0  0  0  0  0  0  0  0
    1.8342    2.4178   -2.7750 H   0  0  0  0  0  0  0  0  0  0  0  0
    3.2658    1.3711   -2.8222 H   0  0  0  0  0  0  0  0  0  0  0  0
    1.7250    0.7909   -3.4914 H   0  0  0  0  0  0  0  0  0  0  0  0
  1  2  1  0  0  0  0
  2  3  1  0  0  0  0
  2  4  1  0  0  0  0
  2  5  1  0  0  0  0
  5  6  2  0  0  0  0
  5  7  1  0  0  0  0
  7  8  1  0  0  0  0
  7  9  1  0  0  0  0
  9 10  1  0  0  0  0
  9 11  1  0  0  0  0
  9 19  1  0  0  0  0
 11 12  1  0  0  0  0
 11 13  1  0  0  0  0
 11 17  1  0  0  0  0
 13 14  1  0  0  0  0
 13 15  1  0  0  0  0
 13 16  1  0  0  0  0
 17 18  1  0  0  0  0
 19 20  2  0  0  0  0
 19 21  1  0  0  0  0
 21 22  1  0  0  0  0
 21 23  1  0  0  0  0
 23 24  1  0  0  0  0
 23 25  1  0  0  0  0
 23 26  1  0  0  0  0
M  END
$$$$

  -OEChem-01062216093D

 26 25  0     1  0  0  0  0  0999 V2000
   -3.2892   -3.0828    1.1529 H   0  0  0  0  0  0  0  0  0  0  0  0
   -3.1039   -2.0970    0.7166 C   0  0  0  0  0  0  0  0  0  0  0  0
   -3.6620   -1.3513    1.2879 H   0  0  0  0  0  0  0  0  0  0  0  0
   -3.4600   -2.0963   -0.3168 H   0  0  0  0  0  0  0  0  0  0  0  0
   -1.6211   -1.7775    0.7546 C   0  0  0  0  0  0  0  0  0  0  0  0
   -0.8331   -2.6643    1.0444 O   0  0  0  0  0  0  0  0  0  0  0  0
   -1.1944   -0.5407    0.3096 N   0  0  0  0  0  0  0  0  0  0  0  0
   -1.9252    0.0378   -0.1011 H   0  0  0  0  0  0  0  0  0  0  0  0
    0.1294    0.1256    0.4171 C   0  0  1  0  0  0  0  0  0  0  0  0
   -0.0503    0.9950    1.0562 H   0  0  0  0  0  0  0  0  0  0  0  0
    1.3197   -0.5833    1.1105 C   0  0  1  0  0  0  0  0  0  0  0  0
    2.1915    0.0741    1.0246 H   0  0  0  0  0  0  0  0  0  0  0  0
    1.1302   -0.8043    2.6155 C   0  0  0  0  0  0  0  0  0  0  0  0
    2.0072   -1.3132    3.0269 H   0  0  0  0  0  0  0  0  0  0  0  0
    0.2491   -1.4045    2.8442 H   0  0  0  0  0  0  0  0  0  0  0  0
    1.0230    0.1584    3.1238 H   0  0  0  0  0  0  0  0  0  0  0  0
    1.6386   -1.7929    0.4320 O   0  0  0  0  0  0  0  0  0  0  0  0
    0.8752   -2.4087    0.5521 H   0  0  0  0  0  0  0  0  0  0  0  0
    0.4998    0.7446   -0.9463 C   0  0  0  0  0  0  0  0  0  0  0  0
   -0.3487    1.3998   -1.5428 O   0  0  0  0  0  0  0  0  0  0  0  0
    1.7626    0.6073   -1.4937 N   0  0  0  0  0  0  0  0  0  0  0  0
    2.3491   -0.1111   -1.0680 H   0  0  0  0  0  0  0  0  0  0  0  0
    2.1143    1.0945   -2.8214 C   0  0  0  0  0  0  0  0  0  0  0  0
    1.9139    2.1680   -2.9029 H   0  0  0  0  0  0  0  0  0  0  0  0
    3.1789    0.9296   -3.0132 H   0  0  0  0  0  0  0  0  0  0  0  0
    1.5365    0.5682   -3.5881 H   0  0  0  0  0  0  0  0  0  0  0  0
  1  2  1  0  0  0  0
  2  3  1  0  0  0  0
  2  4  1  0  0  0  0
  2  5  1  0  0  0  0
  5  6  2  0  0  0  0
  5  7  1  0  0  0  0
  7  8  1  0  0  0  0
  7  9  1  0  0  0  0
  9 10  1  0  0  0  0
  9 11  1  0  0  0  0
  9 19  1  0  0  0  0
 11 12  1  0  0  0  0
 11 13  1  0  0  0  0
 11 17  1  0  0  0  0
 13 14  1  0  0  0  0
 13 15  1  0  0  0  0
 13 16  1  0  0  0  0
 17 18  1  0  0  0  0
 19 20  2  0  0  0  0
 19 21  1  0  0  0  0
 21 22  1  0  0  0  0
 21 23  1  0  0  0  0
 23 24  1  0  0  0  0
 23 25  1  0  0  0  0
 23 26  1  0  0  0  0
M  END
$$$$

  -OEChem-01062216093D

 26 25  0     1  0  0  0  0  0999 V2000
   -3.2826   -3.0844    1.1715 H   0  0  0  0  0  0  0  0  0  0  0  0
   -3.1030   -2.0974    0.7360 C   0  0  0  0  0  0  0  0  0  0  0  0
   -3.6505   -1.3525    1.3185 H   0  0  0  0  0  0  0  0  0  0  0  0
   -3.4757   -2.0925   -0.2912 H   0  0  0  0  0  0  0  0  0  0  0  0
   -1.6195   -1.7804    0.7510 C   0  0  0  0  0  0  0  0  0  0  0  0
   -0.8285   -2.6676    1.0308 O   0  0  0  0  0  0  0  0  0  0  0  0
   -1.1974   -0.5449    0.2978 N   0  0  0  0  0  0  0  0  0  0  0  0
   -1.9383    0.0427   -0.0798 H   0  0  0  0  0  0  0  0  0  0  0  0
    0.1235    0.1259    0.4091 C   0  0  1  0  0  0  0  0  0  0  0  0
   -0.0606    0.9962    1.0461 H   0  0  0  0  0  0  0  0  0  0  0  0
    1.3127   -0.5814    1.1057 C   0  0  1  0  0  0  0  0  0  0  0  0
    2.1824    0.0785    1.0133 H   0  0  0  0  0  0  0  0  0  0  0  0
    1.1227   -0.7986    2.6108 C   0  0  0  0  0  0  0  0  0  0  0  0
    1.9926   -1.3203    3.0211 H   0  0  0  0  0  0  0  0  0  0  0  0
    0.2325   -1.3850    2.8404 H   0  0  0  0  0  0  0  0  0  0  0  0
    1.0306    0.1661    3.1180 H   0  0  0  0  0  0  0  0  0  0  0  0
    1.6381   -1.7921    0.4290 O   0  0  0  0  0  0  0  0  0  0  0  0
    0.8774   -2.4111    0.5528 H   0  0  0  0  0  0  0  0  0  0  0  0
    0.5064    0.7371   -0.9518 C   0  0  0  0  0  0  0  0  0  0  0  0
   -0.2578    1.5434   -1.4703 O   0  0  0  0  0  0  0  0  0  0  0  0
    1.6538    0.3525   -1.6199 N   0  0  0  0  0  0  0  0  0  0  0  0
    2.1498   -0.4476   -1.2225 H   0  0  0  0  0  0  0  0  0  0  0  0
    1.9877    0.7915   -2.9683 C   0  0  0  0  0  0  0  0  0  0  0  0
    2.0236    1.8848   -3.0185 H   0  0  0  0  0  0  0  0  0  0  0  0
    2.9683    0.4023   -3.2586 H   0  0  0  0  0  0  0  0  0  0  0  0
    1.2428    0.4291   -3.6843 H   0  0  0  0  0  0  0  0  0  0  0  0
  1  2  1  0  0  0  0
  2  3  1  0  0  0  0
  2  4  1  0  0  0  0
  2  5  1  0  0  0  0
  5  6  2  0  0  0  0
  5  7  1  0  0  0  0
  7  8  1  0  0  0  0
  7  9  1  0  0  0  0
  9 10  1  0  0  0  0
  9 11  1  0  0  0  0
  9 19  1  0  0  0  0
 11 12  1  0  0  0  0
 11 13  1  0  0  0  0
 11 17  1  0  0  0  0
 13 14  1  0  0  0  0
 13 15  1  0  0  0  0
 13 16  1  0  0  0  0
 17 18  1  0  0  0  0
 19 20  2  0  0  0  0
 19 21  1  0  0  0  0
 21 22  1  0  0  0  0
 21 23  1  0  0  0  0
 23 24  1  0  0  0  0
 23 25  1  0  0  0  0
 23 26  1  0  0  0  0
M  END
$$$$

  -OEChem-01062216093D

 26 25  0     1  0  0  0  0  0999 V2000
   -3.2836   -3.0983    1.1751 H   0  0  0  0  0  0  0  0  0  0  0  0
   -3.1108   -2.0978    0.7681 C   0  0  0  0  0  0  0  0  0  0  0  0
   -3.6443   -1.3713    1.3859 H   0  0  0  0  0  0  0  0  0  0  0  0
   -3.5052   -2.0596   -0.2504 H   0  0  0  0  0  0  0  0  0  0  0  0
   -1.6264   -1.7839    0.7615 C   0  0  0  0  0  0  0  0  0  0  0  0
   -0.8339   -2.6720    1.0347 O   0  0  0  0  0  0  0  0  0  0  0  0
   -1.2078   -0.5534    0.2912 N   0  0  0  0  0  0  0  0  0  0  0  0
   -1.9584    0.0398   -0.0566 H   0  0  0  0  0  0  0  0  0  0  0  0
    0.1134    0.1192    0.3918 C   0  0  1  0  0  0  0  0  0  0  0  0
   -0.0686    0.9937    1.0237 H   0  0  0  0  0  0  0  0  0  0  0  0
    1.3031   -0.5854    1.0896 C   0  0  1  0  0  0  0  0  0  0  0  0
    2.1726    0.0728    0.9818 H   0  0  0  0  0  0  0  0  0  0  0  0
    1.1212   -0.7865    2.5980 C   0  0  0  0  0  0  0  0  0  0  0  0
    1.9974   -1.2954    3.0105 H   0  0  0  0  0  0  0  0  0  0  0  0
    0.2373   -1.3787    2.8373 H   0  0  0  0  0  0  0  0  0  0  0  0
    1.0223    0.1833    3.0942 H   0  0  0  0  0  0  0  0  0  0  0  0
    1.6265   -1.8036    0.4231 O   0  0  0  0  0  0  0  0  0  0  0  0
    0.8691   -2.4233    0.5634 H   0  0  0  0  0  0  0  0  0  0  0  0
    0.5042    0.7173   -0.9710 C   0  0  0  0  0  0  0  0  0  0  0  0
   -0.1366    1.6672   -1.4050 O   0  0  0  0  0  0  0  0  0  0  0  0
    1.4669    0.1206   -1.7620 N   0  0  0  0  0  0  0  0  0  0  0  0
    1.8953   -0.7279   -1.3857 H   0  0  0  0  0  0  0  0  0  0  0  0
    1.7944    0.5508   -3.1143 C   0  0  0  0  0  0  0  0  0  0  0  0
    2.1001    1.6023   -3.1184 H   0  0  0  0  0  0  0  0  0  0  0  0
    2.6189   -0.0494   -3.5108 H   0  0  0  0  0  0  0  0  0  0  0  0
    0.9290    0.4315   -3.7743 H   0  0  0  0  0  0  0  0  0  0  0  0
  1  2  1  0  0  0  0
  2  3  1  0  0  0  0
  2  4  1  0  0  0  0
  2  5  1  0  0  0  0
  5  6  2  0  0  0  0
  5  7  1  0  0  0  0
  7  8  1  0  0  0  0
  7  9  1  0  0  0  0
  9 10  1  0  0  0  0
  9 11  1  0  0  0  0
  9 19  1  0  0  0  0
 11 12  1  0  0  0  0
 11 13  1  0  0  0  0
 11 17  1  0  0  0  0
 13 14  1  0  0  0  0
 13 15  1  0  0  0  0
 13 16  1  0  0  0  0
 17 18  1  0  0  0  0
 19 20  2  0  0  0  0
 19 21  1  0  0  0  0
 21 22  1  0  0  0  0
 21 23  1  0  0  0  0
 23 24  1  0  0  0  0
 23 25  1  0  0  0  0
 23 26  1  0  0  0  0
M  END
$$$$

  -OEChem-01062216093D

 26 25  0     1  0  0  0  0  0999 V2000
   -3.2870   -3.1048    1.2543 H   0  0  0  0  0  0  0  0  0  0  0  0
   -3.1256   -2.1063    0.8379 C   0  0  0  0  0  0  0  0  0  0  0  0
   -3.6354   -1.3764    1.4715 H   0  0  0  0  0  0  0  0  0  0  0  0
   -3.5552   -2.0705   -0.1664 H   0  0  0  0  0  0  0  0  0  0  0  0
   -1.6414   -1.7968    0.7789 C   0  0  0  0  0  0  0  0  0  0  0  0
   -0.8422   -2.6831    1.0378 O   0  0  0  0  0  0  0  0  0  0  0  0
   -1.2355   -0.5723    0.2821 N   0  0  0  0  0  0  0  0  0  0  0  0
   -1.9985    0.0200   -0.0382 H   0  0  0  0  0  0  0  0  0  0  0  0
    0.0828    0.1094    0.3622 C   0  0  1  0  0  0  0  0  0  0  0  0
   -0.0974    0.9894    0.9877 H   0  0  0  0  0  0  0  0  0  0  0  0
    1.2822   -0.5850    1.0518 C   0  0  1  0  0  0  0  0  0  0  0  0
    2.1472    0.0760    0.9258 H   0  0  0  0  0  0  0  0  0  0  0  0
    1.1215   -0.7741    2.5640 C   0  0  0  0  0  0  0  0  0  0  0  0
    2.0094   -1.2679    2.9703 H   0  0  0  0  0  0  0  0  0  0  0  0
    0.2484   -1.3756    2.8197 H   0  0  0  0  0  0  0  0  0  0  0  0
    1.0171    0.1991    3.0525 H   0  0  0  0  0  0  0  0  0  0  0  0
    1.6035   -1.8071    0.3907 O   0  0  0  0  0  0  0  0  0  0  0  0
    0.8545   -2.4317    0.5526 H   0  0  0  0  0  0  0  0  0  0  0  0
    0.4718    0.6876   -1.0082 C   0  0  0  0  0  0  0  0  0  0  0  0
    0.0080    1.7674   -1.3530 O   0  0  0  0  0  0  0  0  0  0  0  0
    1.1951   -0.0669   -1.9108 N   0  0  0  0  0  0  0  0  0  0  0  0
    1.5772   -0.9453   -1.5550 H   0  0  0  0  0  0  0  0  0  0  0  0
    1.5769    0.3956   -3.2380 C   0  0  0  0  0  0  0  0  0  0  0  0
    2.2130    1.2837   -3.1648 H   0  0  0  0  0  0  0  0  0  0  0  0
    2.1319   -0.3866   -3.7649 H   0  0  0  0  0  0  0  0  0  0  0  0
    0.6883    0.6447   -3.8274 H   0  0  0  0  0  0  0  0  0  0  0  0
  1  2  1  0  0  0  0
  2  3  1  0  0  0  0
  2  4  1  0  0  0  0
  2  5  1  0  0  0  0
  5  6  2  0  0  0  0
  5  7  1  0  0  0  0
  7  8  1  0  0  0  0
  7  9  1  0  0  0  0
  9 10  1  0  0  0  0
  9 11  1  0  0  0  0
  9 19  1  0  0  0  0
 11 12  1  0  0  0  0
 11 13  1  0  0  0  0
 11 17  1  0  0  0  0
 13 14  1  0  0  0  0
 13 15  1  0  0  0  0
 13 16  1  0  0  0  0
 17 18  1  0  0  0  0
 19 20  2  0  0  0  0
 19 21  1  0  0  0  0
 21 22  1  0  0  0  0
 21 23  1  0  0  0  0
 23 24  1  0  0  0  0
 23 25  1  0  0  0  0
 23 26  1  0  0  0  0
M  END
$$$$

  -OEChem-01062216093D

 26 25  0     1  0  0  0  0  0999 V2000
   -3.2825   -3.1120    1.3093 H   0  0  0  0  0  0  0  0  0  0  0  0
   -3.1335   -2.1138    0.8876 C   0  0  0  0  0  0  0  0  0  0  0  0
   -3.6290   -1.3839    1.5324 H   0  0  0  0  0  0  0  0  0  0  0  0
   -3.5874   -2.0805   -0.1061 H   0  0  0  0  0  0  0  0  0  0  0  0
   -1.6519   -1.8014    0.7921 C   0  0  0  0  0  0  0  0  0  0  0  0
   -0.8451   -2.6872    1.0279 O   0  0  0  0  0  0  0  0  0  0  0  0
   -1.2598   -0.5789    0.2789 N   0  0  0  0  0  0  0  0  0  0  0  0
   -2.0347    0.0134   -0.0103 H   0  0  0  0  0  0  0  0  0  0  0  0
    0.0549    0.1134    0.3463 C   0  0  1  0  0  0  0  0  0  0  0  0
   -0.1254    0.9937    0.9716 H   0  0  0  0  0  0  0  0  0  0  0  0
    1.2648   -0.5746    1.0203 C   0  0  1  0  0  0  0  0  0  0  0  0
    2.1244    0.0917    0.8849 H   0  0  0  0  0  0  0  0  0  0  0  0
    1.1248   -0.7689    2.5339 C   0  0  0  0  0  0  0  0  0  0  0  0
    2.0226   -1.2549    2.9274 H   0  0  0  0  0  0  0  0  0  0  0  0
    0.2613   -1.3796    2.7996 H   0  0  0  0  0  0  0  0  0  0  0  0
    1.0169    0.2019    3.0262 H   0  0  0  0  0  0  0  0  0  0  0  0
    1.5829   -1.7919    0.3487 O   0  0  0  0  0  0  0  0  0  0  0  0
    0.8456   -2.4251    0.5283 H   0  0  0  0  0  0  0  0  0  0  0  0
    0.4417    0.6820   -1.0280 C   0  0  0  0  0  0  0  0  0  0  0  0
    0.2069    1.8565   -1.2825 O   0  0  0  0  0  0  0  0  0  0  0  0
    0.8892   -0.1628   -2.0249 N   0  0  0  0  0  0  0  0  0  0  0  0
    1.1770   -1.0915   -1.7139 H   0  0  0  0  0  0  0  0  0  0  0  0
    1.2993    0.2985   -3.3442 C   0  0  0  0  0  0  0  0  0  0  0  0
    2.1619    0.9681   -3.2641 H   0  0  0  0  0  0  0  0  0  0  0  0
    1.5771   -0.5540   -3.9716 H   0  0  0  0  0  0  0  0  0  0  0  0
    0.4803    0.8343   -3.8354 H   0  0  0  0  0  0  0  0  0  0  0  0
  1  2  1  0  0  0  0
  2  3  1  0  0  0  0
  2  4  1  0  0  0  0
  2  5  1  0  0  0  0
  5  6  2  0  0  0  0
  5  7  1  0  0  0  0
  7  8  1  0  0  0  0
  7  9  1  0  0  0  0
  9 10  1  0  0  0  0
  9 11  1  0  0  0  0
  9 19  1  0  0  0  0
 11 12  1  0  0  0  0
 11 13  1  0  0  0  0
 11 17  1  0  0  0  0
 13 14  1  0  0  0  0
 13 15  1  0  0  0  0
 13 16  1  0  0  0  0
 17 18  1  0  0  0  0
 19 20  2  0  0  0  0
 19 21  1  0  0  0  0
 21 22  1  0  0  0  0
 21 23  1  0  0  0  0
 23 24  1  0  0  0  0
 23 25  1  0  0  0  0
 23 26  1  0  0  0  0
M  END
$$$$

  -OEChem-01062216093D

 26 25  0     1  0  0  0  0  0999 V2000
   -3.2736   -3.1247    1.3489 H   0  0  0  0  0  0  0  0  0  0  0  0
   -3.1367   -2.1233    0.9308 C   0  0  0  0  0  0  0  0  0  0  0  0
   -3.6137   -1.3989    1.5953 H   0  0  0  0  0  0  0  0  0  0  0  0
   -3.6192   -2.0829   -0.0489 H   0  0  0  0  0  0  0  0  0  0  0  0
   -1.6585   -1.8096    0.7952 C   0  0  0  0  0  0  0  0  0  0  0  0
   -0.8448   -2.6963    1.0016 O   0  0  0  0  0  0  0  0  0  0  0  0
   -1.2803   -0.5858    0.2749 N   0  0  0  0  0  0  0  0  0  0  0  0
   -2.0653    0.0052    0.0124 H   0  0  0  0  0  0  0  0  0  0  0  0
    0.0298    0.1186    0.3370 C   0  0  1  0  0  0  0  0  0  0  0  0
   -0.1549    0.9959    0.9651 H   0  0  0  0  0  0  0  0  0  0  0  0
    1.2482   -0.5640    0.9984 C   0  0  1  0  0  0  0  0  0  0  0  0
    2.1030    0.1079    0.8612 H   0  0  0  0  0  0  0  0  0  0  0  0
    1.1201   -0.7710    2.5115 C   0  0  0  0  0  0  0  0  0  0  0  0
    2.0181   -1.2665    2.8927 H   0  0  0  0  0  0  0  0  0  0  0  0
    0.2547   -1.3781    2.7791 H   0  0  0  0  0  0  0  0  0  0  0  0
    1.0232    0.1962    3.0133 H   0  0  0  0  0  0  0  0  0  0  0  0
    1.5671   -1.7733    0.3145 O   0  0  0  0  0  0  0  0  0  0  0  0
    0.8390   -2.4148    0.4990 H   0  0  0  0  0  0  0  0  0  0  0  0
    0.4187    0.6883   -1.0361 C   0  0  0  0  0  0  0  0  0  0  0  0
    0.4514    1.9008   -1.2026 O   0  0  0  0  0  0  0  0  0  0  0  0
    0.5758   -0.1606   -2.1148 N   0  0  0  0  0  0  0  0  0  0  0  0
    0.6938   -1.1448   -1.8787 H   0  0  0  0  0  0  0  0  0  0  0  0
    1.0019    0.2973   -3.4305 C   0  0  0  0  0  0  0  0  0  0  0  0
    2.0042    0.7349   -3.3772 H   0  0  0  0  0  0  0  0  0  0  0  0
    1.0255   -0.5419   -4.1323 H   0  0  0  0  0  0  0  0  0  0  0  0
    0.3082    1.0502   -3.8188 H   0  0  0  0  0  0  0  0  0  0  0  0
  1  2  1  0  0  0  0
  2  3  1  0  0  0  0
  2  4  1  0  0  0  0
  2  5  1  0  0  0  0
  5  6  2  0  0  0  0
  5  7  1  0  0  0  0
  7  8  1  0  0  0  0
  7  9  1  0  0  0  0
  9 10  1  0  0  0  0
  9 11  1  0  0  0  0
  9 19  1  0  0  0  0
 11 12  1  0  0  0  0
 11 13  1  0  0  0  0
 11 17  1  0  0  0  0
 13 14  1  0  0  0  0
 13 15  1  0  0  0  0
 13 16  1  0  0  0  0
 17 18  1  0  0  0  0
 19 20  2  0  0  0  0
 19 21  1  0  0  0  0
 21 22  1  0  0  0  0
 21 23  1  0  0  0  0
 23 24  1  0  0  0  0
 23 25  1  0  0  0  0
 23 26  1  0  0  0  0
M  END
$$$$

  -OEChem-01062216093D

 26 25  0     1  0  0  0  0  0999 V2000
   -3.2550   -3.1392    1.3868 H   0  0  0  0  0  0  0  0  0  0  0  0
   -3.1321   -2.1360    0.9686 C   0  0  0  0  0  0  0  0  0  0  0  0
   -3.5901   -1.4147    1.6499 H   0  0  0  0  0  0  0  0  0  0  0  0
   -3.6435   -2.0923    0.0038 H   0  0  0  0  0  0  0  0  0  0  0  0
   -1.6586   -1.8202    0.7918 C   0  0  0  0  0  0  0  0  0  0  0  0
   -0.8386   -2.7071    0.9679 O   0  0  0  0  0  0  0  0  0  0  0  0
   -1.2948   -0.5927    0.2695 N   0  0  0  0  0  0  0  0  0  0  0  0
   -2.0885   -0.0010    0.0371 H   0  0  0  0  0  0  0  0  0  0  0  0
    0.0113    0.1221    0.3302 C   0  0  1  0  0  0  0  0  0  0  0  0
   -0.1799    0.9969    0.9596 H   0  0  0  0  0  0  0  0  0  0  0  0
    1.2368   -0.5532    0.9864 C   0  0  1  0  0  0  0  0  0  0  0  0
    2.0865    0.1260    0.8524 H   0  0  0  0  0  0  0  0  0  0  0  0
    1.1097   -0.7698    2.4983 C   0  0  0  0  0  0  0  0  0  0  0  0
    2.0144   -1.2537    2.8783 H   0  0  0  0  0  0  0  0  0  0  0  0
    0.2534   -1.3913    2.7614 H   0  0  0  0  0  0  0  0  0  0  0  0
    0.9980    0.1935    3.0044 H   0  0  0  0  0  0  0  0  0  0  0  0
    1.5639   -1.7574    0.2984 O   0  0  0  0  0  0  0  0  0  0  0  0
    0.8367   -2.4028    0.4701 H   0  0  0  0  0  0  0  0  0  0  0  0
    0.4026    0.6993   -1.0397 C   0  0  0  0  0  0  0  0  0  0  0  0
    0.7166    1.8787   -1.1343 O   0  0  0  0  0  0  0  0  0  0  0  0
    0.2709   -0.0726   -2.1790 N   0  0  0  0  0  0  0  0  0  0  0  0
    0.1703   -1.0725   -2.0193 H   0  0  0  0  0  0  0  0  0  0  0  0
    0.6960    0.3830   -3.4961 C   0  0  0  0  0  0  0  0  0  0  0  0
    1.7751    0.5687   -3.5064 H   0  0  0  0  0  0  0  0  0  0  0  0
    0.4663   -0.3760   -4.2501 H   0  0  0  0  0  0  0  0  0  0  0  0
    0.1765    1.3074   -3.7697 H   0  0  0  0  0  0  0  0  0  0  0  0
  1  2  1  0  0  0  0
  2  3  1  0  0  0  0
  2  4  1  0  0  0  0
  2  5  1  0  0  0  0
  5  6  2  0  0  0  0
  5  7  1  0  0  0  0
  7  8  1  0  0  0  0
  7  9  1  0  0  0  0
  9 10  1  0  0  0  0
  9 11  1  0  0  0  0
  9 19  1  0  0  0  0
 11 12  1  0  0  0  0
 11 13  1  0  0  0  0
 11 17  1  0  0  0  0
 13 14  1  0  0  0  0
 13 15  1  0  0  0  0
 13 16  1  0  0  0  0
 17 18  1  0  0  0  0
 19 20  2  0  0  0  0
 19 21  1  0  0  0  0
 21 22  1  0  0  0  0
 21 23  1  0  0  0  0
 23 24  1  0  0  0  0
 23 25  1  0  0  0  0
 23 26  1  0  0  0  0
M  END
$$$$

  -OEChem-01062216093D

 26 25  0     1  0  0  0  0  0999 V2000
   -3.2416   -3.1639    1.3721 H   0  0  0  0  0  0  0  0  0  0  0  0
   -3.1237   -2.1505    0.9771 C   0  0  0  0  0  0  0  0  0  0  0  0
   -3.5768   -1.4464    1.6794 H   0  0  0  0  0  0  0  0  0  0  0  0
   -3.6441   -2.0851    0.0182 H   0  0  0  0  0  0  0  0  0  0  0  0
   -1.6521   -1.8281    0.7952 C   0  0  0  0  0  0  0  0  0  0  0  0
   -0.8290   -2.7136    0.9610 O   0  0  0  0  0  0  0  0  0  0  0  0
   -1.2968   -0.5976    0.2735 N   0  0  0  0  0  0  0  0  0  0  0  0
   -2.0957   -0.0060    0.0598 H   0  0  0  0  0  0  0  0  0  0  0  0
    0.0077    0.1239    0.3286 C   0  0  1  0  0  0  0  0  0  0  0  0
   -0.1863    0.9987    0.9569 H   0  0  0  0  0  0  0  0  0  0  0  0
    1.2374   -0.5463    0.9842 C   0  0  1  0  0  0  0  0  0  0  0  0
    2.0858    0.1348    0.8503 H   0  0  0  0  0  0  0  0  0  0  0  0
    1.1112   -0.7619    2.4959 C   0  0  0  0  0  0  0  0  0  0  0  0
    2.0184   -1.2411    2.8760 H   0  0  0  0  0  0  0  0  0  0  0  0
    0.2581   -1.3878    2.7593 H   0  0  0  0  0  0  0  0  0  0  0  0
    0.9950    0.2014    3.0010 H   0  0  0  0  0  0  0  0  0  0  0  0
    1.5687   -1.7510    0.3000 O   0  0  0  0  0  0  0  0  0  0  0  0
    0.8407   -2.3970    0.4642 H   0  0  0  0  0  0  0  0  0  0  0  0
    0.3964    0.7096   -1.0399 C   0  0  0  0  0  0  0  0  0  0  0  0
    0.9554    1.7971   -1.0986 O   0  0  0  0  0  0  0  0  0  0  0  0
   -0.0106    0.0846   -2.2048 N   0  0  0  0  0  0  0  0  0  0  0  0
   -0.3269   -0.8761   -2.0997 H   0  0  0  0  0  0  0  0  0  0  0  0
    0.3814    0.5491   -3.5295 C   0  0  0  0  0  0  0  0  0  0  0  0
    1.4699    0.5106   -3.6419 H   0  0  0  0  0  0  0  0  0  0  0  0
   -0.0702   -0.0827   -4.3003 H   0  0  0  0  0  0  0  0  0  0  0  0
    0.0465    1.5792   -3.6900 H   0  0  0  0  0  0  0  0  0  0  0  0
  1  2  1  0  0  0  0
  2  3  1  0  0  0  0
  2  4  1  0  0  0  0
  2  5  1  0  0  0  0
  5  6  2  0  0  0  0
  5  7  1  0  0  0  0
  7  8  1  0  0  0  0
  7  9  1  0  0  0  0
  9 10  1  0  0  0  0
  9 11  1  0  0  0  0
  9 19  1  0  0  0  0
 11 12  1  0  0  0  0
 11 13  1  0  0  0  0
 11 17  1  0  0  0  0
 13 14  1  0  0  0  0
 13 15  1  0  0  0  0
 13 16  1  0  0  0  0
 17 18  1  0  0  0  0
 19 20  2  0  0  0  0
 19 21  1  0  0  0  0
 21 22  1  0  0  0  0
 21 23  1  0  0  0  0
 23 24  1  0  0  0  0
 23 25  1  0  0  0  0
 23 26  1  0  0  0  0
M  END
$$$$

  -OEChem-01062216093D

 26 25  0     1  0  0  0  0  0999 V2000
   -3.2332   -3.1946    1.3041 H   0  0  0  0  0  0  0  0  0  0  0  0
   -3.1122   -2.1534    0.9911 C   0  0  0  0  0  0  0  0  0  0  0  0
   -3.5258   -1.5043    1.7669 H   0  0  0  0  0  0  0  0  0  0  0  0
   -3.6674   -2.0002    0.0623 H   0  0  0  0  0  0  0  0  0  0  0  0
   -1.6431   -1.8372    0.7807 C   0  0  0  0  0  0  0  0  0  0  0  0
   -0.8203   -2.7250    0.9318 O   0  0  0  0  0  0  0  0  0  0  0  0
   -1.2930   -0.6045    0.2604 N   0  0  0  0  0  0  0  0  0  0  0  0
   -2.0959   -0.0093    0.0737 H   0  0  0  0  0  0  0  0  0  0  0  0
    0.0085    0.1246    0.3210 C   0  0  1  0  0  0  0  0  0  0  0  0
   -0.1923    1.0000    0.9459 H   0  0  0  0  0  0  0  0  0  0  0  0
    1.2356   -0.5435    0.9879 C   0  0  1  0  0  0  0  0  0  0  0  0
    2.0850    0.1381    0.8649 H   0  0  0  0  0  0  0  0  0  0  0  0
    1.0932   -0.7619    2.4980 C   0  0  0  0  0  0  0  0  0  0  0  0
    2.0049   -1.2225    2.8903 H   0  0  0  0  0  0  0  0  0  0  0  0
    0.2502   -1.4065    2.7493 H   0  0  0  0  0  0  0  0  0  0  0  0
    0.9504    0.1982    3.0024 H   0  0  0  0  0  0  0  0  0  0  0  0
    1.5755   -1.7489    0.3093 O   0  0  0  0  0  0  0  0  0  0  0  0
    0.8411   -2.3921    0.4547 H   0  0  0  0  0  0  0  0  0  0  0  0
    0.4041    0.7153   -1.0457 C   0  0  0  0  0  0  0  0  0  0  0  0
    1.1507    1.6842   -1.0977 O   0  0  0  0  0  0  0  0  0  0  0  0
   -0.2311    0.2893   -2.1993 N   0  0  0  0  0  0  0  0  0  0  0  0
   -0.7185   -0.5997   -2.1287 H   0  0  0  0  0  0  0  0  0  0  0  0
    0.1171    0.7885   -3.5238 C   0  0  0  0  0  0  0  0  0  0  0  0
    1.1646    0.5663   -3.7530 H   0  0  0  0  0  0  0  0  0  0  0  0
   -0.5129    0.3158   -4.2834 H   0  0  0  0  0  0  0  0  0  0  0  0
   -0.0337    1.8718   -3.5778 H   0  0  0  0  0  0  0  0  0  0  0  0
  1  2  1  0  0  0  0
  2  3  1  0  0  0  0
  2  4  1  0  0  0  0
  2  5  1  0  0  0  0
  5  6  2  0  0  0  0
  5  7  1  0  0  0  0
  7  8  1  0  0  0  0
  7  9  1  0  0  0  0
  9 10  1  0  0  0  0
  9 11  1  0  0  0  0
  9 19  1  0  0  0  0
 11 12  1  0  0  0  0
 11 13  1  0  0  0  0
 11 17  1  0  0  0  0
 13 14  1  0  0  0  0
 13 15  1  0  0  0  0
 13 16  1  0  0  0  0
 17 18  1  0  0  0  0
 19 20  2  0  0  0  0
 19 21  1  0  0  0  0
 21 22  1  0  0  0  0
 21 23  1  0  0  0  0
 23 24  1  0  0  0  0
 23 25  1  0  0  0  0
 23 26  1  0  0  0  0
M  END
$$$$

  -OEChem-01062216093D

 26 25  0     1  0  0  0  0  0999 V2000
   -3.3328   -3.0043    1.4514 H   0  0  0  0  0  0  0  0  0  0  0  0
   -3.1701   -2.0070    1.0320 C   0  0  0  0  0  0  0  0  0  0  0  0
   -3.5557   -1.2655    1.7360 H   0  0  0  0  0  0  0  0  0  0  0  0
   -3.7200   -1.9282    0.0909 H   0  0  0  0  0  0  0  0  0  0  0  0
   -1.6899   -1.7758    0.7911 C   0  0  0  0  0  0  0  0  0  0  0  0
   -0.9201   -2.7135    0.9165 O   0  0  0  0  0  0  0  0  0  0  0  0
   -1.2811   -0.5589    0.2746 N   0  0  0  0  0  0  0  0  0  0  0  0
   -2.0527    0.0882    0.1357 H   0  0  0  0  0  0  0  0  0  0  0  0
    0.0621    0.0947    0.3094 C   0  0  1  0  0  0  0  0  0  0  0  0
   -0.0737    0.9758    0.9433 H   0  0  0  0  0  0  0  0  0  0  0  0
    1.2585   -0.6529    0.9529 C   0  0  1  0  0  0  0  0  0  0  0  0
    2.1488   -0.0277    0.8228 H   0  0  0  0  0  0  0  0  0  0  0  0
    1.1245   -0.8686    2.4644 C   0  0  0  0  0  0  0  0  0  0  0  0
    1.0485    0.0963    2.9739 H   0  0  0  0  0  0  0  0  0  0  0  0
    2.0118   -1.3861    2.8412 H   0  0  0  0  0  0  0  0  0  0  0  0
    0.2473   -1.4611    2.7263 H   0  0  0  0  0  0  0  0  0  0  0  0
    1.5130   -1.8753    0.2666 O   0  0  0  0  0  0  0  0  0  0  0  0
    0.7399   -2.4707    0.4145 H   0  0  0  0  0  0  0  0  0  0  0  0
    0.4605    0.6796   -1.0623 C   0  0  0  0  0  0  0  0  0  0  0  0
    1.4090    1.4487   -1.1494 O   0  0  0  0  0  0  0  0  0  0  0  0
   -0.3944    0.5590   -2.1455 N   0  0  0  0  0  0  0  0  0  0  0  0
   -1.0748   -0.1928   -2.0863 H   0  0  0  0  0  0  0  0  0  0  0  0
   -0.0849    1.1117   -3.4591 C   0  0  0  0  0  0  0  0  0  0  0  0
    0.8383    0.6727   -3.8516 H   0  0  0  0  0  0  0  0  0  0  0  0
   -0.8970    0.8984   -4.1605 H   0  0  0  0  0  0  0  0  0  0  0  0
    0.0399    2.1980   -3.3990 H   0  0  0  0  0  0  0  0  0  0  0  0
  1  2  1  0  0  0  0
  2  3  1  0  0  0  0
  2  4  1  0  0  0  0
  2  5  1  0  0  0  0
  5  6  2  0  0  0  0
  5  7  1  0  0  0  0
  7  8  1  0  0  0  0
  7  9  1  0  0  0  0
  9 10  1  0  0  0  0
  9 11  1  0  0  0  0
  9 19  1  0  0  0  0
 11 12  1  0  0  0  0
 11 13  1  0  0  0  0
 11 17  1  0  0  0  0
 13 14  1  0  0  0  0
 13 15  1  0  0  0  0
 13 16  1  0  0  0  0
 17 18  1  0  0  0  0
 19 20  2  0  0  0  0
 19 21  1  0  0  0  0
 21 22  1  0  0  0  0
 21 23  1  0  0  0  0
 23 24  1  0  0  0  0
 23 25  1  0  0  0  0
 23 26  1  0  0  0  0
M  END
$$$$

  -OEChem-01062216093D

 26 25  0     1  0  0  0  0  0999 V2000
   -3.4827   -2.9655    1.2278 H   0  0  0  0  0  0  0  0  0  0  0  0
   -3.2571   -1.9862    0.7954 C   0  0  0  0  0  0  0  0  0  0  0  0
   -3.8431   -1.2283    1.3210 H   0  0  0  0  0  0  0  0  0  0  0  0
   -3.5451   -1.9964   -0.2585 H   0  0  0  0  0  0  0  0  0  0  0  0
   -1.7751   -1.6824    0.9278 C   0  0  0  0  0  0  0  0  0  0  0  0
   -1.0846   -2.4953    1.5121 O   0  0  0  0  0  0  0  0  0  0  0  0
   -1.3192   -0.4923    0.3800 N   0  0  0  0  0  0  0  0  0  0  0  0
   -2.0692    0.0832    0.0116 H   0  0  0  0  0  0  0  0  0  0  0  0
    0.0230    0.1676    0.3894 C   0  0  1  0  0  0  0  0  0  0  0  0
   -0.0702    1.0504    1.0281 H   0  0  0  0  0  0  0  0  0  0  0  0
    1.2389   -0.6306    0.9344 C   0  0  1  0  0  0  0  0  0  0  0  0
    2.1340   -0.0113    0.8098 H   0  0  0  0  0  0  0  0  0  0  0  0
    1.1696   -0.9334    2.4376 C   0  0  0  0  0  0  0  0  0  0  0  0
    1.9630   -0.3948    2.9639 H   0  0  0  0  0  0  0  0  0  0  0  0
    1.2978   -2.0036    2.6263 H   0  0  0  0  0  0  0  0  0  0  0  0
    0.2122   -0.6182    2.8623 H   0  0  0  0  0  0  0  0  0  0  0  0
    1.4438   -1.8092    0.1493 O   0  0  0  0  0  0  0  0  0  0  0  0
    2.0706   -2.4053    0.5913 H   0  0  0  0  0  0  0  0  0  0  0  0
    0.3926    0.6938   -1.0195 C   0  0  0  0  0  0  0  0  0  0  0  0
    1.4467    1.2921   -1.2029 O   0  0  0  0  0  0  0  0  0  0  0  0
   -0.5829    0.8003   -1.9997 N   0  0  0  0  0  0  0  0  0  0  0  0
   -1.3564    0.1502   -1.9133 H   0  0  0  0  0  0  0  0  0  0  0  0
   -0.3128    1.3633   -3.3182 C   0  0  0  0  0  0  0  0  0  0  0  0
    0.4597    0.7821   -3.8327 H   0  0  0  0  0  0  0  0  0  0  0  0
   -1.2214    1.3500   -3.9275 H   0  0  0  0  0  0  0  0  0  0  0  0
    0.0261    2.4011   -3.2312 H   0  0  0  0  0  0  0  0  0  0  0  0
  1  2  1  0  0  0  0
  2  3  1  0  0  0  0
  2  4  1  0  0  0  0
  2  5  1  0  0  0  0
  5  6  2  0  0  0  0
  5  7  1  0  0  0  0
  7  8  1  0  0  0  0
  7  9  1  0  0  0  0
  9 10  1  0  0  0  0
  9 11  1  0  0  0  0
  9 19  1  0  0  0  0
 11 12  1  0  0  0  0
 11 13  1  0  0  0  0
 11 17  1  0  0  0  0
 13 14  1  0  0  0  0
 13 15  1  0  0  0  0
 13 16  1  0  0  0  0
 17 18  1  0  0  0  0
 19 20  2  0  0  0  0
 19 21  1  0  0  0  0
 21 22  1  0  0  0  0
 21 23  1  0  0  0  0
 23 24  1  0  0  0  0
 23 25  1  0  0  0  0
 23 26  1  0  0  0  0
M  END
$$$$

  -OEChem-01062216093D

 26 25  0     1  0  0  0  0  0999 V2000
   -3.4836   -2.9563    1.2323 H   0  0  0  0  0  0  0  0  0  0  0  0
   -3.2473   -1.9942    0.7680 C   0  0  0  0  0  0  0  0  0  0  0  0
   -3.8492   -1.2180    1.2466 H   0  0  0  0  0  0  0  0  0  0  0  0
   -3.5045   -2.0466   -0.2926 H   0  0  0  0  0  0  0  0  0  0  0  0
   -1.7700   -1.6823    0.9292 C   0  0  0  0  0  0  0  0  0  0  0  0
   -1.0915   -2.4863    1.5398 O   0  0  0  0  0  0  0  0  0  0  0  0
   -1.3117   -0.4914    0.3834 N   0  0  0  0  0  0  0  0  0  0  0  0
   -2.0607    0.0730    0.0009 H   0  0  0  0  0  0  0  0  0  0  0  0
    0.0366    0.1570    0.3781 C   0  0  1  0  0  0  0  0  0  0  0  0
   -0.0469    1.0412    1.0160 H   0  0  0  0  0  0  0  0  0  0  0  0
    1.2426   -0.6490    0.9372 C   0  0  1  0  0  0  0  0  0  0  0  0
    2.1472   -0.0457    0.8044 H   0  0  0  0  0  0  0  0  0  0  0  0
    1.1703   -0.9227    2.4460 C   0  0  0  0  0  0  0  0  0  0  0  0
    1.9378   -0.3436    2.9678 H   0  0  0  0  0  0  0  0  0  0  0  0
    1.3371   -1.9835    2.6566 H   0  0  0  0  0  0  0  0  0  0  0  0
    0.1985   -0.6357    2.8574 H   0  0  0  0  0  0  0  0  0  0  0  0
    1.4317   -1.8441    0.1737 O   0  0  0  0  0  0  0  0  0  0  0  0
    2.0835   -2.4216    0.6031 H   0  0  0  0  0  0  0  0  0  0  0  0
    0.3912    0.6922   -1.0352 C   0  0  0  0  0  0  0  0  0  0  0  0
    1.5338    1.0268   -1.3267 O   0  0  0  0  0  0  0  0  0  0  0  0
   -0.6187    1.1091   -1.8912 N   0  0  0  0  0  0  0  0  0  0  0  0
   -1.5433    0.7352   -1.7186 H   0  0  0  0  0  0  0  0  0  0  0  0
   -0.3556    1.7045   -3.1974 C   0  0  0  0  0  0  0  0  0  0  0  0
    0.1975    1.0053   -3.8335 H   0  0  0  0  0  0  0  0  0  0  0  0
   -1.2973    1.9556   -3.6947 H   0  0  0  0  0  0  0  0  0  0  0  0
    0.2310    2.6231   -3.0903 H   0  0  0  0  0  0  0  0  0  0  0  0
  1  2  1  0  0  0  0
  2  3  1  0  0  0  0
  2  4  1  0  0  0  0
  2  5  1  0  0  0  0
  5  6  2  0  0  0  0
  5  7  1  0  0  0  0
  7  8  1  0  0  0  0
  7  9  1  0  0  0  0
  9 10  1  0  0  0  0
  9 11  1  0  0  0  0
  9 19  1  0  0  0  0
 11 12  1  0  0  0  0
 11 13  1  0  0  0  0
 11 17  1  0  0  0  0
 13 14  1  0  0  0  0
 13 15  1  0  0  0  0
 13 16  1  0  0  0  0
 17 18  1  0  0  0  0
 19 20  2  0  0  0  0
 19 21  1  0  0  0  0
 21 22  1  0  0  0  0
 21 23  1  0  0  0  0
 23 24  1  0  0  0  0
 23 25  1  0  0  0  0
 23 26  1  0  0  0  0
M  END
$$$$

  -OEChem-01062216093D

 26 25  0     1  0  0  0  0  0999 V2000
   -3.0336   -3.0439    1.2487 H   0  0  0  0  0  0  0  0  0  0  0  0
   -2.7624   -2.2387    0.5603 C   0  0  0  0  0  0  0  0  0  0  0  0
   -3.6749   -1.7528    0.2075 H   0  0  0  0  0  0  0  0  0  0  0  0
   -2.2319   -2.6713   -0.2918 H   0  0  0  0  0  0  0  0  0  0  0  0
   -1.8705   -1.2321    1.2616 C   0  0  0  0  0  0  0  0  0  0  0  0
   -1.7811   -1.2556    2.4766 O   0  0  0  0  0  0  0  0  0  0  0  0
   -1.4246   -0.1256    0.5707 N   0  0  0  0  0  0  0  0  0  0  0  0
   -1.8933   -0.0884   -0.3296 H   0  0  0  0  0  0  0  0  0  0  0  0
    0.0014    0.2793    0.4409 C   0  0  1  0  0  0  0  0  0  0  0  0
    0.1350    1.1848    1.0394 H   0  0  0  0  0  0  0  0  0  0  0  0
    1.0852   -0.7372    0.9195 C   0  0  1  0  0  0  0  0  0  0  0  0
    2.0504   -0.2751    0.6834 H   0  0  0  0  0  0  0  0  0  0  0  0
    1.1532   -1.0329    2.4189 C   0  0  0  0  0  0  0  0  0  0  0  0
    2.1913   -1.2060    2.7171 H   0  0  0  0  0  0  0  0  0  0  0  0
    0.5842   -1.9311    2.6719 H   0  0  0  0  0  0  0  0  0  0  0  0
    0.7668   -0.1892    2.9985 H   0  0  0  0  0  0  0  0  0  0  0  0
    0.9971   -1.9564    0.1727 O   0  0  0  0  0  0  0  0  0  0  0  0
    1.7967   -2.4930    0.3082 H   0  0  0  0  0  0  0  0  0  0  0  0
    0.2776    0.6690   -1.0344 C   0  0  0  0  0  0  0  0  0  0  0  0
    1.3176    0.4111   -1.6284 O   0  0  0  0  0  0  0  0  0  0  0  0
   -0.6493    1.4764   -1.6759 N   0  0  0  0  0  0  0  0  0  0  0  0
   -1.3937    1.8627   -1.1017 H   0  0  0  0  0  0  0  0  0  0  0  0
   -0.4331    2.0417   -3.0036 C   0  0  0  0  0  0  0  0  0  0  0  0
   -0.2436    1.2471   -3.7332 H   0  0  0  0  0  0  0  0  0  0  0  0
   -1.3182    2.5988   -3.3257 H   0  0  0  0  0  0  0  0  0  0  0  0
    0.4232    2.7243   -2.9952 H   0  0  0  0  0  0  0  0  0  0  0  0
  1  2  1  0  0  0  0
  2  3  1  0  0  0  0
  2  4  1  0  0  0  0
  2  5  1  0  0  0  0
  5  6  2  0  0  0  0
  5  7  1  0  0  0  0
  7  8  1  0  0  0  0
  7  9  1  0  0  0  0
  9 10  1  0  0  0  0
  9 11  1  0  0  0  0
  9 19  1  0  0  0  0
 11 12  1  0  0  0  0
 11 13  1  0  0  0  0
 11 17  1  0  0  0  0
 13 14  1  0  0  0  0
 13 15  1  0  0  0  0
 13 16  1  0  0  0  0
 17 18  1  0  0  0  0
 19 20  2  0  0  0  0
 19 21  1  0  0  0  0
 21 22  1  0  0  0  0
 21 23  1  0  0  0  0
 23 24  1  0  0  0  0
 23 25  1  0  0  0  0
 23 26  1  0  0  0  0
M  END
$$$$

  -OEChem-01062216093D

 26 25  0     1  0  0  0  0  0999 V2000
   -3.0613   -3.0373    1.2418 H   0  0  0  0  0  0  0  0  0  0  0  0
   -2.7739   -2.2374    0.5537 C   0  0  0  0  0  0  0  0  0  0  0  0
   -3.6770   -1.7406    0.1918 H   0  0  0  0  0  0  0  0  0  0  0  0
   -2.2414   -2.6786   -0.2928 H   0  0  0  0  0  0  0  0  0  0  0  0
   -1.8743   -1.2411    1.2600 C   0  0  0  0  0  0  0  0  0  0  0  0
   -1.7685   -1.2846    2.4733 O   0  0  0  0  0  0  0  0  0  0  0  0
   -1.4351   -0.1239    0.5820 N   0  0  0  0  0  0  0  0  0  0  0  0
   -1.9225   -0.0587   -0.3069 H   0  0  0  0  0  0  0  0  0  0  0  0
   -0.0104    0.2748    0.4376 C   0  0  1  0  0  0  0  0  0  0  0  0
    0.1303    1.1731    1.0453 H   0  0  0  0  0  0  0  0  0  0  0  0
    1.0775   -0.7401    0.9095 C   0  0  1  0  0  0  0  0  0  0  0  0
    2.0363   -0.2762    0.6512 H   0  0  0  0  0  0  0  0  0  0  0  0
    1.1654   -1.0184    2.4112 C   0  0  0  0  0  0  0  0  0  0  0  0
    2.2081   -1.1810    2.6987 H   0  0  0  0  0  0  0  0  0  0  0  0
    0.6054   -1.9176    2.6800 H   0  0  0  0  0  0  0  0  0  0  0  0
    0.7794   -0.1718    2.9867 H   0  0  0  0  0  0  0  0  0  0  0  0
    0.9916   -1.9682    0.1779 O   0  0  0  0  0  0  0  0  0  0  0  0
    1.7967   -2.4970    0.3085 H   0  0  0  0  0  0  0  0  0  0  0  0
    0.2486    0.6900   -1.0323 C   0  0  0  0  0  0  0  0  0  0  0  0
    1.1321    0.2246   -1.7409 O   0  0  0  0  0  0  0  0  0  0  0  0
   -0.4921    1.7474   -1.5348 N   0  0  0  0  0  0  0  0  0  0  0  0
   -1.1318    2.2113   -0.8952 H   0  0  0  0  0  0  0  0  0  0  0  0
   -0.2701    2.3334   -2.8521 C   0  0  0  0  0  0  0  0  0  0  0  0
   -0.3768    1.5733   -3.6332 H   0  0  0  0  0  0  0  0  0  0  0  0
   -1.0009    3.1254   -3.0412 H   0  0  0  0  0  0  0  0  0  0  0  0
    0.7340    2.7657   -2.9157 H   0  0  0  0  0  0  0  0  0  0  0  0
  1  2  1  0  0  0  0
  2  3  1  0  0  0  0
  2  4  1  0  0  0  0
  2  5  1  0  0  0  0
  5  6  2  0  0  0  0
  5  7  1  0  0  0  0
  7  8  1  0  0  0  0
  7  9  1  0  0  0  0
  9 10  1  0  0  0  0
  9 11  1  0  0  0  0
  9 19  1  0  0  0  0
 11 12  1  0  0  0  0
 11 13  1  0  0  0  0
 11 17  1  0  0  0  0
 13 14  1  0  0  0  0
 13 15  1  0  0  0  0
 13 16  1  0  0  0  0
 17 18  1  0  0  0  0
 19 20  2  0  0  0  0
 19 21  1  0  0  0  0
 21 22  1  0  0  0  0
 21 23  1  0  0  0  0
 23 24  1  0  0  0  0
 23 25  1  0  0  0  0
 23 26  1  0  0  0  0
M  END
$$$$

  -OEChem-01062216093D

 26 25  0     1  0  0  0  0  0999 V2000
   -3.0920   -3.0427    1.2001 H   0  0  0  0  0  0  0  0  0  0  0  0
   -2.8079   -2.2261    0.5305 C   0  0  0  0  0  0  0  0  0  0  0  0
   -3.7112   -1.7041    0.2065 H   0  0  0  0  0  0  0  0  0  0  0  0
   -2.3032   -2.6489   -0.3420 H   0  0  0  0  0  0  0  0  0  0  0  0
   -1.8755   -1.2664    1.2449 C   0  0  0  0  0  0  0  0  0  0  0  0
   -1.7320   -1.3595    2.4514 O   0  0  0  0  0  0  0  0  0  0  0  0
   -1.4432   -0.1308    0.5936 N   0  0  0  0  0  0  0  0  0  0  0  0
   -1.9420   -0.0352   -0.2865 H   0  0  0  0  0  0  0  0  0  0  0  0
   -0.0218    0.2723    0.4488 C   0  0  1  0  0  0  0  0  0  0  0  0
    0.1110    1.1579    1.0761 H   0  0  0  0  0  0  0  0  0  0  0  0
    1.0836   -0.7286    0.9099 C   0  0  1  0  0  0  0  0  0  0  0  0
    2.0297   -0.2471    0.6376 H   0  0  0  0  0  0  0  0  0  0  0  0
    1.1924   -0.9980    2.4124 C   0  0  0  0  0  0  0  0  0  0  0  0
    2.2410   -1.1390    2.6895 H   0  0  0  0  0  0  0  0  0  0  0  0
    0.6530   -1.9064    2.6920 H   0  0  0  0  0  0  0  0  0  0  0  0
    0.7956   -0.1569    2.9886 H   0  0  0  0  0  0  0  0  0  0  0  0
    1.0240   -1.9611    0.1846 O   0  0  0  0  0  0  0  0  0  0  0  0
    1.8282   -2.4858    0.3334 H   0  0  0  0  0  0  0  0  0  0  0  0
    0.2339    0.7279   -1.0083 C   0  0  0  0  0  0  0  0  0  0  0  0
    0.8426    0.0729   -1.8432 O   0  0  0  0  0  0  0  0  0  0  0  0
   -0.2494    1.9690   -1.3874 N   0  0  0  0  0  0  0  0  0  0  0  0
   -0.7298    2.5204   -0.6813 H   0  0  0  0  0  0  0  0  0  0  0  0
   -0.0447    2.5462   -2.7113 C   0  0  0  0  0  0  0  0  0  0  0  0
   -0.4738    1.8988   -3.4833 H   0  0  0  0  0  0  0  0  0  0  0  0
   -0.5282    3.5257   -2.7750 H   0  0  0  0  0  0  0  0  0  0  0  0
    1.0243    2.6742   -2.9121 H   0  0  0  0  0  0  0  0  0  0  0  0
  1  2  1  0  0  0  0
  2  3  1  0  0  0  0
  2  4  1  0  0  0  0
  2  5  1  0  0  0  0
  5  6  2  0  0  0  0
  5  7  1  0  0  0  0
  7  8  1  0  0  0  0
  7  9  1  0  0  0  0
  9 10  1  0  0  0  0
  9 11  1  0  0  0  0
  9 19  1  0  0  0  0
 11 12  1  0  0  0  0
 11 13  1  0  0  0  0
 11 17  1  0  0  0  0
 13 14  1  0  0  0  0
 13 15  1  0  0  0  0
 13 16  1  0  0  0  0
 17 18  1  0  0  0  0
 19 20  2  0  0  0  0
 19 21  1  0  0  0  0
 21 22  1  0  0  0  0
 21 23  1  0  0  0  0
 23 24  1  0  0  0  0
 23 25  1  0  0  0  0
 23 26  1  0  0  0  0
M  END
$$$$

  -OEChem-01062216093D

 26 25  0     1  0  0  0  0  0999 V2000
   -3.0935   -3.0389    1.0942 H   0  0  0  0  0  0  0  0  0  0  0  0
   -2.8264   -2.1846    0.4660 C   0  0  0  0  0  0  0  0  0  0  0  0
   -3.7367   -1.6419    0.2008 H   0  0  0  0  0  0  0  0  0  0  0  0
   -2.3501   -2.5551   -0.4455 H   0  0  0  0  0  0  0  0  0  0  0  0
   -1.8699   -1.2701    1.2072 C   0  0  0  0  0  0  0  0  0  0  0  0
   -1.7072   -1.4196    2.4056 O   0  0  0  0  0  0  0  0  0  0  0  0
   -1.4218   -0.1226    0.5894 N   0  0  0  0  0  0  0  0  0  0  0  0
   -1.8942   -0.0126   -0.3043 H   0  0  0  0  0  0  0  0  0  0  0  0
   -0.0001    0.2837    0.4866 C   0  0  1  0  0  0  0  0  0  0  0  0
    0.1095    1.1574    1.1347 H   0  0  0  0  0  0  0  0  0  0  0  0
    1.1198   -0.7033    0.9391 C   0  0  1  0  0  0  0  0  0  0  0  0
    2.0590   -0.1950    0.6935 H   0  0  0  0  0  0  0  0  0  0  0  0
    1.2087   -1.0053    2.4366 C   0  0  0  0  0  0  0  0  0  0  0  0
    2.2546   -1.1405    2.7270 H   0  0  0  0  0  0  0  0  0  0  0  0
    0.6761   -1.9261    2.6873 H   0  0  0  0  0  0  0  0  0  0  0  0
    0.7930   -0.1822    3.0255 H   0  0  0  0  0  0  0  0  0  0  0  0
    1.1045   -1.9202    0.1892 O   0  0  0  0  0  0  0  0  0  0  0  0
    1.8716   -2.4733    0.4119 H   0  0  0  0  0  0  0  0  0  0  0  0
    0.2762    0.7642   -0.9558 C   0  0  0  0  0  0  0  0  0  0  0  0
    0.4311   -0.0035   -1.8956 O   0  0  0  0  0  0  0  0  0  0  0  0
    0.0941    2.1060   -1.2465 N   0  0  0  0  0  0  0  0  0  0  0  0
   -0.1384    2.7266   -0.4761 H   0  0  0  0  0  0  0  0  0  0  0  0
    0.1679    2.6584   -2.5945 C   0  0  0  0  0  0  0  0  0  0  0  0
   -0.6278    2.2446   -3.2227 H   0  0  0  0  0  0  0  0  0  0  0  0
    0.0547    3.7463   -2.5638 H   0  0  0  0  0  0  0  0  0  0  0  0
    1.1354    2.4260   -3.0519 H   0  0  0  0  0  0  0  0  0  0  0  0
  1  2  1  0  0  0  0
  2  3  1  0  0  0  0
  2  4  1  0  0  0  0
  2  5  1  0  0  0  0
  5  6  2  0  0  0  0
  5  7  1  0  0  0  0
  7  8  1  0  0  0  0
  7  9  1  0  0  0  0
  9 10  1  0  0  0  0
  9 11  1  0  0  0  0
  9 19  1  0  0  0  0
 11 12  1  0  0  0  0
 11 13  1  0  0  0  0
 11 17  1  0  0  0  0
 13 14  1  0  0  0  0
 13 15  1  0  0  0  0
 13 16  1  0  0  0  0
 17 18  1  0  0  0  0
 19 20  2  0  0  0  0
 19 21  1  0  0  0  0
 21 22  1  0  0  0  0
 21 23  1  0  0  0  0
 23 24  1  0  0  0  0
 23 25  1  0  0  0  0
 23 26  1  0  0  0  0
M  END
$$$$

  -OEChem-01062216093D

 26 25  0     1  0  0  0  0  0999 V2000
   -3.2666   -3.1532    1.1382 H   0  0  0  0  0  0  0  0  0  0  0  0
   -3.1064   -2.1622    0.7035 C   0  0  0  0  0  0  0  0  0  0  0  0
   -3.7100   -1.4367    1.2540 H   0  0  0  0  0  0  0  0  0  0  0  0
   -3.4301   -2.1802   -0.3402 H   0  0  0  0  0  0  0  0  0  0  0  0
   -1.6382   -1.7866    0.7833 C   0  0  0  0  0  0  0  0  0  0  0  0
   -0.8405   -2.6276    1.1630 O   0  0  0  0  0  0  0  0  0  0  0  0
   -1.2457   -0.5507    0.3017 N   0  0  0  0  0  0  0  0  0  0  0  0
   -1.9842   -0.0367   -0.1701 H   0  0  0  0  0  0  0  0  0  0  0  0
    0.0856    0.1119    0.3309 C   0  0  1  0  0  0  0  0  0  0  0  0
   -0.0864    0.9749    0.9790 H   0  0  0  0  0  0  0  0  0  0  0  0
    1.3078   -0.5616    1.0023 C   0  0  1  0  0  0  0  0  0  0  0  0
    2.1678    0.0939    0.8257 H   0  0  0  0  0  0  0  0  0  0  0  0
    1.1960   -0.6968    2.5255 C   0  0  0  0  0  0  0  0  0  0  0  0
    2.0734   -1.2222    2.9147 H   0  0  0  0  0  0  0  0  0  0  0  0
    0.3046   -1.2457    2.8310 H   0  0  0  0  0  0  0  0  0  0  0  0
    1.1573    0.2938    2.9872 H   0  0  0  0  0  0  0  0  0  0  0  0
    1.6232   -1.8027    0.3853 O   0  0  0  0  0  0  0  0  0  0  0  0
    0.8582   -2.4084    0.5202 H   0  0  0  0  0  0  0  0  0  0  0  0
    0.4322    0.7393   -1.0344 C   0  0  0  0  0  0  0  0  0  0  0  0
    0.5315    0.0491   -2.0391 O   0  0  0  0  0  0  0  0  0  0  0  0
    0.3586    2.1141   -1.1939 N   0  0  0  0  0  0  0  0  0  0  0  0
    0.2692    2.6833   -0.3578 H   0  0  0  0  0  0  0  0  0  0  0  0
    0.5735    2.7820   -2.4731 C   0  0  0  0  0  0  0  0  0  0  0  0
   -0.1709    2.4550   -3.2068 H   0  0  0  0  0  0  0  0  0  0  0  0
    0.4856    3.8662   -2.3534 H   0  0  0  0  0  0  0  0  0  0  0  0
    1.5729    2.5565   -2.8603 H   0  0  0  0  0  0  0  0  0  0  0  0
  1  2  1  0  0  0  0
  2  3  1  0  0  0  0
  2  4  1  0  0  0  0
  2  5  1  0  0  0  0
  5  6  2  0  0  0  0
  5  7  1  0  0  0  0
  7  8  1  0  0  0  0
  7  9  1  0  0  0  0
  9 10  1  0  0  0  0
  9 11  1  0  0  0  0
  9 19  1  0  0  0  0
 11 12  1  0  0  0  0
 11 13  1  0  0  0  0
 11 17  1  0  0  0  0
 13 14  1  0  0  0  0
 13 15  1  0  0  0  0
 13 16  1  0  0  0  0
 17 18  1  0  0  0  0
 19 20  2  0  0  0  0
 19 21  1  0  0  0  0
 21 22  1  0  0  0  0
 21 23  1  0  0  0  0
 23 24  1  0  0  0  0
 23 25  1  0  0  0  0
 23 26  1  0  0  0  0
M  END
$$$$

  -OEChem-01062216093D

 26 25  0     1  0  0  0  0  0999 V2000
   -3.2848   -3.1387    1.1355 H   0  0  0  0  0  0  0  0  0  0  0  0
   -3.1167   -2.1507    0.6973 C   0  0  0  0  0  0  0  0  0  0  0  0
   -3.7292   -1.4211    1.2324 H   0  0  0  0  0  0  0  0  0  0  0  0
   -3.4228   -2.1754   -0.3516 H   0  0  0  0  0  0  0  0  0  0  0  0
   -1.6501   -1.7745    0.8000 C   0  0  0  0  0  0  0  0  0  0  0  0
   -0.8576   -2.6138    1.1953 O   0  0  0  0  0  0  0  0  0  0  0  0
   -1.2499   -0.5430    0.3148 N   0  0  0  0  0  0  0  0  0  0  0  0
   -1.9714   -0.0477   -0.2020 H   0  0  0  0  0  0  0  0  0  0  0  0
    0.0846    0.1127    0.3398 C   0  0  1  0  0  0  0  0  0  0  0  0
   -0.0850    0.9782    0.9857 H   0  0  0  0  0  0  0  0  0  0  0  0
    1.3065   -0.5665    1.0025 C   0  0  1  0  0  0  0  0  0  0  0  0
    2.1689    0.0838    0.8196 H   0  0  0  0  0  0  0  0  0  0  0  0
    1.2075   -0.7000    2.5267 C   0  0  0  0  0  0  0  0  0  0  0  0
    2.0889   -1.2232    2.9096 H   0  0  0  0  0  0  0  0  0  0  0  0
    0.3195   -1.2487    2.8416 H   0  0  0  0  0  0  0  0  0  0  0  0
    1.1708    0.2916    2.9866 H   0  0  0  0  0  0  0  0  0  0  0  0
    1.6074   -1.8060    0.3754 O   0  0  0  0  0  0  0  0  0  0  0  0
    0.8450   -2.4115    0.5266 H   0  0  0  0  0  0  0  0  0  0  0  0
    0.4380    0.7359   -1.0254 C   0  0  0  0  0  0  0  0  0  0  0  0
    0.2350    0.1180   -2.0625 O   0  0  0  0  0  0  0  0  0  0  0  0
    0.6805    2.0973   -1.1162 N   0  0  0  0  0  0  0  0  0  0  0  0
    0.8443    2.6054   -0.2523 H   0  0  0  0  0  0  0  0  0  0  0  0
    0.9130    2.7835   -2.3823 C   0  0  0  0  0  0  0  0  0  0  0  0
    0.0502    2.6681   -3.0468 H   0  0  0  0  0  0  0  0  0  0  0  0
    1.0728    3.8522   -2.2096 H   0  0  0  0  0  0  0  0  0  0  0  0
    1.7992    2.3766   -2.8808 H   0  0  0  0  0  0  0  0  0  0  0  0
  1  2  1  0  0  0  0
  2  3  1  0  0  0  0
  2  4  1  0  0  0  0
  2  5  1  0  0  0  0
  5  6  2  0  0  0  0
  5  7  1  0  0  0  0
  7  8  1  0  0  0  0
  7  9  1  0  0  0  0
  9 10  1  0  0  0  0
  9 11  1  0  0  0  0
  9 19  1  0  0  0  0
 11 12  1  0  0  0  0
 11 13  1  0  0  0  0
 11 17  1  0  0  0  0
 13 14  1  0  0  0  0
 13 15  1  0  0  0  0
 13 16  1  0  0  0  0
 17 18  1  0  0  0  0
 19 20  2  0  0  0  0
 19 21  1  0  0  0  0
 21 22  1  0  0  0  0
 21 23  1  0  0  0  0
 23 24  1  0  0  0  0
 23 25  1  0  0  0  0
 23 26  1  0  0  0  0
M  END
$$$$

  -OEChem-01062216093D

 26 25  0     1  0  0  0  0  0999 V2000
   -3.4024   -2.9894    1.1911 H   0  0  0  0  0  0  0  0  0  0  0  0
   -3.1928   -2.0129    0.7450 C   0  0  0  0  0  0  0  0  0  0  0  0
   -3.7659   -1.2524    1.2808 H   0  0  0  0  0  0  0  0  0  0  0  0
   -3.5089   -2.0288   -0.3011 H   0  0  0  0  0  0  0  0  0  0  0  0
   -1.7099   -1.7037    0.8322 C   0  0  0  0  0  0  0  0  0  0  0  0
   -0.9490   -2.5816    1.2056 O   0  0  0  0  0  0  0  0  0  0  0  0
   -1.2624   -0.4880    0.3500 N   0  0  0  0  0  0  0  0  0  0  0  0
   -1.9605    0.0293   -0.1782 H   0  0  0  0  0  0  0  0  0  0  0  0
    0.0995    0.1090    0.3502 C   0  0  1  0  0  0  0  0  0  0  0  0
   -0.0153    0.9761    1.0060 H   0  0  0  0  0  0  0  0  0  0  0  0
    1.3040   -0.6363    0.9708 C   0  0  1  0  0  0  0  0  0  0  0  0
    2.1923   -0.0254    0.7765 H   0  0  0  0  0  0  0  0  0  0  0  0
    1.2399   -0.7907    2.4951 C   0  0  0  0  0  0  0  0  0  0  0  0
    1.2639    0.1937    2.9711 H   0  0  0  0  0  0  0  0  0  0  0  0
    2.1051   -1.3624    2.8444 H   0  0  0  0  0  0  0  0  0  0  0  0
    0.3356   -1.3009    2.8277 H   0  0  0  0  0  0  0  0  0  0  0  0
    1.5254   -1.8754    0.3113 O   0  0  0  0  0  0  0  0  0  0  0  0
    0.7444   -2.4503    0.4862 H   0  0  0  0  0  0  0  0  0  0  0  0
    0.4499    0.7291   -1.0177 C   0  0  0  0  0  0  0  0  0  0  0  0
   -0.0438    0.2790   -2.0451 O   0  0  0  0  0  0  0  0  0  0  0  0
    1.0454    1.9788   -1.0740 N   0  0  0  0  0  0  0  0  0  0  0  0
    1.4533    2.3438   -0.2185 H   0  0  0  0  0  0  0  0  0  0  0  0
    1.3096    2.6801   -2.3253 C   0  0  0  0  0  0  0  0  0  0  0  0
    0.3781    2.8487   -2.8758 H   0  0  0  0  0  0  0  0  0  0  0  0
    1.7703    3.6519   -2.1241 H   0  0  0  0  0  0  0  0  0  0  0  0
    1.9903    2.0968   -2.9542 H   0  0  0  0  0  0  0  0  0  0  0  0
  1  2  1  0  0  0  0
  2  3  1  0  0  0  0
  2  4  1  0  0  0  0
  2  5  1  0  0  0  0
  5  6  2  0  0  0  0
  5  7  1  0  0  0  0
  7  8  1  0  0  0  0
  7  9  1  0  0  0  0
  9 10  1  0  0  0  0
  9 11  1  0  0  0  0
  9 19  1  0  0  0  0
 11 12  1  0  0  0  0
 11 13  1  0  0  0  0
 11 17  1  0  0  0  0
 13 14  1  0  0  0  0
 13 15  1  0  0  0  0
 13 16  1  0  0  0  0
 17 18  1  0  0  0  0
 19 20  2  0  0  0  0
 19 21  1  0  0  0  0
 21 22  1  0  0  0  0
 21 23  1  0  0  0  0
 23 24  1  0  0  0  0
 23 25  1  0  0  0  0
 23 26  1  0  0  0  0
M  END
$$$$

  -OEChem-01062216093D

 26 25  0     1  0  0  0  0  0999 V2000
   -3.4059   -2.9870    1.1797 H   0  0  0  0  0  0  0  0  0  0  0  0
   -3.1923   -2.0097    0.7375 C   0  0  0  0  0  0  0  0  0  0  0  0
   -3.7719   -1.2507    1.2684 H   0  0  0  0  0  0  0  0  0  0  0  0
   -3.4977   -2.0240   -0.3118 H   0  0  0  0  0  0  0  0  0  0  0  0
   -1.7105   -1.6989    0.8403 C   0  0  0  0  0  0  0  0  0  0  0  0
   -0.9518   -2.5796    1.2122 O   0  0  0  0  0  0  0  0  0  0  0  0
   -1.2585   -0.4829    0.3632 N   0  0  0  0  0  0  0  0  0  0  0  0
   -1.9468    0.0271   -0.1864 H   0  0  0  0  0  0  0  0  0  0  0  0
    0.1035    0.1149    0.3646 C   0  0  1  0  0  0  0  0  0  0  0  0
   -0.0064    0.9830    1.0203 H   0  0  0  0  0  0  0  0  0  0  0  0
    1.3045   -0.6404    0.9808 C   0  0  1  0  0  0  0  0  0  0  0  0
    2.1979   -0.0361    0.7915 H   0  0  0  0  0  0  0  0  0  0  0  0
    1.2418   -0.8039    2.5039 C   0  0  0  0  0  0  0  0  0  0  0  0
    1.2792    0.1772    2.9858 H   0  0  0  0  0  0  0  0  0  0  0  0
    2.1005   -1.3884    2.8478 H   0  0  0  0  0  0  0  0  0  0  0  0
    0.3319   -1.3040    2.8360 H   0  0  0  0  0  0  0  0  0  0  0  0
    1.5165   -1.8746    0.3095 O   0  0  0  0  0  0  0  0  0  0  0  0
    0.7369   -2.4498    0.4920 H   0  0  0  0  0  0  0  0  0  0  0  0
    0.4513    0.7388   -1.0030 C   0  0  0  0  0  0  0  0  0  0  0  0
   -0.2275    0.4758   -1.9900 O   0  0  0  0  0  0  0  0  0  0  0  0
    1.3106    1.8231   -1.0698 N   0  0  0  0  0  0  0  0  0  0  0  0
    1.8818    2.0175   -0.2527 H   0  0  0  0  0  0  0  0  0  0  0  0
    1.6130    2.5255   -2.3116 C   0  0  0  0  0  0  0  0  0  0  0  0
    0.7019    2.9537   -2.7428 H   0  0  0  0  0  0  0  0  0  0  0  0
    2.3193    3.3397   -2.1224 H   0  0  0  0  0  0  0  0  0  0  0  0
    2.0603    1.8408   -3.0399 H   0  0  0  0  0  0  0  0  0  0  0  0
  1  2  1  0  0  0  0
  2  3  1  0  0  0  0
  2  4  1  0  0  0  0
  2  5  1  0  0  0  0
  5  6  2  0  0  0  0
  5  7  1  0  0  0  0
  7  8  1  0  0  0  0
  7  9  1  0  0  0  0
  9 10  1  0  0  0  0
  9 11  1  0  0  0  0
  9 19  1  0  0  0  0
 11 12  1  0  0  0  0
 11 13  1  0  0  0  0
 11 17  1  0  0  0  0
 13 14  1  0  0  0  0
 13 15  1  0  0  0  0
 13 16  1  0  0  0  0
 17 18  1  0  0  0  0
 19 20  2  0  0  0  0
 19 21  1  0  0  0  0
 21 22  1  0  0  0  0
 21 23  1  0  0  0  0
 23 24  1  0  0  0  0
 23 25  1  0  0  0  0
 23 26  1  0  0  0  0
M  END
$$$$

  -OEChem-01062216093D

 26 25  0     1  0  0  0  0  0999 V2000
   -3.4058   -2.9781    1.1579 H   0  0  0  0  0  0  0  0  0  0  0  0
   -3.1855   -1.9980    0.7251 C   0  0  0  0  0  0  0  0  0  0  0  0
   -3.7645   -1.2408    1.2592 H   0  0  0  0  0  0  0  0  0  0  0  0
   -3.4849   -2.0021   -0.3261 H   0  0  0  0  0  0  0  0  0  0  0  0
   -1.7030   -1.6952    0.8389 C   0  0  0  0  0  0  0  0  0  0  0  0
   -0.9499   -2.5858    1.1990 O   0  0  0  0  0  0  0  0  0  0  0  0
   -1.2430   -0.4760    0.3776 N   0  0  0  0  0  0  0  0  0  0  0  0
   -1.9268    0.0457   -0.1677 H   0  0  0  0  0  0  0  0  0  0  0  0
    0.1184    0.1237    0.3907 C   0  0  1  0  0  0  0  0  0  0  0  0
    0.0144    0.9885    1.0518 H   0  0  0  0  0  0  0  0  0  0  0  0
    1.3109   -0.6499    1.0035 C   0  0  1  0  0  0  0  0  0  0  0  0
    2.2127   -0.0531    0.8349 H   0  0  0  0  0  0  0  0  0  0  0  0
    1.2348   -0.8374    2.5236 C   0  0  0  0  0  0  0  0  0  0  0  0
    1.3135    0.1330    3.0222 H   0  0  0  0  0  0  0  0  0  0  0  0
    2.0650   -1.4652    2.8610 H   0  0  0  0  0  0  0  0  0  0  0  0
    0.3016   -1.3010    2.8444 H   0  0  0  0  0  0  0  0  0  0  0  0
    1.5160   -1.8744    0.3122 O   0  0  0  0  0  0  0  0  0  0  0  0
    0.7352   -2.4498    0.4906 H   0  0  0  0  0  0  0  0  0  0  0  0
    0.4585    0.7575   -0.9765 C   0  0  0  0  0  0  0  0  0  0  0  0
   -0.3523    0.6945   -1.8959 O   0  0  0  0  0  0  0  0  0  0  0  0
    1.5273    1.6290   -1.1052 N   0  0  0  0  0  0  0  0  0  0  0  0
    2.2172    1.6305   -0.3596 H   0  0  0  0  0  0  0  0  0  0  0  0
    1.8562    2.3054   -2.3548 C   0  0  0  0  0  0  0  0  0  0  0  0
    1.0255    2.9419   -2.6773 H   0  0  0  0  0  0  0  0  0  0  0  0
    2.7406    2.9359   -2.2215 H   0  0  0  0  0  0  0  0  0  0  0  0
    2.0672    1.5742   -3.1424 H   0  0  0  0  0  0  0  0  0  0  0  0
  1  2  1  0  0  0  0
  2  3  1  0  0  0  0
  2  4  1  0  0  0  0
  2  5  1  0  0  0  0
  5  6  2  0  0  0  0
  5  7  1  0  0  0  0
  7  8  1  0  0  0  0
  7  9  1  0  0  0  0
  9 10  1  0  0  0  0
  9 11  1  0  0  0  0
  9 19  1  0  0  0  0
 11 12  1  0  0  0  0
 11 13  1  0  0  0  0
 11 17  1  0  0  0  0
 13 14  1  0  0  0  0
 13 15  1  0  0  0  0
 13 16  1  0  0  0  0
 17 18  1  0  0  0  0
 19 20  2  0  0  0  0
 19 21  1  0  0  0  0
 21 22  1  0  0  0  0
 21 23  1  0  0  0  0
 23 24  1  0  0  0  0
 23 25  1  0  0  0  0
 23 26  1  0  0  0  0
M  END
$$$$

  -OEChem-01062216093D

 26 25  0     1  0  0  0  0  0999 V2000
   -1.1951   -2.9763    1.2135 H   0  0  0  0  0  0  0  0  0  0  0  0
   -1.9602   -2.5060    0.5962 C   0  0  0  0  0  0  0  0  0  0  0  0
   -2.8856   -3.0793    0.6975 H   0  0  0  0  0  0  0  0  0  0  0  0
   -1.6476   -2.5410   -0.4503 H   0  0  0  0  0  0  0  0  0  0  0  0
   -2.2003   -1.0615    1.0132 C   0  0  0  0  0  0  0  0  0  0  0  0
   -3.2457   -0.7778    1.5706 O   0  0  0  0  0  0  0  0  0  0  0  0
   -1.5757    0.0127    0.4273 N   0  0  0  0  0  0  0  0  0  0  0  0
   -2.2019    0.8146    0.3987 H   0  0  0  0  0  0  0  0  0  0  0  0
   -0.1335    0.3666    0.3782 C   0  0  1  0  0  0  0  0  0  0  0  0
   -0.0037    1.1052    1.1745 H   0  0  0  0  0  0  0  0  0  0  0  0
    0.9319   -0.7211    0.6845 C   0  0  1  0  0  0  0  0  0  0  0  0
    1.9177   -0.2668    0.5452 H   0  0  0  0  0  0  0  0  0  0  0  0
    0.9212   -1.1963    2.1417 C   0  0  0  0  0  0  0  0  0  0  0  0
    1.1721   -0.3627    2.8046 H   0  0  0  0  0  0  0  0  0  0  0  0
    1.6676   -1.9829    2.2857 H   0  0  0  0  0  0  0  0  0  0  0  0
   -0.0496   -1.5822    2.4508 H   0  0  0  0  0  0  0  0  0  0  0  0
    0.8602   -1.8111   -0.2326 O   0  0  0  0  0  0  0  0  0  0  0  0
    1.5621   -2.4626   -0.0611 H   0  0  0  0  0  0  0  0  0  0  0  0
    0.2003    1.1454   -0.9196 C   0  0  0  0  0  0  0  0  0  0  0  0
   -0.6965    1.5438   -1.6541 O   0  0  0  0  0  0  0  0  0  0  0  0
    1.4888    1.5820   -1.1873 N   0  0  0  0  0  0  0  0  0  0  0  0
    2.2361    1.2376   -0.5938 H   0  0  0  0  0  0  0  0  0  0  0  0
    1.8400    2.3649   -2.3670 C   0  0  0  0  0  0  0  0  0  0  0  0
    1.3127    3.3248   -2.3619 H   0  0  0  0  0  0  0  0  0  0  0  0
    2.9160    2.5627   -2.3824 H   0  0  0  0  0  0  0  0  0  0  0  0
    1.5751    1.8216   -3.2803 H   0  0  0  0  0  0  0  0  0  0  0  0
  1  2  1  0  0  0  0
  2  3  1  0  0  0  0
  2  4  1  0  0  0  0
  2  5  1  0  0  0  0
  5  6  2  0  0  0  0
  5  7  1  0  0  0  0
  7  8  1  0  0  0  0
  7  9  1  0  0  0  0
  9 10  1  0  0  0  0
  9 11  1  0  0  0  0
  9 19  1  0  0  0  0
 11 12  1  0  0  0  0
 11 13  1  0  0  0  0
 11 17  1  0  0  0  0
 13 14  1  0  0  0  0
 13 15  1  0  0  0  0
 13 16  1  0  0  0  0
 17 18  1  0  0  0  0
 19 20  2  0  0  0  0
 19 21  1  0  0  0  0
 21 22  1  0  0  0  0
 21 23  1  0  0  0  0
 23 24  1  0  0  0  0
 23 25  1  0  0  0  0
 23 26  1  0  0  0  0
M  END
$$$$

  -OEChem-01062216093D

 26 25  0     1  0  0  0  0  0999 V2000
   -2.7552   -3.1459    1.1283 H   0  0  0  0  0  0  0  0  0  0  0  0
   -1.9111   -2.4527    1.1834 C   0  0  0  0  0  0  0  0  0  0  0  0
   -1.5994   -2.3833    2.2261 H   0  0  0  0  0  0  0  0  0  0  0  0
   -1.1062   -2.8583    0.5701 H   0  0  0  0  0  0  0  0  0  0  0  0
   -2.3366   -1.0900    0.6670 C   0  0  0  0  0  0  0  0  0  0  0  0
   -3.5260   -0.8911    0.4970 O   0  0  0  0  0  0  0  0  0  0  0  0
   -1.5553   -0.0311    0.2584 N   0  0  0  0  0  0  0  0  0  0  0  0
   -2.1233    0.6681   -0.2232 H   0  0  0  0  0  0  0  0  0  0  0  0
   -0.1140    0.3229    0.3396 C   0  0  1  0  0  0  0  0  0  0  0  0
   -0.0282    0.9990    1.1950 H   0  0  0  0  0  0  0  0  0  0  0  0
    0.9641   -0.7688    0.5819 C   0  0  1  0  0  0  0  0  0  0  0  0
    1.9365   -0.2681    0.5428 H   0  0  0  0  0  0  0  0  0  0  0  0
    0.9276   -1.4103    1.9723 C   0  0  0  0  0  0  0  0  0  0  0  0
    1.8923   -1.2719    2.4701 H   0  0  0  0  0  0  0  0  0  0  0  0
    0.7391   -2.4852    1.9093 H   0  0  0  0  0  0  0  0  0  0  0  0
    0.1615   -0.9459    2.6003 H   0  0  0  0  0  0  0  0  0  0  0  0
    0.9644   -1.7419   -0.4628 O   0  0  0  0  0  0  0  0  0  0  0  0
    1.6486   -2.4180   -0.3150 H   0  0  0  0  0  0  0  0  0  0  0  0
    0.2399    1.1944   -0.8955 C   0  0  0  0  0  0  0  0  0  0  0  0
   -0.6492    1.8243   -1.4596 O   0  0  0  0  0  0  0  0  0  0  0  0
    1.5471    1.4389   -1.2878 N   0  0  0  0  0  0  0  0  0  0  0  0
    2.2628    0.8296   -0.9055 H   0  0  0  0  0  0  0  0  0  0  0  0
    1.8916    2.2745   -2.4328 C   0  0  0  0  0  0  0  0  0  0  0  0
    1.5236    3.2956   -2.2874 H   0  0  0  0  0  0  0  0  0  0  0  0
    2.9779    2.3157   -2.5575 H   0  0  0  0  0  0  0  0  0  0  0  0
    1.4525    1.8683   -3.3500 H   0  0  0  0  0  0  0  0  0  0  0  0
  1  2  1  0  0  0  0
  2  3  1  0  0  0  0
  2  4  1  0  0  0  0
  2  5  1  0  0  0  0
  5  6  2  0  0  0  0
  5  7  1  0  0  0  0
  7  8  1  0  0  0  0
  7  9  1  0  0  0  0
  9 10  1  0  0  0  0
  9 11  1  0  0  0  0
  9 19  1  0  0  0  0
 11 12  1  0  0  0  0
 11 13  1  0  0  0  0
 11 17  1  0  0  0  0
 13 14  1  0  0  0  0
 13 15  1  0  0  0  0
 13 16  1  0  0  0  0
 17 18  1  0  0  0  0
 19 20  2  0  0  0  0
 19 21  1  0  0  0  0
 21 22  1  0  0  0  0
 21 23  1  0  0  0  0
 23 24  1  0  0  0  0
 23 25  1  0  0  0  0
 23 26  1  0  0  0  0
M  END
$$$$

  -OEChem-01062216093D

 26 25  0     1  0  0  0  0  0999 V2000
   -1.2207   -2.9580    1.1837 H   0  0  0  0  0  0  0  0  0  0  0  0
   -1.9523   -2.4595    0.5480 C   0  0  0  0  0  0  0  0  0  0  0  0
   -2.8948   -3.0101    0.6104 H   0  0  0  0  0  0  0  0  0  0  0  0
   -1.6065   -2.4890   -0.4881 H   0  0  0  0  0  0  0  0  0  0  0  0
   -2.1705   -1.0152    0.9779 C   0  0  0  0  0  0  0  0  0  0  0  0
   -3.2233   -0.7164    1.5121 O   0  0  0  0  0  0  0  0  0  0  0  0
   -1.5065    0.0512    0.4218 N   0  0  0  0  0  0  0  0  0  0  0  0
   -2.0992    0.8799    0.4264 H   0  0  0  0  0  0  0  0  0  0  0  0
   -0.0540    0.3560    0.4005 C   0  0  1  0  0  0  0  0  0  0  0  0
    0.0884    1.0861    1.2027 H   0  0  0  0  0  0  0  0  0  0  0  0
    0.9874   -0.7514    0.7184 C   0  0  1  0  0  0  0  0  0  0  0  0
    1.9832   -0.3091    0.6097 H   0  0  0  0  0  0  0  0  0  0  0  0
    0.9316   -1.2381    2.1707 C   0  0  0  0  0  0  0  0  0  0  0  0
    1.1668   -0.4110    2.8476 H   0  0  0  0  0  0  0  0  0  0  0  0
    1.6698   -2.0294    2.3310 H   0  0  0  0  0  0  0  0  0  0  0  0
   -0.0496   -1.6219    2.4472 H   0  0  0  0  0  0  0  0  0  0  0  0
    0.9138   -1.8388   -0.2027 O   0  0  0  0  0  0  0  0  0  0  0  0
    1.5492   -2.5382    0.0316 H   0  0  0  0  0  0  0  0  0  0  0  0
    0.2836    1.1472   -0.8864 C   0  0  0  0  0  0  0  0  0  0  0  0
   -0.5072    1.9922   -1.2910 O   0  0  0  0  0  0  0  0  0  0  0  0
    1.5197    1.0596   -1.5057 N   0  0  0  0  0  0  0  0  0  0  0  0
    2.0769    0.2428   -1.2716 H   0  0  0  0  0  0  0  0  0  0  0  0
    1.8450    1.7856   -2.7279 C   0  0  0  0  0  0  0  0  0  0  0  0
    1.7486    2.8653   -2.5716 H   0  0  0  0  0  0  0  0  0  0  0  0
    2.8751    1.5736   -3.0298 H   0  0  0  0  0  0  0  0  0  0  0  0
    1.1754    1.4858   -3.5408 H   0  0  0  0  0  0  0  0  0  0  0  0
  1  2  1  0  0  0  0
  2  3  1  0  0  0  0
  2  4  1  0  0  0  0
  2  5  1  0  0  0  0
  5  6  2  0  0  0  0
  5  7  1  0  0  0  0
  7  8  1  0  0  0  0
  7  9  1  0  0  0  0
  9 10  1  0  0  0  0
  9 11  1  0  0  0  0
  9 19  1  0  0  0  0
 11 12  1  0  0  0  0
 11 13  1  0  0  0  0
 11 17  1  0  0  0  0
 13 14  1  0  0  0  0
 13 15  1  0  0  0  0
 13 16  1  0  0  0  0
 17 18  1  0  0  0  0
 19 20  2  0  0  0  0
 19 21  1  0  0  0  0
 21 22  1  0  0  0  0
 21 23  1  0  0  0  0
 23 24  1  0  0  0  0
 23 25  1  0  0  0  0
 23 26  1  0  0  0  0
M  END
$$$$

  -OEChem-01062216093D

 26 25  0     1  0  0  0  0  0999 V2000
   -1.2619   -2.9225    1.1800 H   0  0  0  0  0  0  0  0  0  0  0  0
   -1.9902   -2.3991    0.5609 C   0  0  0  0  0  0  0  0  0  0  0  0
   -2.9477   -2.9211    0.6398 H   0  0  0  0  0  0  0  0  0  0  0  0
   -1.6655   -2.4338   -0.4818 H   0  0  0  0  0  0  0  0  0  0  0  0
   -2.1547   -0.9513    1.0020 C   0  0  0  0  0  0  0  0  0  0  0  0
   -3.1838   -0.6219    1.5632 O   0  0  0  0  0  0  0  0  0  0  0  0
   -1.4700    0.0963    0.4354 N   0  0  0  0  0  0  0  0  0  0  0  0
   -2.0297    0.9465    0.4823 H   0  0  0  0  0  0  0  0  0  0  0  0
   -0.0090    0.3501    0.4004 C   0  0  1  0  0  0  0  0  0  0  0  0
    0.1655    1.0749    1.2013 H   0  0  0  0  0  0  0  0  0  0  0  0
    1.0044   -0.7862    0.7046 C   0  0  1  0  0  0  0  0  0  0  0  0
    2.0089   -0.3664    0.5798 H   0  0  0  0  0  0  0  0  0  0  0  0
    0.9544   -1.2714    2.1575 C   0  0  0  0  0  0  0  0  0  0  0  0
    1.2126   -0.4487    2.8315 H   0  0  0  0  0  0  0  0  0  0  0  0
    1.6790   -2.0767    2.3104 H   0  0  0  0  0  0  0  0  0  0  0  0
   -0.0313   -1.6364    2.4439 H   0  0  0  0  0  0  0  0  0  0  0  0
    0.8928   -1.8726   -0.2157 O   0  0  0  0  0  0  0  0  0  0  0  0
    1.5025   -2.5934    0.0239 H   0  0  0  0  0  0  0  0  0  0  0  0
    0.3385    1.1272   -0.8887 C   0  0  0  0  0  0  0  0  0  0  0  0
   -0.2966    2.1395   -1.1597 O   0  0  0  0  0  0  0  0  0  0  0  0
    1.4175    0.7833   -1.6849 N   0  0  0  0  0  0  0  0  0  0  0  0
    1.7778   -0.1587   -1.5480 H   0  0  0  0  0  0  0  0  0  0  0  0
    1.7355    1.4722   -2.9299 C   0  0  0  0  0  0  0  0  0  0  0  0
    1.8954    2.5402   -2.7482 H   0  0  0  0  0  0  0  0  0  0  0  0
    2.6494    1.0585   -3.3668 H   0  0  0  0  0  0  0  0  0  0  0  0
    0.9204    1.3557   -3.6517 H   0  0  0  0  0  0  0  0  0  0  0  0
  1  2  1  0  0  0  0
  2  3  1  0  0  0  0
  2  4  1  0  0  0  0
  2  5  1  0  0  0  0
  5  6  2  0  0  0  0
  5  7  1  0  0  0  0
  7  8  1  0  0  0  0
  7  9  1  0  0  0  0
  9 10  1  0  0  0  0
  9 11  1  0  0  0  0
  9 19  1  0  0  0  0
 11 12  1  0  0  0  0
 11 13  1  0  0  0  0
 11 17  1  0  0  0  0
 13 14  1  0  0  0  0
 13 15  1  0  0  0  0
 13 16  1  0  0  0  0
 17 18  1  0  0  0  0
 19 20  2  0  0  0  0
 19 21  1  0  0  0  0
 21 22  1  0  0  0  0
 21 23  1  0  0  0  0
 23 24  1  0  0  0  0
 23 25  1  0  0  0  0
 23 26  1  0  0  0  0
M  END
$$$$

  -OEChem-01062216093D

 26 25  0     1  0  0  0  0  0999 V2000
   -1.2448   -2.9187    1.1809 H   0  0  0  0  0  0  0  0  0  0  0  0
   -1.9784   -2.3983    0.5653 C   0  0  0  0  0  0  0  0  0  0  0  0
   -2.9354   -2.9192    0.6554 H   0  0  0  0  0  0  0  0  0  0  0  0
   -1.6624   -2.4389   -0.4799 H   0  0  0  0  0  0  0  0  0  0  0  0
   -2.1378   -0.9480    1.0000 C   0  0  0  0  0  0  0  0  0  0  0  0
   -3.1619   -0.6131    1.5670 O   0  0  0  0  0  0  0  0  0  0  0  0
   -1.4554    0.0954    0.4226 N   0  0  0  0  0  0  0  0  0  0  0  0
   -2.0101    0.9478    0.4861 H   0  0  0  0  0  0  0  0  0  0  0  0
    0.0061    0.3440    0.3907 C   0  0  1  0  0  0  0  0  0  0  0  0
    0.1809    1.0724    1.1887 H   0  0  0  0  0  0  0  0  0  0  0  0
    1.0156   -0.7941    0.7002 C   0  0  1  0  0  0  0  0  0  0  0  0
    2.0184   -0.3727    0.5666 H   0  0  0  0  0  0  0  0  0  0  0  0
    0.9681   -1.2713    2.1556 C   0  0  0  0  0  0  0  0  0  0  0  0
    1.2389   -0.4482    2.8242 H   0  0  0  0  0  0  0  0  0  0  0  0
    1.6843   -2.0838    2.3091 H   0  0  0  0  0  0  0  0  0  0  0  0
   -0.0204   -1.6235    2.4484 H   0  0  0  0  0  0  0  0  0  0  0  0
    0.9073   -1.8871   -0.2147 O   0  0  0  0  0  0  0  0  0  0  0  0
    1.5271   -2.5991    0.0263 H   0  0  0  0  0  0  0  0  0  0  0  0
    0.3644    1.1057   -0.9017 C   0  0  0  0  0  0  0  0  0  0  0  0
   -0.1068    2.2212   -1.0853 O   0  0  0  0  0  0  0  0  0  0  0  0
    1.2387    0.5790   -1.8351 N   0  0  0  0  0  0  0  0  0  0  0  0
    1.4477   -0.4127   -1.7266 H   0  0  0  0  0  0  0  0  0  0  0  0
    1.5230    1.2202   -3.1125 C   0  0  0  0  0  0  0  0  0  0  0  0
    1.9454    2.2181   -2.9550 H   0  0  0  0  0  0  0  0  0  0  0  0
    2.2462    0.6264   -3.6797 H   0  0  0  0  0  0  0  0  0  0  0  0
    0.6078    1.3142   -3.7064 H   0  0  0  0  0  0  0  0  0  0  0  0
  1  2  1  0  0  0  0
  2  3  1  0  0  0  0
  2  4  1  0  0  0  0
  2  5  1  0  0  0  0
  5  6  2  0  0  0  0
  5  7  1  0  0  0  0
  7  8  1  0  0  0  0
  7  9  1  0  0  0  0
  9 10  1  0  0  0  0
  9 11  1  0  0  0  0
  9 19  1  0  0  0  0
 11 12  1  0  0  0  0
 11 13  1  0  0  0  0
 11 17  1  0  0  0  0
 13 14  1  0  0  0  0
 13 15  1  0  0  0  0
 13 16  1  0  0  0  0
 17 18  1  0  0  0  0
 19 20  2  0  0  0  0
 19 21  1  0  0  0  0
 21 22  1  0  0  0  0
 21 23  1  0  0  0  0
 23 24  1  0  0  0  0
 23 25  1  0  0  0  0
 23 26  1  0  0  0  0
M  END
$$$$

  -OEChem-01062216093D

 26 25  0     1  0  0  0  0  0999 V2000
   -1.2966   -2.9108    1.1685 H   0  0  0  0  0  0  0  0  0  0  0  0
   -2.0166   -2.3715    0.5530 C   0  0  0  0  0  0  0  0  0  0  0  0
   -2.9867   -2.8683    0.6416 H   0  0  0  0  0  0  0  0  0  0  0  0
   -1.7001   -2.4185   -0.4917 H   0  0  0  0  0  0  0  0  0  0  0  0
   -2.1409   -0.9184    0.9895 C   0  0  0  0  0  0  0  0  0  0  0  0
   -3.1566   -0.5592    1.5566 O   0  0  0  0  0  0  0  0  0  0  0  0
   -1.4403    0.1096    0.4070 N   0  0  0  0  0  0  0  0  0  0  0  0
   -1.9767    0.9722    0.4854 H   0  0  0  0  0  0  0  0  0  0  0  0
    0.0256    0.3295    0.3815 C   0  0  1  0  0  0  0  0  0  0  0  0
    0.2118    1.0545    1.1803 H   0  0  0  0  0  0  0  0  0  0  0  0
    1.0094   -0.8294    0.6935 C   0  0  1  0  0  0  0  0  0  0  0  0
    2.0189   -0.4248    0.5562 H   0  0  0  0  0  0  0  0  0  0  0  0
    0.9553   -1.3040    2.1493 C   0  0  0  0  0  0  0  0  0  0  0  0
    1.2287   -0.4817    2.8177 H   0  0  0  0  0  0  0  0  0  0  0  0
    1.6668   -2.1202    2.3052 H   0  0  0  0  0  0  0  0  0  0  0  0
   -0.0359   -1.6512    2.4392 H   0  0  0  0  0  0  0  0  0  0  0  0
    0.8849   -1.9220   -0.2215 O   0  0  0  0  0  0  0  0  0  0  0  0
    1.5201   -2.6267    0.0008 H   0  0  0  0  0  0  0  0  0  0  0  0
    0.4129    1.0739   -0.9103 C   0  0  0  0  0  0  0  0  0  0  0  0
    0.1573    2.2668   -1.0133 O   0  0  0  0  0  0  0  0  0  0  0  0
    1.0266    0.4159   -1.9597 N   0  0  0  0  0  0  0  0  0  0  0  0
    1.0910   -0.5980   -1.8689 H   0  0  0  0  0  0  0  0  0  0  0  0
    1.2979    1.0345   -3.2506 C   0  0  0  0  0  0  0  0  0  0  0  0
    1.9413    1.9120   -3.1275 H   0  0  0  0  0  0  0  0  0  0  0  0
    1.8065    0.3248   -3.9100 H   0  0  0  0  0  0  0  0  0  0  0  0
    0.3639    1.3461   -3.7296 H   0  0  0  0  0  0  0  0  0  0  0  0
  1  2  1  0  0  0  0
  2  3  1  0  0  0  0
  2  4  1  0  0  0  0
  2  5  1  0  0  0  0
  5  6  2  0  0  0  0
  5  7  1  0  0  0  0
  7  8  1  0  0  0  0
  7  9  1  0  0  0  0
  9 10  1  0  0  0  0
  9 11  1  0  0  0  0
  9 19  1  0  0  0  0
 11 12  1  0  0  0  0
 11 13  1  0  0  0  0
 11 17  1  0  0  0  0
 13 14  1  0  0  0  0
 13 15  1  0  0  0  0
 13 16  1  0  0  0  0
 17 18  1  0  0  0  0
 19 20  2  0  0  0  0
 19 21  1  0  0  0  0
 21 22  1  0  0  0  0
 21 23  1  0  0  0  0
 23 24  1  0  0  0  0
 23 25  1  0  0  0  0
 23 26  1  0  0  0  0
M  END
$$$$

  -OEChem-01062216093D

 26 25  0     1  0  0  0  0  0999 V2000
   -2.7781   -3.1045    1.1056 H   0  0  0  0  0  0  0  0  0  0  0  0
   -1.9165   -2.4344    1.1705 C   0  0  0  0  0  0  0  0  0  0  0  0
   -1.5998   -2.3913    2.2133 H   0  0  0  0  0  0  0  0  0  0  0  0
   -1.1234   -2.8507    0.5500 H   0  0  0  0  0  0  0  0  0  0  0  0
   -2.3103   -1.0514    0.6827 C   0  0  0  0  0  0  0  0  0  0  0  0
   -3.4951   -0.7978    0.5644 O   0  0  0  0  0  0  0  0  0  0  0  0
   -1.5089   -0.0266    0.2299 N   0  0  0  0  0  0  0  0  0  0  0  0
   -2.0853    0.7407   -0.1134 H   0  0  0  0  0  0  0  0  0  0  0  0
   -0.0587    0.2765    0.3116 C   0  0  1  0  0  0  0  0  0  0  0  0
    0.0432    0.9744    1.1489 H   0  0  0  0  0  0  0  0  0  0  0  0
    0.9907   -0.8315    0.5926 C   0  0  1  0  0  0  0  0  0  0  0  0
    1.9657   -0.3348    0.5223 H   0  0  0  0  0  0  0  0  0  0  0  0
    0.9394   -1.4182    2.0065 C   0  0  0  0  0  0  0  0  0  0  0  0
    1.9049   -1.2756    2.5014 H   0  0  0  0  0  0  0  0  0  0  0  0
    0.7325   -2.4915    1.9831 H   0  0  0  0  0  0  0  0  0  0  0  0
    0.1777   -0.9198    2.6135 H   0  0  0  0  0  0  0  0  0  0  0  0
    0.9945   -1.8552   -0.4094 O   0  0  0  0  0  0  0  0  0  0  0  0
    1.6987   -2.5045   -0.2307 H   0  0  0  0  0  0  0  0  0  0  0  0
    0.3460    1.0796   -0.9401 C   0  0  0  0  0  0  0  0  0  0  0  0
    0.2180    2.2968   -0.9365 O   0  0  0  0  0  0  0  0  0  0  0  0
    0.7763    0.4472   -2.0904 N   0  0  0  0  0  0  0  0  0  0  0  0
    0.8004   -0.5723   -2.0572 H   0  0  0  0  0  0  0  0  0  0  0  0
    1.0627    1.1337   -3.3427 C   0  0  0  0  0  0  0  0  0  0  0  0
    1.8152    1.9141   -3.1891 H   0  0  0  0  0  0  0  0  0  0  0  0
    1.4477    0.4247   -4.0817 H   0  0  0  0  0  0  0  0  0  0  0  0
    0.1535    1.5939   -3.7432 H   0  0  0  0  0  0  0  0  0  0  0  0
  1  2  1  0  0  0  0
  2  3  1  0  0  0  0
  2  4  1  0  0  0  0
  2  5  1  0  0  0  0
  5  6  2  0  0  0  0
  5  7  1  0  0  0  0
  7  8  1  0  0  0  0
  7  9  1  0  0  0  0
  9 10  1  0  0  0  0
  9 11  1  0  0  0  0
  9 19  1  0  0  0  0
 11 12  1  0  0  0  0
 11 13  1  0  0  0  0
 11 17  1  0  0  0  0
 13 14  1  0  0  0  0
 13 15  1  0  0  0  0
 13 16  1  0  0  0  0
 17 18  1  0  0  0  0
 19 20  2  0  0  0  0
 19 21  1  0  0  0  0
 21 22  1  0  0  0  0
 21 23  1  0  0  0  0
 23 24  1  0  0  0  0
 23 25  1  0  0  0  0
 23 26  1  0  0  0  0
M  END
$$$$

  -OEChem-01062216093D

 26 25  0     1  0  0  0  0  0999 V2000
   -2.7719   -3.1270    1.1569 H   0  0  0  0  0  0  0  0  0  0  0  0
   -1.9162   -2.4478    1.2035 C   0  0  0  0  0  0  0  0  0  0  0  0
   -1.5812   -2.3962    2.2402 H   0  0  0  0  0  0  0  0  0  0  0  0
   -1.1294   -2.8580    0.5704 H   0  0  0  0  0  0  0  0  0  0  0  0
   -2.3321   -1.0717    0.7161 C   0  0  0  0  0  0  0  0  0  0  0  0
   -3.5208   -0.8298    0.6132 O   0  0  0  0  0  0  0  0  0  0  0  0
   -1.5485   -0.0473    0.2327 N   0  0  0  0  0  0  0  0  0  0  0  0
   -2.1405    0.7090   -0.1070 H   0  0  0  0  0  0  0  0  0  0  0  0
   -0.1008    0.2757    0.2983 C   0  0  1  0  0  0  0  0  0  0  0  0
    0.0004    0.9852    1.1262 H   0  0  0  0  0  0  0  0  0  0  0  0
    0.9658   -0.8158    0.5717 C   0  0  1  0  0  0  0  0  0  0  0  0
    1.9329   -0.3061    0.4870 H   0  0  0  0  0  0  0  0  0  0  0  0
    0.9431   -1.4005    1.9868 C   0  0  0  0  0  0  0  0  0  0  0  0
    1.9203   -1.2623    2.4598 H   0  0  0  0  0  0  0  0  0  0  0  0
    0.7316   -2.4730    1.9693 H   0  0  0  0  0  0  0  0  0  0  0  0
    0.1972   -0.8971    2.6094 H   0  0  0  0  0  0  0  0  0  0  0  0
    0.9670   -1.8389   -0.4305 O   0  0  0  0  0  0  0  0  0  0  0  0
    1.7026   -2.4602   -0.2823 H   0  0  0  0  0  0  0  0  0  0  0  0
    0.2961    1.0531   -0.9704 C   0  0  0  0  0  0  0  0  0  0  0  0
    0.4400    2.2670   -0.9155 O   0  0  0  0  0  0  0  0  0  0  0  0
    0.4322    0.4039   -2.1820 N   0  0  0  0  0  0  0  0  0  0  0  0
    0.3595   -0.6129   -2.1551 H   0  0  0  0  0  0  0  0  0  0  0  0
    0.7905    1.0672   -3.4283 C   0  0  0  0  0  0  0  0  0  0  0  0
    1.7561    1.5739   -3.3299 H   0  0  0  0  0  0  0  0  0  0  0  0
    0.8648    0.3343   -4.2374 H   0  0  0  0  0  0  0  0  0  0  0  0
    0.0299    1.8063   -3.7004 H   0  0  0  0  0  0  0  0  0  0  0  0
  1  2  1  0  0  0  0
  2  3  1  0  0  0  0
  2  4  1  0  0  0  0
  2  5  1  0  0  0  0
  5  6  2  0  0  0  0
  5  7  1  0  0  0  0
  7  8  1  0  0  0  0
  7  9  1  0  0  0  0
  9 10  1  0  0  0  0
  9 11  1  0  0  0  0
  9 19  1  0  0  0  0
 11 12  1  0  0  0  0
 11 13  1  0  0  0  0
 11 17  1  0  0  0  0
 13 14  1  0  0  0  0
 13 15  1  0  0  0  0
 13 16  1  0  0  0  0
 17 18  1  0  0  0  0
 19 20  2  0  0  0  0
 19 21  1  0  0  0  0
 21 22  1  0  0  0  0
 21 23  1  0  0  0  0
 23 24  1  0  0  0  0
 23 25  1  0  0  0  0
 23 26  1  0  0  0  0
M  END
$$$$

  -OEChem-01062216093D

 26 25  0     1  0  0  0  0  0999 V2000
   -2.7720   -3.1445    1.1985 H   0  0  0  0  0  0  0  0  0  0  0  0
   -1.9189   -2.4613    1.2332 C   0  0  0  0  0  0  0  0  0  0  0  0
   -1.5699   -2.4084    2.2653 H   0  0  0  0  0  0  0  0  0  0  0  0
   -1.1391   -2.8685    0.5896 H   0  0  0  0  0  0  0  0  0  0  0  0
   -2.3485   -1.0873    0.7507 C   0  0  0  0  0  0  0  0  0  0  0  0
   -3.5395   -0.8519    0.6607 O   0  0  0  0  0  0  0  0  0  0  0  0
   -1.5797   -0.0615    0.2470 N   0  0  0  0  0  0  0  0  0  0  0  0
   -2.1840    0.6866   -0.0884 H   0  0  0  0  0  0  0  0  0  0  0  0
   -0.1337    0.2757    0.2960 C   0  0  1  0  0  0  0  0  0  0  0  0
   -0.0280    0.9892    1.1198 H   0  0  0  0  0  0  0  0  0  0  0  0
    0.9417   -0.8079    0.5517 C   0  0  1  0  0  0  0  0  0  0  0  0
    1.9050   -0.2929    0.4540 H   0  0  0  0  0  0  0  0  0  0  0  0
    0.9452   -1.3991    1.9642 C   0  0  0  0  0  0  0  0  0  0  0  0
    1.9268   -1.2505    2.4246 H   0  0  0  0  0  0  0  0  0  0  0  0
    0.7467   -2.4740    1.9445 H   0  0  0  0  0  0  0  0  0  0  0  0
    0.2020   -0.9075    2.5990 H   0  0  0  0  0  0  0  0  0  0  0  0
    0.9276   -1.8200   -0.4606 O   0  0  0  0  0  0  0  0  0  0  0  0
    1.6919   -2.4151   -0.3587 H   0  0  0  0  0  0  0  0  0  0  0  0
    0.2577    1.0407   -0.9806 C   0  0  0  0  0  0  0  0  0  0  0  0
    0.6959    2.1803   -0.8961 O   0  0  0  0  0  0  0  0  0  0  0  0
    0.0972    0.4564   -2.2223 N   0  0  0  0  0  0  0  0  0  0  0  0
   -0.1485   -0.5321   -2.2209 H   0  0  0  0  0  0  0  0  0  0  0  0
    0.5007    1.0884   -3.4710 C   0  0  0  0  0  0  0  0  0  0  0  0
    1.5783    1.2830   -3.4711 H   0  0  0  0  0  0  0  0  0  0  0  0
    0.2653    0.4360   -4.3174 H   0  0  0  0  0  0  0  0  0  0  0  0
   -0.0296    2.0366   -3.6089 H   0  0  0  0  0  0  0  0  0  0  0  0
  1  2  1  0  0  0  0
  2  3  1  0  0  0  0
  2  4  1  0  0  0  0
  2  5  1  0  0  0  0
  5  6  2  0  0  0  0
  5  7  1  0  0  0  0
  7  8  1  0  0  0  0
  7  9  1  0  0  0  0
  9 10  1  0  0  0  0
  9 11  1  0  0  0  0
  9 19  1  0  0  0  0
 11 12  1  0  0  0  0
 11 13  1  0  0  0  0
 11 17  1  0  0  0  0
 13 14  1  0  0  0  0
 13 15  1  0  0  0  0
 13 16  1  0  0  0  0
 17 18  1  0  0  0  0
 19 20  2  0  0  0  0
 19 21  1  0  0  0  0
 21 22  1  0  0  0  0
 21 23  1  0  0  0  0
 23 24  1  0  0  0  0
 23 25  1  0  0  0  0
 23 26  1  0  0  0  0
M  END
$$$$

  -OEChem-01062216093D

 26 25  0     1  0  0  0  0  0999 V2000
   -1.2911   -2.9384    1.3050 H   0  0  0  0  0  0  0  0  0  0  0  0
   -2.0498   -2.4354    0.7054 C   0  0  0  0  0  0  0  0  0  0  0  0
   -3.0067   -2.9386    0.8685 H   0  0  0  0  0  0  0  0  0  0  0  0
   -1.7879   -2.5284   -0.3510 H   0  0  0  0  0  0  0  0  0  0  0  0
   -2.1684   -0.9649    1.0824 C   0  0  0  0  0  0  0  0  0  0  0  0
   -3.1587   -0.5865    1.6803 O   0  0  0  0  0  0  0  0  0  0  0  0
   -1.5307    0.0446    0.4033 N   0  0  0  0  0  0  0  0  0  0  0  0
   -2.0837    0.8939    0.5004 H   0  0  0  0  0  0  0  0  0  0  0  0
   -0.0702    0.3010    0.3164 C   0  0  1  0  0  0  0  0  0  0  0  0
    0.1260    1.0645    1.0763 H   0  0  0  0  0  0  0  0  0  0  0  0
    0.9422   -0.8266    0.6236 C   0  0  1  0  0  0  0  0  0  0  0  0
    1.9371   -0.4115    0.4238 H   0  0  0  0  0  0  0  0  0  0  0  0
    0.9724   -1.2612    2.0925 C   0  0  0  0  0  0  0  0  0  0  0  0
    1.2724   -0.4169    2.7210 H   0  0  0  0  0  0  0  0  0  0  0  0
    1.7018   -2.0648    2.2303 H   0  0  0  0  0  0  0  0  0  0  0  0
    0.0040   -1.6105    2.4477 H   0  0  0  0  0  0  0  0  0  0  0  0
    0.7838   -1.9326   -0.2676 O   0  0  0  0  0  0  0  0  0  0  0  0
    1.5168   -2.5644   -0.1608 H   0  0  0  0  0  0  0  0  0  0  0  0
    0.2988    0.9633   -1.0213 C   0  0  0  0  0  0  0  0  0  0  0  0
    1.0842    1.9021   -1.0383 O   0  0  0  0  0  0  0  0  0  0  0  0
   -0.2316    0.4881   -2.2059 N   0  0  0  0  0  0  0  0  0  0  0  0
   -0.7924   -0.3579   -2.1409 H   0  0  0  0  0  0  0  0  0  0  0  0
    0.1443    0.9955   -3.5188 C   0  0  0  0  0  0  0  0  0  0  0  0
    1.2050    0.8052   -3.7124 H   0  0  0  0  0  0  0  0  0  0  0  0
   -0.4453    0.5021   -4.2975 H   0  0  0  0  0  0  0  0  0  0  0  0
   -0.0383    2.0735   -3.5801 H   0  0  0  0  0  0  0  0  0  0  0  0
  1  2  1  0  0  0  0
  2  3  1  0  0  0  0
  2  4  1  0  0  0  0
  2  5  1  0  0  0  0
  5  6  2  0  0  0  0
  5  7  1  0  0  0  0
  7  8  1  0  0  0  0
  7  9  1  0  0  0  0
  9 10  1  0  0  0  0
  9 11  1  0  0  0  0
  9 19  1  0  0  0  0
 11 12  1  0  0  0  0
 11 13  1  0  0  0  0
 11 17  1  0  0  0  0
 13 14  1  0  0  0  0
 13 15  1  0  0  0  0
 13 16  1  0  0  0  0
 17 18  1  0  0  0  0
 19 20  2  0  0  0  0
 19 21  1  0  0  0  0
 21 22  1  0  0  0  0
 21 23  1  0  0  0  0
 23 24  1  0  0  0  0
 23 25  1  0  0  0  0
 23 26  1  0  0  0  0
M  END
$$$$

  -OEChem-01062216093D

 26 25  0     1  0  0  0  0  0999 V2000
   -1.3444   -2.9328    1.3348 H   0  0  0  0  0  0  0  0  0  0  0  0
   -2.0932   -2.4164    0.7337 C   0  0  0  0  0  0  0  0  0  0  0  0
   -3.0612   -2.8961    0.9024 H   0  0  0  0  0  0  0  0  0  0  0  0
   -1.8361   -2.5227   -0.3227 H   0  0  0  0  0  0  0  0  0  0  0  0
   -2.1778   -0.9413    1.1014 C   0  0  0  0  0  0  0  0  0  0  0  0
   -3.1594   -0.5361    1.6963 O   0  0  0  0  0  0  0  0  0  0  0  0
   -1.5241    0.0516    0.4130 N   0  0  0  0  0  0  0  0  0  0  0  0
   -2.0576    0.9125    0.5165 H   0  0  0  0  0  0  0  0  0  0  0  0
   -0.0583    0.2775    0.3105 C   0  0  1  0  0  0  0  0  0  0  0  0
    0.1615    1.0413    1.0631 H   0  0  0  0  0  0  0  0  0  0  0  0
    0.9303   -0.8732    0.6152 C   0  0  1  0  0  0  0  0  0  0  0  0
    1.9341   -0.4859    0.4045 H   0  0  0  0  0  0  0  0  0  0  0  0
    0.9636   -1.3017    2.0861 C   0  0  0  0  0  0  0  0  0  0  0  0
    1.3035   -0.4663    2.7058 H   0  0  0  0  0  0  0  0  0  0  0  0
    1.6638   -2.1315    2.2188 H   0  0  0  0  0  0  0  0  0  0  0  0
   -0.0124   -1.6125    2.4560 H   0  0  0  0  0  0  0  0  0  0  0  0
    0.7360   -1.9781   -0.2692 O   0  0  0  0  0  0  0  0  0  0  0  0
    1.4688   -2.6136   -0.1871 H   0  0  0  0  0  0  0  0  0  0  0  0
    0.3147    0.9278   -1.0335 C   0  0  0  0  0  0  0  0  0  0  0  0
    1.2845    1.6721   -1.1022 O   0  0  0  0  0  0  0  0  0  0  0  0
   -0.4448    0.6848   -2.1629 N   0  0  0  0  0  0  0  0  0  0  0  0
   -1.1885   -0.0023   -2.0682 H   0  0  0  0  0  0  0  0  0  0  0  0
   -0.1237    1.2108   -3.4828 C   0  0  0  0  0  0  0  0  0  0  0  0
    0.8429    0.8254   -3.8235 H   0  0  0  0  0  0  0  0  0  0  0  0
   -0.8905    0.9127   -4.2043 H   0  0  0  0  0  0  0  0  0  0  0  0
   -0.0801    2.3048   -3.4597 H   0  0  0  0  0  0  0  0  0  0  0  0
  1  2  1  0  0  0  0
  2  3  1  0  0  0  0
  2  4  1  0  0  0  0
  2  5  1  0  0  0  0
  5  6  2  0  0  0  0
  5  7  1  0  0  0  0
  7  8  1  0  0  0  0
  7  9  1  0  0  0  0
  9 10  1  0  0  0  0
  9 11  1  0  0  0  0
  9 19  1  0  0  0  0
 11 12  1  0  0  0  0
 11 13  1  0  0  0  0
 11 17  1  0  0  0  0
 13 14  1  0  0  0  0
 13 15  1  0  0  0  0
 13 16  1  0  0  0  0
 17 18  1  0  0  0  0
 19 20  2  0  0  0  0
 19 21  1  0  0  0  0
 21 22  1  0  0  0  0
 21 23  1  0  0  0  0
 23 24  1  0  0  0  0
 23 25  1  0  0  0  0
 23 26  1  0  0  0  0
M  END
$$$$

  -OEChem-01062216093D

 26 25  0     1  0  0  0  0  0999 V2000
   -1.3059   -2.9502    1.3413 H   0  0  0  0  0  0  0  0  0  0  0  0
   -2.0826   -2.4460    0.7658 C   0  0  0  0  0  0  0  0  0  0  0  0
   -3.0374   -2.9377    0.9710 H   0  0  0  0  0  0  0  0  0  0  0  0
   -1.8610   -2.5529   -0.2987 H   0  0  0  0  0  0  0  0  0  0  0  0
   -2.1719   -0.9705    1.1306 C   0  0  0  0  0  0  0  0  0  0  0  0
   -3.1441   -0.5698    1.7438 O   0  0  0  0  0  0  0  0  0  0  0  0
   -1.5440    0.0253    0.4231 N   0  0  0  0  0  0  0  0  0  0  0  0
   -2.0840    0.8800    0.5433 H   0  0  0  0  0  0  0  0  0  0  0  0
   -0.0818    0.2719    0.2999 C   0  0  1  0  0  0  0  0  0  0  0  0
    0.1372    1.0476    1.0403 H   0  0  0  0  0  0  0  0  0  0  0  0
    0.9205   -0.8676    0.6107 C   0  0  1  0  0  0  0  0  0  0  0  0
    1.9205   -0.4782    0.3886 H   0  0  0  0  0  0  0  0  0  0  0  0
    0.9710   -1.2774    2.0865 C   0  0  0  0  0  0  0  0  0  0  0  0
    1.2962   -0.4276    2.6945 H   0  0  0  0  0  0  0  0  0  0  0  0
    1.6901   -2.0902    2.2243 H   0  0  0  0  0  0  0  0  0  0  0  0
    0.0046   -1.6061    2.4662 H   0  0  0  0  0  0  0  0  0  0  0  0
    0.7263   -1.9854   -0.2570 O   0  0  0  0  0  0  0  0  0  0  0  0
    1.4770   -2.6015   -0.1930 H   0  0  0  0  0  0  0  0  0  0  0  0
    0.2705    0.9142   -1.0564 C   0  0  0  0  0  0  0  0  0  0  0  0
    1.3412    1.4908   -1.2016 O   0  0  0  0  0  0  0  0  0  0  0  0
   -0.6435    0.9095   -2.0947 N   0  0  0  0  0  0  0  0  0  0  0  0
   -1.4826    0.3524   -1.9544 H   0  0  0  0  0  0  0  0  0  0  0  0
   -0.3654    1.4547   -3.4171 C   0  0  0  0  0  0  0  0  0  0  0  0
    0.4860    0.9382   -3.8727 H   0  0  0  0  0  0  0  0  0  0  0  0
   -1.2361    1.3290   -4.0678 H   0  0  0  0  0  0  0  0  0  0  0  0
   -0.1360    2.5235   -3.3510 H   0  0  0  0  0  0  0  0  0  0  0  0
  1  2  1  0  0  0  0
  2  3  1  0  0  0  0
  2  4  1  0  0  0  0
  2  5  1  0  0  0  0
  5  6  2  0  0  0  0
  5  7  1  0  0  0  0
  7  8  1  0  0  0  0
  7  9  1  0  0  0  0
  9 10  1  0  0  0  0
  9 11  1  0  0  0  0
  9 19  1  0  0  0  0
 11 12  1  0  0  0  0
 11 13  1  0  0  0  0
 11 17  1  0  0  0  0
 13 14  1  0  0  0  0
 13 15  1  0  0  0  0
 13 16  1  0  0  0  0
 17 18  1  0  0  0  0
 19 20  2  0  0  0  0
 19 21  1  0  0  0  0
 21 22  1  0  0  0  0
 21 23  1  0  0  0  0
 23 24  1  0  0  0  0
 23 25  1  0  0  0  0
 23 26  1  0  0  0  0
M  END
$$$$

  -OEChem-01062216093D

 26 25  0     1  0  0  0  0  0999 V2000
   -1.3260   -2.9694    1.3566 H   0  0  0  0  0  0  0  0  0  0  0  0
   -2.0989   -2.4549    0.7850 C   0  0  0  0  0  0  0  0  0  0  0  0
   -3.0592   -2.9340    0.9932 H   0  0  0  0  0  0  0  0  0  0  0  0
   -1.8835   -2.5626   -0.2807 H   0  0  0  0  0  0  0  0  0  0  0  0
   -2.1666   -0.9794    1.1536 C   0  0  0  0  0  0  0  0  0  0  0  0
   -3.1179   -0.5704    1.7935 O   0  0  0  0  0  0  0  0  0  0  0  0
   -1.5500    0.0139    0.4329 N   0  0  0  0  0  0  0  0  0  0  0  0
   -2.0816    0.8698    0.5779 H   0  0  0  0  0  0  0  0  0  0  0  0
   -0.0888    0.2580    0.2869 C   0  0  1  0  0  0  0  0  0  0  0  0
    0.1415    1.0403    1.0164 H   0  0  0  0  0  0  0  0  0  0  0  0
    0.9120   -0.8843    0.6047 C   0  0  1  0  0  0  0  0  0  0  0  0
    1.9140   -0.5063    0.3725 H   0  0  0  0  0  0  0  0  0  0  0  0
    0.9705   -1.2770    2.0850 C   0  0  0  0  0  0  0  0  0  0  0  0
    1.2837   -0.4164    2.6839 H   0  0  0  0  0  0  0  0  0  0  0  0
    1.7024   -2.0772    2.2298 H   0  0  0  0  0  0  0  0  0  0  0  0
    0.0100   -1.6183    2.4687 H   0  0  0  0  0  0  0  0  0  0  0  0
    0.7026   -2.0147   -0.2428 O   0  0  0  0  0  0  0  0  0  0  0  0
    1.4573   -2.6267   -0.1870 H   0  0  0  0  0  0  0  0  0  0  0  0
    0.2426    0.8964   -1.0798 C   0  0  0  0  0  0  0  0  0  0  0  0
    1.3781    1.2866   -1.3230 O   0  0  0  0  0  0  0  0  0  0  0  0
   -0.7650    1.1675   -1.9893 N   0  0  0  0  0  0  0  0  0  0  0  0
   -1.6690    0.7433   -1.7977 H   0  0  0  0  0  0  0  0  0  0  0  0
   -0.5278    1.7626   -3.2987 C   0  0  0  0  0  0  0  0  0  0  0  0
    0.1293    1.1226   -3.8968 H   0  0  0  0  0  0  0  0  0  0  0  0
   -1.4737    1.8861   -3.8348 H   0  0  0  0  0  0  0  0  0  0  0  0
   -0.0610    2.7476   -3.1934 H   0  0  0  0  0  0  0  0  0  0  0  0
  1  2  1  0  0  0  0
  2  3  1  0  0  0  0
  2  4  1  0  0  0  0
  2  5  1  0  0  0  0
  5  6  2  0  0  0  0
  5  7  1  0  0  0  0
  7  8  1  0  0  0  0
  7  9  1  0  0  0  0
  9 10  1  0  0  0  0
  9 11  1  0  0  0  0
  9 19  1  0  0  0  0
 11 12  1  0  0  0  0
 11 13  1  0  0  0  0
 11 17  1  0  0  0  0
 13 14  1  0  0  0  0
 13 15  1  0  0  0  0
 13 16  1  0  0  0  0
 17 18  1  0  0  0  0
 19 20  2  0  0  0  0
 19 21  1  0  0  0  0
 21 22  1  0  0  0  0
 21 23  1  0  0  0  0
 23 24  1  0  0  0  0
 23 25  1  0  0  0  0
 23 26  1  0  0  0  0
M  END
$$$$

  -OEChem-01062216093D

 26 25  0     1  0  0  0  0  0999 V2000
   -3.0030   -3.0318    0.9276 H   0  0  0  0  0  0  0  0  0  0  0  0
   -2.0529   -2.5238    0.7419 C   0  0  0  0  0  0  0  0  0  0  0  0
   -1.2752   -3.0246    1.3195 H   0  0  0  0  0  0  0  0  0  0  0  0
   -1.8173   -2.6106   -0.3215 H   0  0  0  0  0  0  0  0  0  0  0  0
   -2.1658   -1.0562    1.1295 C   0  0  0  0  0  0  0  0  0  0  0  0
   -3.1282   -0.6831    1.7750 O   0  0  0  0  0  0  0  0  0  0  0  0
   -1.5818   -0.0350    0.4213 N   0  0  0  0  0  0  0  0  0  0  0  0
   -2.1414    0.7985    0.5865 H   0  0  0  0  0  0  0  0  0  0  0  0
   -0.1289    0.2635    0.2933 C   0  0  1  0  0  0  0  0  0  0  0  0
    0.0635    1.0525    1.0263 H   0  0  0  0  0  0  0  0  0  0  0  0
    0.9067   -0.8444    0.6303 C   0  0  1  0  0  0  0  0  0  0  0  0
    1.8998   -0.4336    0.4179 H   0  0  0  0  0  0  0  0  0  0  0  0
    0.9522   -1.2345    2.1118 C   0  0  0  0  0  0  0  0  0  0  0  0
    1.1857   -0.3555    2.7202 H   0  0  0  0  0  0  0  0  0  0  0  0
    1.7360   -1.9799    2.2759 H   0  0  0  0  0  0  0  0  0  0  0  0
    0.0092   -1.6473    2.4677 H   0  0  0  0  0  0  0  0  0  0  0  0
    0.7483   -1.9840   -0.2157 O   0  0  0  0  0  0  0  0  0  0  0  0
    1.5378   -2.5513   -0.1749 H   0  0  0  0  0  0  0  0  0  0  0  0
    0.1882    0.9234   -1.0694 C   0  0  0  0  0  0  0  0  0  0  0  0
    1.3437    1.1548   -1.4049 O   0  0  0  0  0  0  0  0  0  0  0  0
   -0.8365    1.4391   -1.8451 N   0  0  0  0  0  0  0  0  0  0  0  0
   -1.7755    1.1315   -1.6075 H   0  0  0  0  0  0  0  0  0  0  0  0
   -0.6178    2.0789   -3.1369 C   0  0  0  0  0  0  0  0  0  0  0  0
   -0.1526    1.3781   -3.8380 H   0  0  0  0  0  0  0  0  0  0  0  0
   -1.5709    2.4112   -3.5592 H   0  0  0  0  0  0  0  0  0  0  0  0
    0.0329    2.9529   -3.0278 H   0  0  0  0  0  0  0  0  0  0  0  0
  1  2  1  0  0  0  0
  2  3  1  0  0  0  0
  2  4  1  0  0  0  0
  2  5  1  0  0  0  0
  5  6  2  0  0  0  0
  5  7  1  0  0  0  0
  7  8  1  0  0  0  0
  7  9  1  0  0  0  0
  9 10  1  0  0  0  0
  9 11  1  0  0  0  0
  9 19  1  0  0  0  0
 11 12  1  0  0  0  0
 11 13  1  0  0  0  0
 11 17  1  0  0  0  0
 13 14  1  0  0  0  0
 13 15  1  0  0  0  0
 13 16  1  0  0  0  0
 17 18  1  0  0  0  0
 19 20  2  0  0  0  0
 19 21  1  0  0  0  0
 21 22  1  0  0  0  0
 21 23  1  0  0  0  0
 23 24  1  0  0  0  0
 23 25  1  0  0  0  0
 23 26  1  0  0  0  0
M  END
$$$$

  -OEChem-01062216093D

 26 25  0     1  0  0  0  0  0999 V2000
   -1.2786   -3.0231    1.3228 H   0  0  0  0  0  0  0  0  0  0  0  0
   -2.0729   -2.5171    0.7728 C   0  0  0  0  0  0  0  0  0  0  0  0
   -3.0196   -3.0173    0.9933 H   0  0  0  0  0  0  0  0  0  0  0  0
   -1.8762   -2.6066   -0.2984 H   0  0  0  0  0  0  0  0  0  0  0  0
   -2.1599   -1.0484    1.1626 C   0  0  0  0  0  0  0  0  0  0  0  0
   -3.0940   -0.6641    1.8425 O   0  0  0  0  0  0  0  0  0  0  0  0
   -1.5845   -0.0303    0.4433 N   0  0  0  0  0  0  0  0  0  0  0  0
   -2.1309    0.8055    0.6347 H   0  0  0  0  0  0  0  0  0  0  0  0
   -0.1324    0.2525    0.2805 C   0  0  1  0  0  0  0  0  0  0  0  0
    0.0849    1.0412    1.0066 H   0  0  0  0  0  0  0  0  0  0  0  0
    0.8978   -0.8650    0.6078 C   0  0  1  0  0  0  0  0  0  0  0  0
    1.8911   -0.4668    0.3726 H   0  0  0  0  0  0  0  0  0  0  0  0
    0.9671   -1.2435    2.0918 C   0  0  0  0  0  0  0  0  0  0  0  0
    1.2190   -0.3620    2.6890 H   0  0  0  0  0  0  0  0  0  0  0  0
    1.7467   -1.9950    2.2479 H   0  0  0  0  0  0  0  0  0  0  0  0
    0.0272   -1.6459    2.4676 H   0  0  0  0  0  0  0  0  0  0  0  0
    0.7098   -2.0126   -0.2212 O   0  0  0  0  0  0  0  0  0  0  0  0
    1.5129   -2.5617   -0.2305 H   0  0  0  0  0  0  0  0  0  0  0  0
    0.1524    0.9147   -1.0902 C   0  0  0  0  0  0  0  0  0  0  0  0
    1.2759    0.9201   -1.5794 O   0  0  0  0  0  0  0  0  0  0  0  0
   -0.8158    1.7076   -1.6846 N   0  0  0  0  0  0  0  0  0  0  0  0
   -1.7643    1.5993   -1.3389 H   0  0  0  0  0  0  0  0  0  0  0  0
   -0.6140    2.3977   -2.9534 C   0  0  0  0  0  0  0  0  0  0  0  0
   -0.3879    1.6797   -3.7486 H   0  0  0  0  0  0  0  0  0  0  0  0
   -1.5169    2.9499   -3.2312 H   0  0  0  0  0  0  0  0  0  0  0  0
    0.2142    3.1098   -2.8750 H   0  0  0  0  0  0  0  0  0  0  0  0
  1  2  1  0  0  0  0
  2  3  1  0  0  0  0
  2  4  1  0  0  0  0
  2  5  1  0  0  0  0
  5  6  2  0  0  0  0
  5  7  1  0  0  0  0
  7  8  1  0  0  0  0
  7  9  1  0  0  0  0
  9 10  1  0  0  0  0
  9 11  1  0  0  0  0
  9 19  1  0  0  0  0
 11 12  1  0  0  0  0
 11 13  1  0  0  0  0
 11 17  1  0  0  0  0
 13 14  1  0  0  0  0
 13 15  1  0  0  0  0
 13 16  1  0  0  0  0
 17 18  1  0  0  0  0
 19 20  2  0  0  0  0
 19 21  1  0  0  0  0
 21 22  1  0  0  0  0
 21 23  1  0  0  0  0
 23 24  1  0  0  0  0
 23 25  1  0  0  0  0
 23 26  1  0  0  0  0
M  END
$$$$

  -OEChem-01062216093D

 26 25  0     1  0  0  0  0  0999 V2000
   -1.2506   -3.0195    1.3294 H   0  0  0  0  0  0  0  0  0  0  0  0
   -2.0494   -2.5333    0.7680 C   0  0  0  0  0  0  0  0  0  0  0  0
   -2.9862   -3.0560    0.9777 H   0  0  0  0  0  0  0  0  0  0  0  0
   -1.8350   -2.6220   -0.2996 H   0  0  0  0  0  0  0  0  0  0  0  0
   -2.1789   -1.0652    1.1498 C   0  0  0  0  0  0  0  0  0  0  0  0
   -3.1600   -0.6888    1.7650 O   0  0  0  0  0  0  0  0  0  0  0  0
   -1.5769   -0.0400    0.4622 N   0  0  0  0  0  0  0  0  0  0  0  0
   -2.1501    0.7866    0.6061 H   0  0  0  0  0  0  0  0  0  0  0  0
   -0.1224    0.2511    0.3643 C   0  0  1  0  0  0  0  0  0  0  0  0
    0.0670    1.0299    1.1090 H   0  0  0  0  0  0  0  0  0  0  0  0
    0.9119   -0.8583    0.6999 C   0  0  1  0  0  0  0  0  0  0  0  0
    1.9084   -0.4427    0.5120 H   0  0  0  0  0  0  0  0  0  0  0  0
    0.9325   -1.2738    2.1750 C   0  0  0  0  0  0  0  0  0  0  0  0
    1.2171   -0.4204    2.7976 H   0  0  0  0  0  0  0  0  0  0  0  0
    1.6711   -2.0676    2.3232 H   0  0  0  0  0  0  0  0  0  0  0  0
   -0.0320   -1.6365    2.5267 H   0  0  0  0  0  0  0  0  0  0  0  0
    0.7672   -1.9806   -0.1679 O   0  0  0  0  0  0  0  0  0  0  0  0
    0.9572   -1.6984   -1.0853 H   0  0  0  0  0  0  0  0  0  0  0  0
    0.1856    0.9210   -0.9965 C   0  0  0  0  0  0  0  0  0  0  0  0
    1.1123    0.5355   -1.7007 O   0  0  0  0  0  0  0  0  0  0  0  0
   -0.6227    1.9401   -1.4720 N   0  0  0  0  0  0  0  0  0  0  0  0
   -1.4440    2.1823   -0.9270 H   0  0  0  0  0  0  0  0  0  0  0  0
   -0.4468    2.5594   -2.7809 C   0  0  0  0  0  0  0  0  0  0  0  0
   -0.5546    1.8144   -3.5763 H   0  0  0  0  0  0  0  0  0  0  0  0
   -1.1989    3.3394   -2.9343 H   0  0  0  0  0  0  0  0  0  0  0  0
    0.5449    3.0173   -2.8585 H   0  0  0  0  0  0  0  0  0  0  0  0
  1  2  1  0  0  0  0
  2  3  1  0  0  0  0
  2  4  1  0  0  0  0
  2  5  1  0  0  0  0
  5  6  2  0  0  0  0
  5  7  1  0  0  0  0
  7  8  1  0  0  0  0
  7  9  1  0  0  0  0
  9 10  1  0  0  0  0
  9 11  1  0  0  0  0
  9 19  1  0  0  0  0
 11 12  1  0  0  0  0
 11 13  1  0  0  0  0
 11 17  1  0  0  0  0
 13 14  1  0  0  0  0
 13 15  1  0  0  0  0
 13 16  1  0  0  0  0
 17 18  1  0  0  0  0
 19 20  2  0  0  0  0
 19 21  1  0  0  0  0
 21 22  1  0  0  0  0
 21 23  1  0  0  0  0
 23 24  1  0  0  0  0
 23 25  1  0  0  0  0
 23 26  1  0  0  0  0
M  END
$$$$

  -OEChem-01062216093D

 26 25  0     1  0  0  0  0  0999 V2000
   -1.2131   -3.0312    1.3310 H   0  0  0  0  0  0  0  0  0  0  0  0
   -2.0110   -2.5669    0.7505 C   0  0  0  0  0  0  0  0  0  0  0  0
   -2.9381   -3.1147    0.9389 H   0  0  0  0  0  0  0  0  0  0  0  0
   -1.7694   -2.6511   -0.3118 H   0  0  0  0  0  0  0  0  0  0  0  0
   -2.1891   -1.1022    1.1261 C   0  0  0  0  0  0  0  0  0  0  0  0
   -3.1948   -0.7530    1.7172 O   0  0  0  0  0  0  0  0  0  0  0  0
   -1.5954   -0.0627    0.4524 N   0  0  0  0  0  0  0  0  0  0  0  0
   -2.1981    0.7495    0.5513 H   0  0  0  0  0  0  0  0  0  0  0  0
   -0.1479    0.2612    0.3761 C   0  0  1  0  0  0  0  0  0  0  0  0
    0.0167    1.0369    1.1299 H   0  0  0  0  0  0  0  0  0  0  0  0
    0.9078   -0.8258    0.7124 C   0  0  1  0  0  0  0  0  0  0  0  0
    1.8931   -0.3811    0.5303 H   0  0  0  0  0  0  0  0  0  0  0  0
    0.9284   -1.2517    2.1842 C   0  0  0  0  0  0  0  0  0  0  0  0
    1.1986   -0.3993    2.8143 H   0  0  0  0  0  0  0  0  0  0  0  0
    1.6770   -2.0364    2.3299 H   0  0  0  0  0  0  0  0  0  0  0  0
   -0.0333   -1.6291    2.5284 H   0  0  0  0  0  0  0  0  0  0  0  0
    0.8010   -1.9426   -0.1676 O   0  0  0  0  0  0  0  0  0  0  0  0
    0.9319   -1.6316   -1.0875 H   0  0  0  0  0  0  0  0  0  0  0  0
    0.1593    0.9421   -0.9763 C   0  0  0  0  0  0  0  0  0  0  0  0
    0.9259    0.4305   -1.7856 O   0  0  0  0  0  0  0  0  0  0  0  0
   -0.4659    2.1315   -1.3100 N   0  0  0  0  0  0  0  0  0  0  0  0
   -1.1349    2.5169   -0.6507 H   0  0  0  0  0  0  0  0  0  0  0  0
   -0.2788    2.8043   -2.5905 C   0  0  0  0  0  0  0  0  0  0  0  0
   -0.5827    2.1511   -3.4154 H   0  0  0  0  0  0  0  0  0  0  0  0
   -0.8842    3.7151   -2.6309 H   0  0  0  0  0  0  0  0  0  0  0  0
    0.7715    3.0819   -2.7284 H   0  0  0  0  0  0  0  0  0  0  0  0
  1  2  1  0  0  0  0
  2  3  1  0  0  0  0
  2  4  1  0  0  0  0
  2  5  1  0  0  0  0
  5  6  2  0  0  0  0
  5  7  1  0  0  0  0
  7  8  1  0  0  0  0
  7  9  1  0  0  0  0
  9 10  1  0  0  0  0
  9 11  1  0  0  0  0
  9 19  1  0  0  0  0
 11 12  1  0  0  0  0
 11 13  1  0  0  0  0
 11 17  1  0  0  0  0
 13 14  1  0  0  0  0
 13 15  1  0  0  0  0
 13 16  1  0  0  0  0
 17 18  1  0  0  0  0
 19 20  2  0  0  0  0
 19 21  1  0  0  0  0
 21 22  1  0  0  0  0
 21 23  1  0  0  0  0
 23 24  1  0  0  0  0
 23 25  1  0  0  0  0
 23 26  1  0  0  0  0
M  END
$$$$

  -OEChem-01062216093D

 26 25  0     1  0  0  0  0  0999 V2000
   -1.2015   -3.0243    1.3333 H   0  0  0  0  0  0  0  0  0  0  0  0
   -2.0082   -2.5682    0.7584 C   0  0  0  0  0  0  0  0  0  0  0  0
   -2.9285   -3.1247    0.9550 H   0  0  0  0  0  0  0  0  0  0  0  0
   -1.7743   -2.6517   -0.3056 H   0  0  0  0  0  0  0  0  0  0  0  0
   -2.1984   -1.1046    1.1331 C   0  0  0  0  0  0  0  0  0  0  0  0
   -3.2066   -0.7646    1.7254 O   0  0  0  0  0  0  0  0  0  0  0  0
   -1.6096   -0.0597    0.4630 N   0  0  0  0  0  0  0  0  0  0  0  0
   -2.2195    0.7492    0.5483 H   0  0  0  0  0  0  0  0  0  0  0  0
   -0.1652    0.2724    0.3850 C   0  0  1  0  0  0  0  0  0  0  0  0
   -0.0016    1.0395    1.1473 H   0  0  0  0  0  0  0  0  0  0  0  0
    0.8967   -0.8120    0.7029 C   0  0  1  0  0  0  0  0  0  0  0  0
    1.8766   -0.3591    0.5128 H   0  0  0  0  0  0  0  0  0  0  0  0
    0.9345   -1.2510    2.1705 C   0  0  0  0  0  0  0  0  0  0  0  0
    1.2190   -0.4058    2.8040 H   0  0  0  0  0  0  0  0  0  0  0  0
    1.6792   -2.0423    2.2994 H   0  0  0  0  0  0  0  0  0  0  0  0
   -0.0254   -1.6235    2.5249 H   0  0  0  0  0  0  0  0  0  0  0  0
    0.7907   -1.9180   -0.1905 O   0  0  0  0  0  0  0  0  0  0  0  0
    0.8495   -1.5840   -1.1113 H   0  0  0  0  0  0  0  0  0  0  0  0
    0.1395    0.9605   -0.9626 C   0  0  0  0  0  0  0  0  0  0  0  0
    0.7064    0.3543   -1.8660 O   0  0  0  0  0  0  0  0  0  0  0  0
   -0.2341    2.2774   -1.1677 N   0  0  0  0  0  0  0  0  0  0  0  0
   -0.7323    2.7526   -0.4208 H   0  0  0  0  0  0  0  0  0  0  0  0
   -0.0115    2.9863   -2.4227 C   0  0  0  0  0  0  0  0  0  0  0  0
   -0.5550    2.5001   -3.2396 H   0  0  0  0  0  0  0  0  0  0  0  0
   -0.3629    4.0193   -2.3404 H   0  0  0  0  0  0  0  0  0  0  0  0
    1.0551    3.0042   -2.6701 H   0  0  0  0  0  0  0  0  0  0  0  0
  1  2  1  0  0  0  0
  2  3  1  0  0  0  0
  2  4  1  0  0  0  0
  2  5  1  0  0  0  0
  5  6  2  0  0  0  0
  5  7  1  0  0  0  0
  7  8  1  0  0  0  0
  7  9  1  0  0  0  0
  9 10  1  0  0  0  0
  9 11  1  0  0  0  0
  9 19  1  0  0  0  0
 11 12  1  0  0  0  0
 11 13  1  0  0  0  0
 11 17  1  0  0  0  0
 13 14  1  0  0  0  0
 13 15  1  0  0  0  0
 13 16  1  0  0  0  0
 17 18  1  0  0  0  0
 19 20  2  0  0  0  0
 19 21  1  0  0  0  0
 21 22  1  0  0  0  0
 21 23  1  0  0  0  0
 23 24  1  0  0  0  0
 23 25  1  0  0  0  0
 23 26  1  0  0  0  0
M  END
$$$$

  -OEChem-01062216093D

 26 25  0     1  0  0  0  0  0999 V2000
   -1.1950   -3.0254    1.2883 H   0  0  0  0  0  0  0  0  0  0  0  0
   -2.0103   -2.5667    0.7279 C   0  0  0  0  0  0  0  0  0  0  0  0
   -2.9249   -3.1323    0.9245 H   0  0  0  0  0  0  0  0  0  0  0  0
   -1.7854   -2.6324   -0.3394 H   0  0  0  0  0  0  0  0  0  0  0  0
   -2.2066   -1.1101    1.1250 C   0  0  0  0  0  0  0  0  0  0  0  0
   -3.2149   -0.7834    1.7247 O   0  0  0  0  0  0  0  0  0  0  0  0
   -1.6239   -0.0559    0.4645 N   0  0  0  0  0  0  0  0  0  0  0  0
   -2.2417    0.7476    0.5477 H   0  0  0  0  0  0  0  0  0  0  0  0
   -0.1826    0.2902    0.4010 C   0  0  1  0  0  0  0  0  0  0  0  0
   -0.0315    1.0483    1.1748 H   0  0  0  0  0  0  0  0  0  0  0  0
    0.8857   -0.7897    0.7083 C   0  0  1  0  0  0  0  0  0  0  0  0
    1.8616   -0.3247    0.5269 H   0  0  0  0  0  0  0  0  0  0  0  0
    0.9231   -1.2489    2.1698 C   0  0  0  0  0  0  0  0  0  0  0  0
    1.1932   -0.4092    2.8167 H   0  0  0  0  0  0  0  0  0  0  0  0
    1.6778   -2.0317    2.2913 H   0  0  0  0  0  0  0  0  0  0  0  0
   -0.0334   -1.6394    2.5138 H   0  0  0  0  0  0  0  0  0  0  0  0
    0.7932   -1.8821   -0.2037 O   0  0  0  0  0  0  0  0  0  0  0  0
    0.7893   -1.5304   -1.1207 H   0  0  0  0  0  0  0  0  0  0  0  0
    0.1347    0.9875   -0.9373 C   0  0  0  0  0  0  0  0  0  0  0  0
    0.5040    0.3341   -1.9076 O   0  0  0  0  0  0  0  0  0  0  0  0
    0.0444    2.3644   -1.0436 N   0  0  0  0  0  0  0  0  0  0  0  0
   -0.2895    2.8839   -0.2369 H   0  0  0  0  0  0  0  0  0  0  0  0
    0.3257    3.0910   -2.2764 C   0  0  0  0  0  0  0  0  0  0  0  0
   -0.3593    2.7775   -3.0713 H   0  0  0  0  0  0  0  0  0  0  0  0
    0.2019    4.1667   -2.1178 H   0  0  0  0  0  0  0  0  0  0  0  0
    1.3545    2.9073   -2.6041 H   0  0  0  0  0  0  0  0  0  0  0  0
  1  2  1  0  0  0  0
  2  3  1  0  0  0  0
  2  4  1  0  0  0  0
  2  5  1  0  0  0  0
  5  6  2  0  0  0  0
  5  7  1  0  0  0  0
  7  8  1  0  0  0  0
  7  9  1  0  0  0  0
  9 10  1  0  0  0  0
  9 11  1  0  0  0  0
  9 19  1  0  0  0  0
 11 12  1  0  0  0  0
 11 13  1  0  0  0  0
 11 17  1  0  0  0  0
 13 14  1  0  0  0  0
 13 15  1  0  0  0  0
 13 16  1  0  0  0  0
 17 18  1  0  0  0  0
 19 20  2  0  0  0  0
 19 21  1  0  0  0  0
 21 22  1  0  0  0  0
 21 23  1  0  0  0  0
 23 24  1  0  0  0  0
 23 25  1  0  0  0  0
 23 26  1  0  0  0  0
M  END
$$$$

  -OEChem-01062216093D

 26 25  0     1  0  0  0  0  0999 V2000
   -1.2572   -3.0107    1.2440 H   0  0  0  0  0  0  0  0  0  0  0  0
   -2.0494   -2.5294    0.6700 C   0  0  0  0  0  0  0  0  0  0  0  0
   -2.9778   -3.0851    0.8255 H   0  0  0  0  0  0  0  0  0  0  0  0
   -1.7958   -2.5717   -0.3923 H   0  0  0  0  0  0  0  0  0  0  0  0
   -2.2353   -1.0812    1.0974 C   0  0  0  0  0  0  0  0  0  0  0  0
   -3.2143   -0.7714    1.7530 O   0  0  0  0  0  0  0  0  0  0  0  0
   -1.6590   -0.0139    0.4542 N   0  0  0  0  0  0  0  0  0  0  0  0
   -2.2587    0.7991    0.5652 H   0  0  0  0  0  0  0  0  0  0  0  0
   -0.2151    0.3008    0.3270 C   0  0  1  0  0  0  0  0  0  0  0  0
   -0.0428    1.0418    1.1121 H   0  0  0  0  0  0  0  0  0  0  0  0
    0.8589   -0.7806    0.6202 C   0  0  1  0  0  0  0  0  0  0  0  0
    1.8259   -0.3167    0.3952 H   0  0  0  0  0  0  0  0  0  0  0  0
    0.9299   -1.2004    2.0924 C   0  0  0  0  0  0  0  0  0  0  0  0
    1.1539   -0.3317    2.7189 H   0  0  0  0  0  0  0  0  0  0  0  0
    1.7266   -1.9369    2.2333 H   0  0  0  0  0  0  0  0  0  0  0  0
   -0.0052   -1.6360    2.4444 H   0  0  0  0  0  0  0  0  0  0  0  0
    0.7531   -1.9155   -0.2374 O   0  0  0  0  0  0  0  0  0  0  0  0
    1.5658   -2.4483   -0.2195 H   0  0  0  0  0  0  0  0  0  0  0  0
    0.0855    1.0529   -0.9874 C   0  0  0  0  0  0  0  0  0  0  0  0
    0.0882    0.4877   -2.0722 O   0  0  0  0  0  0  0  0  0  0  0  0
    0.3479    2.4132   -0.9527 N   0  0  0  0  0  0  0  0  0  0  0  0
    0.2932    2.8853   -0.0553 H   0  0  0  0  0  0  0  0  0  0  0  0
    0.5948    3.2107   -2.1489 C   0  0  0  0  0  0  0  0  0  0  0  0
   -0.2719    3.1770   -2.8178 H   0  0  0  0  0  0  0  0  0  0  0  0
    0.7810    4.2540   -1.8764 H   0  0  0  0  0  0  0  0  0  0  0  0
    1.4705    2.8334   -2.6875 H   0  0  0  0  0  0  0  0  0  0  0  0
  1  2  1  0  0  0  0
  2  3  1  0  0  0  0
  2  4  1  0  0  0  0
  2  5  1  0  0  0  0
  5  6  2  0  0  0  0
  5  7  1  0  0  0  0
  7  8  1  0  0  0  0
  7  9  1  0  0  0  0
  9 10  1  0  0  0  0
  9 11  1  0  0  0  0
  9 19  1  0  0  0  0
 11 12  1  0  0  0  0
 11 13  1  0  0  0  0
 11 17  1  0  0  0  0
 13 14  1  0  0  0  0
 13 15  1  0  0  0  0
 13 16  1  0  0  0  0
 17 18  1  0  0  0  0
 19 20  2  0  0  0  0
 19 21  1  0  0  0  0
 21 22  1  0  0  0  0
 21 23  1  0  0  0  0
 23 24  1  0  0  0  0
 23 25  1  0  0  0  0
 23 26  1  0  0  0  0
M  END
$$$$

  -OEChem-01062216093D

 26 25  0     1  0  0  0  0  0999 V2000
   -1.2587   -2.9946    1.2293 H   0  0  0  0  0  0  0  0  0  0  0  0
   -2.0448   -2.5120    0.6480 C   0  0  0  0  0  0  0  0  0  0  0  0
   -2.9742   -3.0693    0.7909 H   0  0  0  0  0  0  0  0  0  0  0  0
   -1.7789   -2.5501   -0.4116 H   0  0  0  0  0  0  0  0  0  0  0  0
   -2.2388   -1.0649    1.0769 C   0  0  0  0  0  0  0  0  0  0  0  0
   -3.2259   -0.7591    1.7223 O   0  0  0  0  0  0  0  0  0  0  0  0
   -1.6549    0.0005    0.4383 N   0  0  0  0  0  0  0  0  0  0  0  0
   -2.2623    0.8113    0.5183 H   0  0  0  0  0  0  0  0  0  0  0  0
   -0.2102    0.3225    0.3393 C   0  0  1  0  0  0  0  0  0  0  0  0
   -0.0588    1.0662    1.1263 H   0  0  0  0  0  0  0  0  0  0  0  0
    0.8649   -0.7534    0.6415 C   0  0  1  0  0  0  0  0  0  0  0  0
    1.8346   -0.2845    0.4393 H   0  0  0  0  0  0  0  0  0  0  0  0
    0.9116   -1.1878    2.1103 C   0  0  0  0  0  0  0  0  0  0  0  0
    1.1307   -0.3262    2.7481 H   0  0  0  0  0  0  0  0  0  0  0  0
    1.7020   -1.9301    2.2560 H   0  0  0  0  0  0  0  0  0  0  0  0
   -0.0308   -1.6210    2.4451 H   0  0  0  0  0  0  0  0  0  0  0  0
    0.7768   -1.8784   -0.2305 O   0  0  0  0  0  0  0  0  0  0  0  0
    1.5629   -2.4455   -0.1568 H   0  0  0  0  0  0  0  0  0  0  0  0
    0.1197    1.0666   -0.9720 C   0  0  0  0  0  0  0  0  0  0  0  0
   -0.1681    0.6005   -2.0660 O   0  0  0  0  0  0  0  0  0  0  0  0
    0.6766    2.3345   -0.9208 N   0  0  0  0  0  0  0  0  0  0  0  0
    0.8529    2.7408   -0.0072 H   0  0  0  0  0  0  0  0  0  0  0  0
    0.9387    3.1406   -2.1078 C   0  0  0  0  0  0  0  0  0  0  0  0
    0.0046    3.3600   -2.6356 H   0  0  0  0  0  0  0  0  0  0  0  0
    1.4076    4.0883   -1.8259 H   0  0  0  0  0  0  0  0  0  0  0  0
    1.6132    2.6118   -2.7896 H   0  0  0  0  0  0  0  0  0  0  0  0
  1  2  1  0  0  0  0
  2  3  1  0  0  0  0
  2  4  1  0  0  0  0
  2  5  1  0  0  0  0
  5  6  2  0  0  0  0
  5  7  1  0  0  0  0
  7  8  1  0  0  0  0
  7  9  1  0  0  0  0
  9 10  1  0  0  0  0
  9 11  1  0  0  0  0
  9 19  1  0  0  0  0
 11 12  1  0  0  0  0
 11 13  1  0  0  0  0
 11 17  1  0  0  0  0
 13 14  1  0  0  0  0
 13 15  1  0  0  0  0
 13 16  1  0  0  0  0
 17 18  1  0  0  0  0
 19 20  2  0  0  0  0
 19 21  1  0  0  0  0
 21 22  1  0  0  0  0
 21 23  1  0  0  0  0
 23 24  1  0  0  0  0
 23 25  1  0  0  0  0
 23 26  1  0  0  0  0
M  END
$$$$

  -OEChem-01062216093D

 26 25  0     1  0  0  0  0  0999 V2000
   -1.5987   -2.2409    2.3319 H   0  0  0  0  0  0  0  0  0  0  0  0
   -1.9675   -2.4067    1.3192 C   0  0  0  0  0  0  0  0  0  0  0  0
   -2.8101   -3.1015    1.3738 H   0  0  0  0  0  0  0  0  0  0  0  0
   -1.1955   -2.8652    0.6997 H   0  0  0  0  0  0  0  0  0  0  0  0
   -2.4235   -1.0983    0.7023 C   0  0  0  0  0  0  0  0  0  0  0  0
   -3.6167   -0.9277    0.5263 O   0  0  0  0  0  0  0  0  0  0  0  0
   -1.6639   -0.0471    0.2398 N   0  0  0  0  0  0  0  0  0  0  0  0
   -2.2354    0.5671   -0.3388 H   0  0  0  0  0  0  0  0  0  0  0  0
   -0.2187    0.2935    0.2682 C   0  0  1  0  0  0  0  0  0  0  0  0
   -0.1201    0.9721    1.1198 H   0  0  0  0  0  0  0  0  0  0  0  0
    0.8785   -0.7806    0.4857 C   0  0  1  0  0  0  0  0  0  0  0  0
    1.8301   -0.2497    0.3676 H   0  0  0  0  0  0  0  0  0  0  0  0
    0.9454   -1.3897    1.8893 C   0  0  0  0  0  0  0  0  0  0  0  0
    1.9600   -1.2917    2.2873 H   0  0  0  0  0  0  0  0  0  0  0  0
    0.7009   -2.4548    1.8728 H   0  0  0  0  0  0  0  0  0  0  0  0
    0.2667   -0.8740    2.5749 H   0  0  0  0  0  0  0  0  0  0  0  0
    0.8579   -1.7744   -0.5378 O   0  0  0  0  0  0  0  0  0  0  0  0
    1.6402   -2.3499   -0.4901 H   0  0  0  0  0  0  0  0  0  0  0  0
    0.1556    1.1348   -0.9721 C   0  0  0  0  0  0  0  0  0  0  0  0
   -0.3885    0.9491   -2.0531 O   0  0  0  0  0  0  0  0  0  0  0  0
    0.9546    2.2578   -0.8258 N   0  0  0  0  0  0  0  0  0  0  0  0
    1.3280    2.4601    0.0964 H   0  0  0  0  0  0  0  0  0  0  0  0
    1.2355    3.1867   -1.9150 C   0  0  0  0  0  0  0  0  0  0  0  0
    0.3103    3.6529   -2.2699 H   0  0  0  0  0  0  0  0  0  0  0  0
    1.9118    3.9763   -1.5738 H   0  0  0  0  0  0  0  0  0  0  0  0
    1.7102    2.6639   -2.7521 H   0  0  0  0  0  0  0  0  0  0  0  0
  1  2  1  0  0  0  0
  2  3  1  0  0  0  0
  2  4  1  0  0  0  0
  2  5  1  0  0  0  0
  5  6  2  0  0  0  0
  5  7  1  0  0  0  0
  7  8  1  0  0  0  0
  7  9  1  0  0  0  0
  9 10  1  0  0  0  0
  9 11  1  0  0  0  0
  9 19  1  0  0  0  0
 11 12  1  0  0  0  0
 11 13  1  0  0  0  0
 11 17  1  0  0  0  0
 13 14  1  0  0  0  0
 13 15  1  0  0  0  0
 13 16  1  0  0  0  0
 17 18  1  0  0  0  0
 19 20  2  0  0  0  0
 19 21  1  0  0  0  0
 21 22  1  0  0  0  0
 21 23  1  0  0  0  0
 23 24  1  0  0  0  0
 23 25  1  0  0  0  0
 23 26  1  0  0  0  0
M  END
$$$$

  -OEChem-01062216093D

 26 25  0     1  0  0  0  0  0999 V2000
   -1.1977   -2.9876    1.2236 H   0  0  0  0  0  0  0  0  0  0  0  0
   -1.9823   -2.5305    0.6206 C   0  0  0  0  0  0  0  0  0  0  0  0
   -2.8989   -3.1129    0.7461 H   0  0  0  0  0  0  0  0  0  0  0  0
   -1.6917   -2.5696   -0.4323 H   0  0  0  0  0  0  0  0  0  0  0  0
   -2.2270   -1.0857    1.0328 C   0  0  0  0  0  0  0  0  0  0  0  0
   -3.2505   -0.8045    1.6310 O   0  0  0  0  0  0  0  0  0  0  0  0
   -1.6377   -0.0110    0.4140 N   0  0  0  0  0  0  0  0  0  0  0  0
   -2.2718    0.7836    0.4241 H   0  0  0  0  0  0  0  0  0  0  0  0
   -0.1994    0.3519    0.3481 C   0  0  1  0  0  0  0  0  0  0  0  0
   -0.0803    1.0987    1.1383 H   0  0  0  0  0  0  0  0  0  0  0  0
    0.8878   -0.7099    0.6555 C   0  0  1  0  0  0  0  0  0  0  0  0
    1.8574   -0.2298    0.4837 H   0  0  0  0  0  0  0  0  0  0  0  0
    0.9124   -1.1656    2.1185 C   0  0  0  0  0  0  0  0  0  0  0  0
    1.1493   -0.3176    2.7679 H   0  0  0  0  0  0  0  0  0  0  0  0
    1.6824   -1.9297    2.2603 H   0  0  0  0  0  0  0  0  0  0  0  0
   -0.0429   -1.5758    2.4445 H   0  0  0  0  0  0  0  0  0  0  0  0
    0.8290   -1.8152   -0.2436 O   0  0  0  0  0  0  0  0  0  0  0  0
    1.5813   -2.4175   -0.1126 H   0  0  0  0  0  0  0  0  0  0  0  0
    0.1487    1.1069   -0.9546 C   0  0  0  0  0  0  0  0  0  0  0  0
   -0.5511    1.0161   -1.9554 O   0  0  0  0  0  0  0  0  0  0  0  0
    1.1787    2.0345   -0.9589 N   0  0  0  0  0  0  0  0  0  0  0  0
    1.7223    2.1468   -0.1091 H   0  0  0  0  0  0  0  0  0  0  0  0
    1.5111    2.8558   -2.1175 C   0  0  0  0  0  0  0  0  0  0  0  0
    0.6667    3.4991   -2.3867 H   0  0  0  0  0  0  0  0  0  0  0  0
    2.3730    3.4921   -1.8956 H   0  0  0  0  0  0  0  0  0  0  0  0
    1.7608    2.2239   -2.9764 H   0  0  0  0  0  0  0  0  0  0  0  0
  1  2  1  0  0  0  0
  2  3  1  0  0  0  0
  2  4  1  0  0  0  0
  2  5  1  0  0  0  0
  5  6  2  0  0  0  0
  5  7  1  0  0  0  0
  7  8  1  0  0  0  0
  7  9  1  0  0  0  0
  9 10  1  0  0  0  0
  9 11  1  0  0  0  0
  9 19  1  0  0  0  0
 11 12  1  0  0  0  0
 11 13  1  0  0  0  0
 11 17  1  0  0  0  0
 13 14  1  0  0  0  0
 13 15  1  0  0  0  0
 13 16  1  0  0  0  0
 17 18  1  0  0  0  0
 19 20  2  0  0  0  0
 19 21  1  0  0  0  0
 21 22  1  0  0  0  0
 21 23  1  0  0  0  0
 23 24  1  0  0  0  0
 23 25  1  0  0  0  0
 23 26  1  0  0  0  0
M  END
$$$$

  -OEChem-01062216093D

 26 25  0     1  0  0  0  0  0999 V2000
   -2.7648   -3.1373    1.3217 H   0  0  0  0  0  0  0  0  0  0  0  0
   -1.9292   -2.4327    1.2894 C   0  0  0  0  0  0  0  0  0  0  0  0
   -1.5899   -2.2642    2.3120 H   0  0  0  0  0  0  0  0  0  0  0  0
   -1.1366   -2.8813    0.6891 H   0  0  0  0  0  0  0  0  0  0  0  0
   -2.3845   -1.1291    0.6618 C   0  0  0  0  0  0  0  0  0  0  0  0
   -3.5740   -0.9842    0.4434 O   0  0  0  0  0  0  0  0  0  0  0  0
   -1.6273   -0.0638    0.2267 N   0  0  0  0  0  0  0  0  0  0  0  0
   -2.1905    0.5503   -0.3632 H   0  0  0  0  0  0  0  0  0  0  0  0
   -0.1913    0.3137    0.2890 C   0  0  1  0  0  0  0  0  0  0  0  0
   -0.1142    0.9944    1.1412 H   0  0  0  0  0  0  0  0  0  0  0  0
    0.9101   -0.7569    0.5170 C   0  0  1  0  0  0  0  0  0  0  0  0
    1.8663   -0.2301    0.4330 H   0  0  0  0  0  0  0  0  0  0  0  0
    0.9479   -1.3828    1.9141 C   0  0  0  0  0  0  0  0  0  0  0  0
    1.9478   -1.2684    2.3439 H   0  0  0  0  0  0  0  0  0  0  0  0
    0.7274   -2.4525    1.8780 H   0  0  0  0  0  0  0  0  0  0  0  0
    0.2390   -0.8890    2.5852 H   0  0  0  0  0  0  0  0  0  0  0  0
    0.9128   -1.7316   -0.5254 O   0  0  0  0  0  0  0  0  0  0  0  0
    1.6639   -2.3433   -0.4370 H   0  0  0  0  0  0  0  0  0  0  0  0
    0.1756    1.1706   -0.9479 C   0  0  0  0  0  0  0  0  0  0  0  0
   -0.6455    1.3705   -1.8364 O   0  0  0  0  0  0  0  0  0  0  0  0
    1.3540    1.9007   -0.9781 N   0  0  0  0  0  0  0  0  0  0  0  0
    2.0136    1.7702   -0.2180 H   0  0  0  0  0  0  0  0  0  0  0  0
    1.7058    2.8107   -2.0623 C   0  0  0  0  0  0  0  0  0  0  0  0
    0.9785    3.6267   -2.1293 H   0  0  0  0  0  0  0  0  0  0  0  0
    2.6952    3.2435   -1.8866 H   0  0  0  0  0  0  0  0  0  0  0  0
    1.7267    2.2775   -3.0187 H   0  0  0  0  0  0  0  0  0  0  0  0
  1  2  1  0  0  0  0
  2  3  1  0  0  0  0
  2  4  1  0  0  0  0
  2  5  1  0  0  0  0
  5  6  2  0  0  0  0
  5  7  1  0  0  0  0
  7  8  1  0  0  0  0
  7  9  1  0  0  0  0
  9 10  1  0  0  0  0
  9 11  1  0  0  0  0
  9 19  1  0  0  0  0
 11 12  1  0  0  0  0
 11 13  1  0  0  0  0
 11 17  1  0  0  0  0
 13 14  1  0  0  0  0
 13 15  1  0  0  0  0
 13 16  1  0  0  0  0
 17 18  1  0  0  0  0
 19 20  2  0  0  0  0
 19 21  1  0  0  0  0
 21 22  1  0  0  0  0
 21 23  1  0  0  0  0
 23 24  1  0  0  0  0
 23 25  1  0  0  0  0
 23 26  1  0  0  0  0
M  END
$$$$

  -OEChem-01062216093D

 26 25  0     1  0  0  0  0  0999 V2000
   -3.2479   -2.9879    1.2102 H   0  0  0  0  0  0  0  0  0  0  0  0
   -3.0064   -2.1150    0.5976 C   0  0  0  0  0  0  0  0  0  0  0  0
   -3.8632   -1.4368    0.5954 H   0  0  0  0  0  0  0  0  0  0  0  0
   -2.8095   -2.4464   -0.4248 H   0  0  0  0  0  0  0  0  0  0  0  0
   -1.7861   -1.4061    1.1540 C   0  0  0  0  0  0  0  0  0  0  0  0
   -1.3264   -1.7577    2.2280 O   0  0  0  0  0  0  0  0  0  0  0  0
   -1.3319   -0.2627    0.5358 N   0  0  0  0  0  0  0  0  0  0  0  0
   -1.8618    0.0016   -0.2953 H   0  0  0  0  0  0  0  0  0  0  0  0
    0.0295    0.3205    0.5539 C   0  0  1  0  0  0  0  0  0  0  0  0
    0.1842    0.8168    1.5159 H   0  0  0  0  0  0  0  0  0  0  0  0
    1.2131   -0.6676    0.2964 C   0  0  1  0  0  0  0  0  0  0  0  0
    2.1313   -0.0717    0.3095 H   0  0  0  0  0  0  0  0  0  0  0  0
    1.4462   -1.7757    1.3201 C   0  0  0  0  0  0  0  0  0  0  0  0
    0.7627   -2.6131    1.1570 H   0  0  0  0  0  0  0  0  0  0  0  0
    2.4674   -2.1572    1.2314 H   0  0  0  0  0  0  0  0  0  0  0  0
    1.3123   -1.3938    2.3367 H   0  0  0  0  0  0  0  0  0  0  0  0
    1.0934   -1.2663   -0.9966 O   0  0  0  0  0  0  0  0  0  0  0  0
    1.8033   -1.9146   -1.1430 H   0  0  0  0  0  0  0  0  0  0  0  0
    0.1144    1.3796   -0.5774 C   0  0  0  0  0  0  0  0  0  0  0  0
   -0.8787    1.6448   -1.2517 O   0  0  0  0  0  0  0  0  0  0  0  0
    1.2739    2.1031   -0.8105 N   0  0  0  0  0  0  0  0  0  0  0  0
    2.0960    1.8641   -0.2654 H   0  0  0  0  0  0  0  0  0  0  0  0
    1.3942    3.1141   -1.8544 C   0  0  0  0  0  0  0  0  0  0  0  0
    0.6568    3.9099   -1.7050 H   0  0  0  0  0  0  0  0  0  0  0  0
    2.3923    3.5620   -1.8337 H   0  0  0  0  0  0  0  0  0  0  0  0
    1.2356    2.6664   -2.8412 H   0  0  0  0  0  0  0  0  0  0  0  0
  1  2  1  0  0  0  0
  2  3  1  0  0  0  0
  2  4  1  0  0  0  0
  2  5  1  0  0  0  0
  5  6  2  0  0  0  0
  5  7  1  0  0  0  0
  7  8  1  0  0  0  0
  7  9  1  0  0  0  0
  9 10  1  0  0  0  0
  9 11  1  0  0  0  0
  9 19  1  0  0  0  0
 11 12  1  0  0  0  0
 11 13  1  0  0  0  0
 11 17  1  0  0  0  0
 13 14  1  0  0  0  0
 13 15  1  0  0  0  0
 13 16  1  0  0  0  0
 17 18  1  0  0  0  0
 19 20  2  0  0  0  0
 19 21  1  0  0  0  0
 21 22  1  0  0  0  0
 21 23  1  0  0  0  0
 23 24  1  0  0  0  0
 23 25  1  0  0  0  0
 23 26  1  0  0  0  0
M  END
$$$$

  -OEChem-01062216093D

 26 25  0     1  0  0  0  0  0999 V2000
   -3.2950   -2.9531    1.1591 H   0  0  0  0  0  0  0  0  0  0  0  0
   -3.0306   -2.0729    0.5664 C   0  0  0  0  0  0  0  0  0  0  0  0
   -3.8631   -1.3657    0.5946 H   0  0  0  0  0  0  0  0  0  0  0  0
   -2.8593   -2.3831   -0.4673 H   0  0  0  0  0  0  0  0  0  0  0  0
   -1.7786   -1.4222    1.1236 C   0  0  0  0  0  0  0  0  0  0  0  0
   -1.3148   -1.8254    2.1769 O   0  0  0  0  0  0  0  0  0  0  0  0
   -1.3020   -0.2739    0.5313 N   0  0  0  0  0  0  0  0  0  0  0  0
   -1.8542    0.0504   -0.2628 H   0  0  0  0  0  0  0  0  0  0  0  0
    0.0610    0.3074    0.5645 C   0  0  1  0  0  0  0  0  0  0  0  0
    0.2080    0.7998    1.5299 H   0  0  0  0  0  0  0  0  0  0  0  0
    1.2495   -0.6793    0.3204 C   0  0  1  0  0  0  0  0  0  0  0  0
    2.1677   -0.0843    0.3517 H   0  0  0  0  0  0  0  0  0  0  0  0
    1.4717   -1.7881    1.3456 C   0  0  0  0  0  0  0  0  0  0  0  0
    0.8031   -2.6334    1.1629 H   0  0  0  0  0  0  0  0  0  0  0  0
    2.4997   -2.1564    1.2808 H   0  0  0  0  0  0  0  0  0  0  0  0
    1.3092   -1.4113    2.3600 H   0  0  0  0  0  0  0  0  0  0  0  0
    1.1464   -1.2778   -0.9746 O   0  0  0  0  0  0  0  0  0  0  0  0
    1.8292   -1.9606   -1.0929 H   0  0  0  0  0  0  0  0  0  0  0  0
    0.1360    1.3810   -0.5584 C   0  0  0  0  0  0  0  0  0  0  0  0
   -0.9021    1.8121   -1.0558 O   0  0  0  0  0  0  0  0  0  0  0  0
    1.3349    1.9099   -1.0129 N   0  0  0  0  0  0  0  0  0  0  0  0
    2.1886    1.4693   -0.6863 H   0  0  0  0  0  0  0  0  0  0  0  0
    1.4237    2.8731   -2.1041 C   0  0  0  0  0  0  0  0  0  0  0  0
    0.8476    3.7741   -1.8684 H   0  0  0  0  0  0  0  0  0  0  0  0
    2.4657    3.1647   -2.2665 H   0  0  0  0  0  0  0  0  0  0  0  0
    1.0361    2.4382   -3.0314 H   0  0  0  0  0  0  0  0  0  0  0  0
  1  2  1  0  0  0  0
  2  3  1  0  0  0  0
  2  4  1  0  0  0  0
  2  5  1  0  0  0  0
  5  6  2  0  0  0  0
  5  7  1  0  0  0  0
  7  8  1  0  0  0  0
  7  9  1  0  0  0  0
  9 10  1  0  0  0  0
  9 11  1  0  0  0  0
  9 19  1  0  0  0  0
 11 12  1  0  0  0  0
 11 13  1  0  0  0  0
 11 17  1  0  0  0  0
 13 14  1  0  0  0  0
 13 15  1  0  0  0  0
 13 16  1  0  0  0  0
 17 18  1  0  0  0  0
 19 20  2  0  0  0  0
 19 21  1  0  0  0  0
 21 22  1  0  0  0  0
 21 23  1  0  0  0  0
 23 24  1  0  0  0  0
 23 25  1  0  0  0  0
 23 26  1  0  0  0  0
M  END
$$$$

  -OEChem-01062216093D

 26 25  0     1  0  0  0  0  0999 V2000
   -3.3842   -2.8793    1.1336 H   0  0  0  0  0  0  0  0  0  0  0  0
   -3.0768   -2.0149    0.5384 C   0  0  0  0  0  0  0  0  0  0  0  0
   -3.8618   -1.2563    0.5877 H   0  0  0  0  0  0  0  0  0  0  0  0
   -2.9483   -2.3302   -0.5000 H   0  0  0  0  0  0  0  0  0  0  0  0
   -1.7738   -1.4479    1.0707 C   0  0  0  0  0  0  0  0  0  0  0  0
   -1.2909   -1.9230    2.0837 O   0  0  0  0  0  0  0  0  0  0  0  0
   -1.2700   -0.2980    0.5029 N   0  0  0  0  0  0  0  0  0  0  0  0
   -1.8504    0.0970   -0.2365 H   0  0  0  0  0  0  0  0  0  0  0  0
    0.0959    0.2770    0.5506 C   0  0  1  0  0  0  0  0  0  0  0  0
    0.2250    0.7741    1.5162 H   0  0  0  0  0  0  0  0  0  0  0  0
    1.3038   -0.6939    0.3428 C   0  0  1  0  0  0  0  0  0  0  0  0
    2.2098   -0.0804    0.3896 H   0  0  0  0  0  0  0  0  0  0  0  0
    1.5206   -1.7831    1.3891 C   0  0  0  0  0  0  0  0  0  0  0  0
    0.8888   -2.6526    1.1891 H   0  0  0  0  0  0  0  0  0  0  0  0
    2.5620   -2.1171    1.3702 H   0  0  0  0  0  0  0  0  0  0  0  0
    1.3042   -1.4016    2.3917 H   0  0  0  0  0  0  0  0  0  0  0  0
    1.2448   -1.3145   -0.9445 O   0  0  0  0  0  0  0  0  0  0  0  0
    1.8846   -2.0460   -0.9990 H   0  0  0  0  0  0  0  0  0  0  0  0
    0.1604    1.3592   -0.5649 C   0  0  0  0  0  0  0  0  0  0  0  0
   -0.8645    1.9689   -0.8602 O   0  0  0  0  0  0  0  0  0  0  0  0
    1.3234    1.6907   -1.2430 N   0  0  0  0  0  0  0  0  0  0  0  0
    2.0855    1.0233   -1.1641 H   0  0  0  0  0  0  0  0  0  0  0  0
    1.3542    2.6384   -2.3510 C   0  0  0  0  0  0  0  0  0  0  0  0
    0.9889    3.6189   -2.0277 H   0  0  0  0  0  0  0  0  0  0  0  0
    2.3784    2.7578   -2.7173 H   0  0  0  0  0  0  0  0  0  0  0  0
    0.7284    2.2835   -3.1766 H   0  0  0  0  0  0  0  0  0  0  0  0
  1  2  1  0  0  0  0
  2  3  1  0  0  0  0
  2  4  1  0  0  0  0
  2  5  1  0  0  0  0
  5  6  2  0  0  0  0
  5  7  1  0  0  0  0
  7  8  1  0  0  0  0
  7  9  1  0  0  0  0
  9 10  1  0  0  0  0
  9 11  1  0  0  0  0
  9 19  1  0  0  0  0
 11 12  1  0  0  0  0
 11 13  1  0  0  0  0
 11 17  1  0  0  0  0
 13 14  1  0  0  0  0
 13 15  1  0  0  0  0
 13 16  1  0  0  0  0
 17 18  1  0  0  0  0
 19 20  2  0  0  0  0
 19 21  1  0  0  0  0
 21 22  1  0  0  0  0
 21 23  1  0  0  0  0
 23 24  1  0  0  0  0
 23 25  1  0  0  0  0
 23 26  1  0  0  0  0
M  END
$$$$

  -OEChem-01062216093D

 26 25  0     1  0  0  0  0  0999 V2000
   -3.4073   -2.8563    1.1193 H   0  0  0  0  0  0  0  0  0  0  0  0
   -3.0958   -1.9892    0.5302 C   0  0  0  0  0  0  0  0  0  0  0  0
   -3.8657   -1.2174    0.6062 H   0  0  0  0  0  0  0  0  0  0  0  0
   -2.9944   -2.2917   -0.5148 H   0  0  0  0  0  0  0  0  0  0  0  0
   -1.7717   -1.4547    1.0436 C   0  0  0  0  0  0  0  0  0  0  0  0
   -1.2747   -1.9626    2.0329 O   0  0  0  0  0  0  0  0  0  0  0  0
   -1.2589   -0.3053    0.4816 N   0  0  0  0  0  0  0  0  0  0  0  0
   -1.8558    0.1204   -0.2256 H   0  0  0  0  0  0  0  0  0  0  0  0
    0.1116    0.2592    0.5270 C   0  0  1  0  0  0  0  0  0  0  0  0
    0.2378    0.7588    1.4917 H   0  0  0  0  0  0  0  0  0  0  0  0
    1.3238   -0.7122    0.3403 C   0  0  1  0  0  0  0  0  0  0  0  0
    2.2225   -0.0863    0.3765 H   0  0  0  0  0  0  0  0  0  0  0  0
    1.5473   -1.7752    1.4127 C   0  0  0  0  0  0  0  0  0  0  0  0
    0.9381   -2.6627    1.2220 H   0  0  0  0  0  0  0  0  0  0  0  0
    2.5958   -2.0867    1.4165 H   0  0  0  0  0  0  0  0  0  0  0  0
    1.3066   -1.3786    2.4038 H   0  0  0  0  0  0  0  0  0  0  0  0
    1.2863   -1.3601   -0.9359 O   0  0  0  0  0  0  0  0  0  0  0  0
    1.9079   -2.1095   -0.9508 H   0  0  0  0  0  0  0  0  0  0  0  0
    0.1783    1.3458   -0.5811 C   0  0  0  0  0  0  0  0  0  0  0  0
   -0.7708    2.1138   -0.7052 O   0  0  0  0  0  0  0  0  0  0  0  0
    1.2363    1.4757   -1.4660 N   0  0  0  0  0  0  0  0  0  0  0  0
    1.8450    0.6613   -1.5263 H   0  0  0  0  0  0  0  0  0  0  0  0
    1.2320    2.4143   -2.5819 C   0  0  0  0  0  0  0  0  0  0  0  0
    1.1040    3.4401   -2.2201 H   0  0  0  0  0  0  0  0  0  0  0  0
    2.1803    2.3585   -3.1249 H   0  0  0  0  0  0  0  0  0  0  0  0
    0.4184    2.1810   -3.2766 H   0  0  0  0  0  0  0  0  0  0  0  0
  1  2  1  0  0  0  0
  2  3  1  0  0  0  0
  2  4  1  0  0  0  0
  2  5  1  0  0  0  0
  5  6  2  0  0  0  0
  5  7  1  0  0  0  0
  7  8  1  0  0  0  0
  7  9  1  0  0  0  0
  9 10  1  0  0  0  0
  9 11  1  0  0  0  0
  9 19  1  0  0  0  0
 11 12  1  0  0  0  0
 11 13  1  0  0  0  0
 11 17  1  0  0  0  0
 13 14  1  0  0  0  0
 13 15  1  0  0  0  0
 13 16  1  0  0  0  0
 17 18  1  0  0  0  0
 19 20  2  0  0  0  0
 19 21  1  0  0  0  0
 21 22  1  0  0  0  0
 21 23  1  0  0  0  0
 23 24  1  0  0  0  0
 23 25  1  0  0  0  0
 23 26  1  0  0  0  0
M  END
$$$$

  -OEChem-01062216093D

 26 25  0     1  0  0  0  0  0999 V2000
   -3.4063   -2.8536    1.1107 H   0  0  0  0  0  0  0  0  0  0  0  0
   -3.1020   -1.9781    0.5303 C   0  0  0  0  0  0  0  0  0  0  0  0
   -3.8692   -1.2064    0.6293 H   0  0  0  0  0  0  0  0  0  0  0  0
   -3.0161   -2.2656   -0.5203 H   0  0  0  0  0  0  0  0  0  0  0  0
   -1.7700   -1.4532    1.0328 C   0  0  0  0  0  0  0  0  0  0  0  0
   -1.2660   -1.9705    2.0132 O   0  0  0  0  0  0  0  0  0  0  0  0
   -1.2555   -0.3058    0.4674 N   0  0  0  0  0  0  0  0  0  0  0  0
   -1.8615    0.1246   -0.2280 H   0  0  0  0  0  0  0  0  0  0  0  0
    0.1197    0.2485    0.4993 C   0  0  1  0  0  0  0  0  0  0  0  0
    0.2503    0.7506    1.4625 H   0  0  0  0  0  0  0  0  0  0  0  0
    1.3258   -0.7341    0.3278 C   0  0  1  0  0  0  0  0  0  0  0  0
    2.2220   -0.1033    0.3391 H   0  0  0  0  0  0  0  0  0  0  0  0
    1.5605   -1.7639    1.4294 C   0  0  0  0  0  0  0  0  0  0  0  0
    0.9647   -2.6648    1.2612 H   0  0  0  0  0  0  0  0  0  0  0  0
    2.6135   -2.0594    1.4446 H   0  0  0  0  0  0  0  0  0  0  0  0
    1.3111   -1.3438    2.4086 H   0  0  0  0  0  0  0  0  0  0  0  0
    1.2936   -1.4146   -0.9330 O   0  0  0  0  0  0  0  0  0  0  0  0
    1.9157   -2.1642   -0.9231 H   0  0  0  0  0  0  0  0  0  0  0  0
    0.1963    1.3376   -0.6019 C   0  0  0  0  0  0  0  0  0  0  0  0
   -0.6255    2.2467   -0.5776 O   0  0  0  0  0  0  0  0  0  0  0  0
    1.0778    1.2878   -1.6678 N   0  0  0  0  0  0  0  0  0  0  0  0
    1.5511    0.3923   -1.7905 H   0  0  0  0  0  0  0  0  0  0  0  0
    1.0324    2.2120   -2.7941 C   0  0  0  0  0  0  0  0  0  0  0  0
    1.1407    3.2454   -2.4480 H   0  0  0  0  0  0  0  0  0  0  0  0
    1.8479    1.9966   -3.4910 H   0  0  0  0  0  0  0  0  0  0  0  0
    0.0822    2.1170   -3.3298 H   0  0  0  0  0  0  0  0  0  0  0  0
  1  2  1  0  0  0  0
  2  3  1  0  0  0  0
  2  4  1  0  0  0  0
  2  5  1  0  0  0  0
  5  6  2  0  0  0  0
  5  7  1  0  0  0  0
  7  8  1  0  0  0  0
  7  9  1  0  0  0  0
  9 10  1  0  0  0  0
  9 11  1  0  0  0  0
  9 19  1  0  0  0  0
 11 12  1  0  0  0  0
 11 13  1  0  0  0  0
 11 17  1  0  0  0  0
 13 14  1  0  0  0  0
 13 15  1  0  0  0  0
 13 16  1  0  0  0  0
 17 18  1  0  0  0  0
 19 20  2  0  0  0  0
 19 21  1  0  0  0  0
 21 22  1  0  0  0  0
 21 23  1  0  0  0  0
 23 24  1  0  0  0  0
 23 25  1  0  0  0  0
 23 26  1  0  0  0  0
M  END
$$$$

  -OEChem-01062216093D

 26 25  0     1  0  0  0  0  0999 V2000
   -3.3905   -2.8698    1.1327 H   0  0  0  0  0  0  0  0  0  0  0  0
   -3.1006   -1.9918    0.5484 C   0  0  0  0  0  0  0  0  0  0  0  0
   -3.8772   -1.2299    0.6501 H   0  0  0  0  0  0  0  0  0  0  0  0
   -3.0174   -2.2812   -0.5019 H   0  0  0  0  0  0  0  0  0  0  0  0
   -1.7723   -1.4487    1.0420 C   0  0  0  0  0  0  0  0  0  0  0  0
   -1.2664   -1.9435    2.0326 O   0  0  0  0  0  0  0  0  0  0  0  0
   -1.2664   -0.3055    0.4595 N   0  0  0  0  0  0  0  0  0  0  0  0
   -1.8725    0.0991   -0.2498 H   0  0  0  0  0  0  0  0  0  0  0  0
    0.1119    0.2424    0.4721 C   0  0  1  0  0  0  0  0  0  0  0  0
    0.2513    0.7496    1.4317 H   0  0  0  0  0  0  0  0  0  0  0  0
    1.3119   -0.7493    0.3056 C   0  0  1  0  0  0  0  0  0  0  0  0
    2.2071   -0.1170    0.2939 H   0  0  0  0  0  0  0  0  0  0  0  0
    1.5566   -1.7565    1.4264 C   0  0  0  0  0  0  0  0  0  0  0  0
    0.9573   -2.6593    1.2828 H   0  0  0  0  0  0  0  0  0  0  0  0
    2.6090   -2.0546    1.4366 H   0  0  0  0  0  0  0  0  0  0  0  0
    1.3184   -1.3160    2.3995 H   0  0  0  0  0  0  0  0  0  0  0  0
    1.2759   -1.4563   -0.9418 O   0  0  0  0  0  0  0  0  0  0  0  0
    1.9386   -2.1704   -0.9372 H   0  0  0  0  0  0  0  0  0  0  0  0
    0.1973    1.3253   -0.6319 C   0  0  0  0  0  0  0  0  0  0  0  0
   -0.4397    2.3604   -0.4823 O   0  0  0  0  0  0  0  0  0  0  0  0
    0.8414    1.1293   -1.8399 N   0  0  0  0  0  0  0  0  0  0  0  0
    1.2055    0.1879   -1.9946 H   0  0  0  0  0  0  0  0  0  0  0  0
    0.7840    2.0628   -2.9576 C   0  0  0  0  0  0  0  0  0  0  0  0
    1.1656    3.0441   -2.6569 H   0  0  0  0  0  0  0  0  0  0  0  0
    1.3953    1.6953   -3.7874 H   0  0  0  0  0  0  0  0  0  0  0  0
   -0.2466    2.1771   -3.3091 H   0  0  0  0  0  0  0  0  0  0  0  0
  1  2  1  0  0  0  0
  2  3  1  0  0  0  0
  2  4  1  0  0  0  0
  2  5  1  0  0  0  0
  5  6  2  0  0  0  0
  5  7  1  0  0  0  0
  7  8  1  0  0  0  0
  7  9  1  0  0  0  0
  9 10  1  0  0  0  0
  9 11  1  0  0  0  0
  9 19  1  0  0  0  0
 11 12  1  0  0  0  0
 11 13  1  0  0  0  0
 11 17  1  0  0  0  0
 13 14  1  0  0  0  0
 13 15  1  0  0  0  0
 13 16  1  0  0  0  0
 17 18  1  0  0  0  0
 19 20  2  0  0  0  0
 19 21  1  0  0  0  0
 21 22  1  0  0  0  0
 21 23  1  0  0  0  0
 23 24  1  0  0  0  0
 23 25  1  0  0  0  0
 23 26  1  0  0  0  0
M  END
$$$$

  -OEChem-01062216093D

 26 25  0     1  0  0  0  0  0999 V2000
   -3.3498   -2.9153    1.1977 H   0  0  0  0  0  0  0  0  0  0  0  0
   -3.0867   -2.0422    0.5938 C   0  0  0  0  0  0  0  0  0  0  0  0
   -3.8878   -1.3035    0.6755 H   0  0  0  0  0  0  0  0  0  0  0  0
   -2.9899   -2.3531   -0.4492 H   0  0  0  0  0  0  0  0  0  0  0  0
   -1.7789   -1.4450    1.0788 C   0  0  0  0  0  0  0  0  0  0  0  0
   -1.2658   -1.8917    2.0886 O   0  0  0  0  0  0  0  0  0  0  0  0
   -1.3013   -0.3061    0.4652 N   0  0  0  0  0  0  0  0  0  0  0  0
   -1.9047    0.0416   -0.2751 H   0  0  0  0  0  0  0  0  0  0  0  0
    0.0749    0.2467    0.4470 C   0  0  1  0  0  0  0  0  0  0  0  0
    0.2285    0.7630    1.3998 H   0  0  0  0  0  0  0  0  0  0  0  0
    1.2742   -0.7430    0.2692 C   0  0  1  0  0  0  0  0  0  0  0  0
    2.1657   -0.1063    0.2320 H   0  0  0  0  0  0  0  0  0  0  0  0
    1.5435   -1.7352    1.3975 C   0  0  0  0  0  0  0  0  0  0  0  0
    0.9356   -2.6365    1.2834 H   0  0  0  0  0  0  0  0  0  0  0  0
    2.5943   -2.0388    1.3845 H   0  0  0  0  0  0  0  0  0  0  0  0
    1.3334   -1.2790    2.3698 H   0  0  0  0  0  0  0  0  0  0  0  0
    1.2207   -1.4656   -0.9689 O   0  0  0  0  0  0  0  0  0  0  0  0
    1.9140   -2.1500   -0.9823 H   0  0  0  0  0  0  0  0  0  0  0  0
    0.1511    1.3134   -0.6698 C   0  0  0  0  0  0  0  0  0  0  0  0
   -0.2312    2.4504   -0.4272 O   0  0  0  0  0  0  0  0  0  0  0  0
    0.5066    1.0079   -1.9701 N   0  0  0  0  0  0  0  0  0  0  0  0
    0.7986    0.0436   -2.1374 H   0  0  0  0  0  0  0  0  0  0  0  0
    0.5349    1.9698   -3.0639 C   0  0  0  0  0  0  0  0  0  0  0  0
    1.2358    2.7812   -2.8417 H   0  0  0  0  0  0  0  0  0  0  0  0
    0.8543    1.4802   -3.9889 H   0  0  0  0  0  0  0  0  0  0  0  0
   -0.4606    2.3965   -3.2244 H   0  0  0  0  0  0  0  0  0  0  0  0
  1  2  1  0  0  0  0
  2  3  1  0  0  0  0
  2  4  1  0  0  0  0
  2  5  1  0  0  0  0
  5  6  2  0  0  0  0
  5  7  1  0  0  0  0
  7  8  1  0  0  0  0
  7  9  1  0  0  0  0
  9 10  1  0  0  0  0
  9 11  1  0  0  0  0
  9 19  1  0  0  0  0
 11 12  1  0  0  0  0
 11 13  1  0  0  0  0
 11 17  1  0  0  0  0
 13 14  1  0  0  0  0
 13 15  1  0  0  0  0
 13 16  1  0  0  0  0
 17 18  1  0  0  0  0
 19 20  2  0  0  0  0
 19 21  1  0  0  0  0
 21 22  1  0  0  0  0
 21 23  1  0  0  0  0
 23 24  1  0  0  0  0
 23 25  1  0  0  0  0
 23 26  1  0  0  0  0
M  END
$$$$

  -OEChem-01062216093D

 26 25  0     1  0  0  0  0  0999 V2000
   -3.2968   -2.9653    1.2566 H   0  0  0  0  0  0  0  0  0  0  0  0
   -3.0637   -2.0956    0.6358 C   0  0  0  0  0  0  0  0  0  0  0  0
   -3.8942   -1.3881    0.6958 H   0  0  0  0  0  0  0  0  0  0  0  0
   -2.9467   -2.4248   -0.3995 H   0  0  0  0  0  0  0  0  0  0  0  0
   -1.7850   -1.4365    1.1179 C   0  0  0  0  0  0  0  0  0  0  0  0
   -1.2711   -1.8274    2.1504 O   0  0  0  0  0  0  0  0  0  0  0  0
   -1.3389   -0.2992    0.4787 N   0  0  0  0  0  0  0  0  0  0  0  0
   -1.9327   -0.0107   -0.2938 H   0  0  0  0  0  0  0  0  0  0  0  0
    0.0313    0.2672    0.4448 C   0  0  1  0  0  0  0  0  0  0  0  0
    0.1939    0.7878    1.3940 H   0  0  0  0  0  0  0  0  0  0  0  0
    1.2329   -0.7130    0.2411 C   0  0  1  0  0  0  0  0  0  0  0  0
    2.1213   -0.0725    0.1972 H   0  0  0  0  0  0  0  0  0  0  0  0
    1.5184   -1.7194    1.3527 C   0  0  0  0  0  0  0  0  0  0  0  0
    0.8921   -2.6092    1.2488 H   0  0  0  0  0  0  0  0  0  0  0  0
    2.5629   -2.0406    1.3069 H   0  0  0  0  0  0  0  0  0  0  0  0
    1.3443   -1.2685    2.3346 H   0  0  0  0  0  0  0  0  0  0  0  0
    1.1595   -1.4231   -1.0034 O   0  0  0  0  0  0  0  0  0  0  0  0
    1.8906   -2.0646   -1.0615 H   0  0  0  0  0  0  0  0  0  0  0  0
    0.0972    1.3183   -0.6847 C   0  0  0  0  0  0  0  0  0  0  0  0
   -0.0027    2.5054   -0.4058 O   0  0  0  0  0  0  0  0  0  0  0  0
    0.1507    0.9518   -2.0166 N   0  0  0  0  0  0  0  0  0  0  0  0
    0.3693   -0.0312   -2.1869 H   0  0  0  0  0  0  0  0  0  0  0  0
    0.2588    1.9044   -3.1139 C   0  0  0  0  0  0  0  0  0  0  0  0
    1.1832    2.4849   -3.0279 H   0  0  0  0  0  0  0  0  0  0  0  0
    0.2674    1.3765   -4.0723 H   0  0  0  0  0  0  0  0  0  0  0  0
   -0.5924    2.5934   -3.1082 H   0  0  0  0  0  0  0  0  0  0  0  0
  1  2  1  0  0  0  0
  2  3  1  0  0  0  0
  2  4  1  0  0  0  0
  2  5  1  0  0  0  0
  5  6  2  0  0  0  0
  5  7  1  0  0  0  0
  7  8  1  0  0  0  0
  7  9  1  0  0  0  0
  9 10  1  0  0  0  0
  9 11  1  0  0  0  0
  9 19  1  0  0  0  0
 11 12  1  0  0  0  0
 11 13  1  0  0  0  0
 11 17  1  0  0  0  0
 13 14  1  0  0  0  0
 13 15  1  0  0  0  0
 13 16  1  0  0  0  0
 17 18  1  0  0  0  0
 19 20  2  0  0  0  0
 19 21  1  0  0  0  0
 21 22  1  0  0  0  0
 21 23  1  0  0  0  0
 23 24  1  0  0  0  0
 23 25  1  0  0  0  0
 23 26  1  0  0  0  0
M  END
$$$$

  -OEChem-01062216093D

 26 25  0     1  0  0  0  0  0999 V2000
   -3.2766   -2.9827    1.2981 H   0  0  0  0  0  0  0  0  0  0  0  0
   -3.0531   -2.1218    0.6615 C   0  0  0  0  0  0  0  0  0  0  0  0
   -3.8983   -1.4301    0.6961 H   0  0  0  0  0  0  0  0  0  0  0  0
   -2.9163   -2.4707   -0.3648 H   0  0  0  0  0  0  0  0  0  0  0  0
   -1.7936   -1.4277    1.1451 C   0  0  0  0  0  0  0  0  0  0  0  0
   -1.2792   -1.7912    2.1874 O   0  0  0  0  0  0  0  0  0  0  0  0
   -1.3636   -0.2910    0.4936 N   0  0  0  0  0  0  0  0  0  0  0  0
   -1.9506   -0.0285   -0.2932 H   0  0  0  0  0  0  0  0  0  0  0  0
    0.0015    0.2890    0.4618 C   0  0  1  0  0  0  0  0  0  0  0  0
    0.1686    0.8061    1.4122 H   0  0  0  0  0  0  0  0  0  0  0  0
    1.2011   -0.6827    0.2271 C   0  0  1  0  0  0  0  0  0  0  0  0
    2.0904   -0.0426    0.1893 H   0  0  0  0  0  0  0  0  0  0  0  0
    1.4936   -1.7182    1.3095 C   0  0  0  0  0  0  0  0  0  0  0  0
    0.8519   -2.5962    1.1984 H   0  0  0  0  0  0  0  0  0  0  0  0
    2.5325   -2.0519    1.2350 H   0  0  0  0  0  0  0  0  0  0  0  0
    1.3453   -1.2866    2.3042 H   0  0  0  0  0  0  0  0  0  0  0  0
    1.1053   -1.3584   -1.0351 O   0  0  0  0  0  0  0  0  0  0  0  0
    1.8639   -1.9595   -1.1467 H   0  0  0  0  0  0  0  0  0  0  0  0
    0.0715    1.3295   -0.6746 C   0  0  0  0  0  0  0  0  0  0  0  0
    0.2486    2.5102   -0.4073 O   0  0  0  0  0  0  0  0  0  0  0  0
   -0.1682    0.9614   -1.9864 N   0  0  0  0  0  0  0  0  0  0  0  0
   -0.0609   -0.0373   -2.1674 H   0  0  0  0  0  0  0  0  0  0  0  0
   -0.0437    1.8879   -3.1045 C   0  0  0  0  0  0  0  0  0  0  0  0
    0.9826    2.2618   -3.1803 H   0  0  0  0  0  0  0  0  0  0  0  0
   -0.3013    1.3851   -4.0415 H   0  0  0  0  0  0  0  0  0  0  0  0
   -0.7202    2.7392   -2.9745 H   0  0  0  0  0  0  0  0  0  0  0  0
  1  2  1  0  0  0  0
  2  3  1  0  0  0  0
  2  4  1  0  0  0  0
  2  5  1  0  0  0  0
  5  6  2  0  0  0  0
  5  7  1  0  0  0  0
  7  8  1  0  0  0  0
  7  9  1  0  0  0  0
  9 10  1  0  0  0  0
  9 11  1  0  0  0  0
  9 19  1  0  0  0  0
 11 12  1  0  0  0  0
 11 13  1  0  0  0  0
 11 17  1  0  0  0  0
 13 14  1  0  0  0  0
 13 15  1  0  0  0  0
 13 16  1  0  0  0  0
 17 18  1  0  0  0  0
 19 20  2  0  0  0  0
 19 21  1  0  0  0  0
 21 22  1  0  0  0  0
 21 23  1  0  0  0  0
 23 24  1  0  0  0  0
 23 25  1  0  0  0  0
 23 26  1  0  0  0  0
M  END
$$$$

  -OEChem-01062216093D

 26 25  0     1  0  0  0  0  0999 V2000
   -3.2680   -2.9931    1.3357 H   0  0  0  0  0  0  0  0  0  0  0  0
   -3.0515   -2.1381    0.6889 C   0  0  0  0  0  0  0  0  0  0  0  0
   -3.9033   -1.4542    0.7131 H   0  0  0  0  0  0  0  0  0  0  0  0
   -2.9093   -2.4987   -0.3327 H   0  0  0  0  0  0  0  0  0  0  0  0
   -1.7997   -1.4259    1.1669 C   0  0  0  0  0  0  0  0  0  0  0  0
   -1.2818   -1.7733    2.2132 O   0  0  0  0  0  0  0  0  0  0  0  0
   -1.3796   -0.2908    0.5061 N   0  0  0  0  0  0  0  0  0  0  0  0
   -1.9701   -0.0326   -0.2794 H   0  0  0  0  0  0  0  0  0  0  0  0
   -0.0207    0.3063    0.4820 C   0  0  1  0  0  0  0  0  0  0  0  0
    0.1459    0.8216    1.4333 H   0  0  0  0  0  0  0  0  0  0  0  0
    1.1779   -0.6574    0.2215 C   0  0  1  0  0  0  0  0  0  0  0  0
    2.0693   -0.0198    0.1921 H   0  0  0  0  0  0  0  0  0  0  0  0
    1.4747   -1.7226    1.2735 C   0  0  0  0  0  0  0  0  0  0  0  0
    0.8201   -2.5895    1.1524 H   0  0  0  0  0  0  0  0  0  0  0  0
    2.5078   -2.0674    1.1741 H   0  0  0  0  0  0  0  0  0  0  0  0
    1.3482   -1.3127    2.2802 H   0  0  0  0  0  0  0  0  0  0  0  0
    1.0601   -1.2974   -1.0572 O   0  0  0  0  0  0  0  0  0  0  0  0
    1.8317   -1.8711   -1.2122 H   0  0  0  0  0  0  0  0  0  0  0  0
    0.0621    1.3369   -0.6611 C   0  0  0  0  0  0  0  0  0  0  0  0
    0.4895    2.4619   -0.4387 O   0  0  0  0  0  0  0  0  0  0  0  0
   -0.4466    1.0327   -1.9125 N   0  0  0  0  0  0  0  0  0  0  0  0
   -0.4886    0.0339   -2.1096 H   0  0  0  0  0  0  0  0  0  0  0  0
   -0.3385    1.9482   -3.0418 C   0  0  0  0  0  0  0  0  0  0  0  0
    0.7128    2.1359   -3.2834 H   0  0  0  0  0  0  0  0  0  0  0  0
   -0.8281    1.5210   -3.9221 H   0  0  0  0  0  0  0  0  0  0  0  0
   -0.8226    2.9029   -2.8101 H   0  0  0  0  0  0  0  0  0  0  0  0
  1  2  1  0  0  0  0
  2  3  1  0  0  0  0
  2  4  1  0  0  0  0
  2  5  1  0  0  0  0
  5  6  2  0  0  0  0
  5  7  1  0  0  0  0
  7  8  1  0  0  0  0
  7  9  1  0  0  0  0
  9 10  1  0  0  0  0
  9 11  1  0  0  0  0
  9 19  1  0  0  0  0
 11 12  1  0  0  0  0
 11 13  1  0  0  0  0
 11 17  1  0  0  0  0
 13 14  1  0  0  0  0
 13 15  1  0  0  0  0
 13 16  1  0  0  0  0
 17 18  1  0  0  0  0
 19 20  2  0  0  0  0
 19 21  1  0  0  0  0
 21 22  1  0  0  0  0
 21 23  1  0  0  0  0
 23 24  1  0  0  0  0
 23 25  1  0  0  0  0
 23 26  1  0  0  0  0
M  END
$$$$

  -OEChem-01062216093D

 26 25  0     1  0  0  0  0  0999 V2000
   -3.2740   -3.0021    1.3842 H   0  0  0  0  0  0  0  0  0  0  0  0
   -3.0591   -2.1568    0.7242 C   0  0  0  0  0  0  0  0  0  0  0  0
   -3.9089   -1.4702    0.7442 H   0  0  0  0  0  0  0  0  0  0  0  0
   -2.9236   -2.5316   -0.2931 H   0  0  0  0  0  0  0  0  0  0  0  0
   -1.8027   -1.4416    1.1845 C   0  0  0  0  0  0  0  0  0  0  0  0
   -1.2777   -1.7781    2.2308 O   0  0  0  0  0  0  0  0  0  0  0  0
   -1.3928   -0.3086    0.5136 N   0  0  0  0  0  0  0  0  0  0  0  0
   -1.9989   -0.0429   -0.2566 H   0  0  0  0  0  0  0  0  0  0  0  0
   -0.0432    0.3125    0.4945 C   0  0  1  0  0  0  0  0  0  0  0  0
    0.1176    0.8292    1.4460 H   0  0  0  0  0  0  0  0  0  0  0  0
    1.1600   -0.6408    0.2214 C   0  0  1  0  0  0  0  0  0  0  0  0
    2.0504   -0.0011    0.1955 H   0  0  0  0  0  0  0  0  0  0  0  0
    1.4671   -1.7206    1.2552 C   0  0  0  0  0  0  0  0  0  0  0  0
    0.8097   -2.5849    1.1300 H   0  0  0  0  0  0  0  0  0  0  0  0
    2.4984   -2.0657    1.1387 H   0  0  0  0  0  0  0  0  0  0  0  0
    1.3536   -1.3238    2.2686 H   0  0  0  0  0  0  0  0  0  0  0  0
    1.0290   -1.2610   -1.0654 O   0  0  0  0  0  0  0  0  0  0  0  0
    1.8128   -1.8080   -1.2511 H   0  0  0  0  0  0  0  0  0  0  0  0
    0.0565    1.3349   -0.6560 C   0  0  0  0  0  0  0  0  0  0  0  0
    0.6908    2.3695   -0.4942 O   0  0  0  0  0  0  0  0  0  0  0  0
   -0.6796    1.1601   -1.8174 N   0  0  0  0  0  0  0  0  0  0  0  0
   -0.8973    0.1898   -2.0301 H   0  0  0  0  0  0  0  0  0  0  0  0
   -0.5954    2.0927   -2.9350 C   0  0  0  0  0  0  0  0  0  0  0  0
    0.4240    2.1226   -3.3337 H   0  0  0  0  0  0  0  0  0  0  0  0
   -1.2740    1.7838   -3.7359 H   0  0  0  0  0  0  0  0  0  0  0  0
   -0.8785    3.1014   -2.6158 H   0  0  0  0  0  0  0  0  0  0  0  0
  1  2  1  0  0  0  0
  2  3  1  0  0  0  0
  2  4  1  0  0  0  0
  2  5  1  0  0  0  0
  5  6  2  0  0  0  0
  5  7  1  0  0  0  0
  7  8  1  0  0  0  0
  7  9  1  0  0  0  0
  9 10  1  0  0  0  0
  9 11  1  0  0  0  0
  9 19  1  0  0  0  0
 11 12  1  0  0  0  0
 11 13  1  0  0  0  0
 11 17  1  0  0  0  0
 13 14  1  0  0  0  0
 13 15  1  0  0  0  0
 13 16  1  0  0  0  0
 17 18  1  0  0  0  0
 19 20  2  0  0  0  0
 19 21  1  0  0  0  0
 21 22  1  0  0  0  0
 21 23  1  0  0  0  0
 23 24  1  0  0  0  0
 23 25  1  0  0  0  0
 23 26  1  0  0  0  0
M  END
$$$$

  -OEChem-01062216093D

 26 25  0     1  0  0  0  0  0999 V2000
   -3.2414   -3.0357    1.4267 H   0  0  0  0  0  0  0  0  0  0  0  0
   -3.0418   -2.1923    0.7595 C   0  0  0  0  0  0  0  0  0  0  0  0
   -3.9039   -1.5210    0.7744 H   0  0  0  0  0  0  0  0  0  0  0  0
   -2.9003   -2.5734   -0.2546 H   0  0  0  0  0  0  0  0  0  0  0  0
   -1.7972   -1.4517    1.2119 C   0  0  0  0  0  0  0  0  0  0  0  0
   -1.2715   -1.7622    2.2660 O   0  0  0  0  0  0  0  0  0  0  0  0
   -1.4035   -0.3221    0.5254 N   0  0  0  0  0  0  0  0  0  0  0  0
   -2.0241   -0.0658   -0.2340 H   0  0  0  0  0  0  0  0  0  0  0  0
   -0.0600    0.3147    0.4940 C   0  0  1  0  0  0  0  0  0  0  0  0
    0.1040    0.8364    1.4419 H   0  0  0  0  0  0  0  0  0  0  0  0
    1.1404   -0.6435    0.2172 C   0  0  1  0  0  0  0  0  0  0  0  0
    2.0352   -0.0105    0.1795 H   0  0  0  0  0  0  0  0  0  0  0  0
    1.4568   -1.7210    1.2510 C   0  0  0  0  0  0  0  0  0  0  0  0
    0.7956   -2.5838    1.1372 H   0  0  0  0  0  0  0  0  0  0  0  0
    2.4853   -2.0701    1.1221 H   0  0  0  0  0  0  0  0  0  0  0  0
    1.3583   -1.3196    2.2642 H   0  0  0  0  0  0  0  0  0  0  0  0
    0.9883   -1.2669   -1.0655 O   0  0  0  0  0  0  0  0  0  0  0  0
    1.7778   -1.7974   -1.2723 H   0  0  0  0  0  0  0  0  0  0  0  0
    0.0518    1.3326   -0.6638 C   0  0  0  0  0  0  0  0  0  0  0  0
    0.8611    2.2485   -0.5811 O   0  0  0  0  0  0  0  0  0  0  0  0
   -0.8722    1.3469   -1.6985 N   0  0  0  0  0  0  0  0  0  0  0  0
   -1.2926    0.4472   -1.9073 H   0  0  0  0  0  0  0  0  0  0  0  0
   -0.8059    2.3226   -2.7807 C   0  0  0  0  0  0  0  0  0  0  0  0
    0.1304    2.2146   -3.3382 H   0  0  0  0  0  0  0  0  0  0  0  0
   -1.6418    2.1770   -3.4716 H   0  0  0  0  0  0  0  0  0  0  0  0
   -0.8637    3.3416   -2.3833 H   0  0  0  0  0  0  0  0  0  0  0  0
  1  2  1  0  0  0  0
  2  3  1  0  0  0  0
  2  4  1  0  0  0  0
  2  5  1  0  0  0  0
  5  6  2  0  0  0  0
  5  7  1  0  0  0  0
  7  8  1  0  0  0  0
  7  9  1  0  0  0  0
  9 10  1  0  0  0  0
  9 11  1  0  0  0  0
  9 19  1  0  0  0  0
 11 12  1  0  0  0  0
 11 13  1  0  0  0  0
 11 17  1  0  0  0  0
 13 14  1  0  0  0  0
 13 15  1  0  0  0  0
 13 16  1  0  0  0  0
 17 18  1  0  0  0  0
 19 20  2  0  0  0  0
 19 21  1  0  0  0  0
 21 22  1  0  0  0  0
 21 23  1  0  0  0  0
 23 24  1  0  0  0  0
 23 25  1  0  0  0  0
 23 26  1  0  0  0  0
M  END
$$$$

  -OEChem-01062216093D

 26 25  0     1  0  0  0  0  0999 V2000
   -2.9595   -3.1418    1.4568 H   0  0  0  0  0  0  0  0  0  0  0  0
   -2.8096   -2.3265    0.7433 C   0  0  0  0  0  0  0  0  0  0  0  0
   -3.7634   -1.8184    0.5835 H   0  0  0  0  0  0  0  0  0  0  0  0
   -2.4634   -2.7488   -0.2033 H   0  0  0  0  0  0  0  0  0  0  0  0
   -1.7814   -1.3483    1.2790 C   0  0  0  0  0  0  0  0  0  0  0  0
   -1.3743   -1.4622    2.4227 O   0  0  0  0  0  0  0  0  0  0  0  0
   -1.4442   -0.2360    0.5385 N   0  0  0  0  0  0  0  0  0  0  0  0
   -1.8963   -0.2748   -0.3680 H   0  0  0  0  0  0  0  0  0  0  0  0
   -0.0761    0.3422    0.4630 C   0  0  1  0  0  0  0  0  0  0  0  0
    0.1292    0.8747    1.3966 H   0  0  0  0  0  0  0  0  0  0  0  0
    1.0594   -0.7022    0.2106 C   0  0  1  0  0  0  0  0  0  0  0  0
    1.9940   -0.1357    0.1305 H   0  0  0  0  0  0  0  0  0  0  0  0
    1.3322   -1.7522    1.2867 C   0  0  0  0  0  0  0  0  0  0  0  0
    0.6115   -2.5722    1.2361 H   0  0  0  0  0  0  0  0  0  0  0  0
    2.3299   -2.1772    1.1452 H   0  0  0  0  0  0  0  0  0  0  0  0
    1.2940   -1.2985    2.2818 H   0  0  0  0  0  0  0  0  0  0  0  0
    0.8344   -1.3630   -1.0407 O   0  0  0  0  0  0  0  0  0  0  0  0
    1.6212   -1.8777   -1.2923 H   0  0  0  0  0  0  0  0  0  0  0  0
    0.0553    1.3482   -0.7097 C   0  0  0  0  0  0  0  0  0  0  0  0
    1.1003    1.9650   -0.8840 O   0  0  0  0  0  0  0  0  0  0  0  0
   -1.0146    1.6290   -1.5478 N   0  0  0  0  0  0  0  0  0  0  0  0
   -1.9265    1.2968   -1.2577 H   0  0  0  0  0  0  0  0  0  0  0  0
   -0.9513    2.6340   -2.6029 C   0  0  0  0  0  0  0  0  0  0  0  0
   -0.1502    2.3959   -3.3106 H   0  0  0  0  0  0  0  0  0  0  0  0
   -1.8968    2.6649   -3.1527 H   0  0  0  0  0  0  0  0  0  0  0  0
   -0.7635    3.6257   -2.1783 H   0  0  0  0  0  0  0  0  0  0  0  0
  1  2  1  0  0  0  0
  2  3  1  0  0  0  0
  2  4  1  0  0  0  0
  2  5  1  0  0  0  0
  5  6  2  0  0  0  0
  5  7  1  0  0  0  0
  7  8  1  0  0  0  0
  7  9  1  0  0  0  0
  9 10  1  0  0  0  0
  9 11  1  0  0  0  0
  9 19  1  0  0  0  0
 11 12  1  0  0  0  0
 11 13  1  0  0  0  0
 11 17  1  0  0  0  0
 13 14  1  0  0  0  0
 13 15  1  0  0  0  0
 13 16  1  0  0  0  0
 17 18  1  0  0  0  0
 19 20  2  0  0  0  0
 19 21  1  0  0  0  0
 21 22  1  0  0  0  0
 21 23  1  0  0  0  0
 23 24  1  0  0  0  0
 23 25  1  0  0  0  0
 23 26  1  0  0  0  0
M  END
$$$$

  -OEChem-01062216093D

 26 25  0     1  0  0  0  0  0999 V2000
   -2.9612   -3.1364    1.4053 H   0  0  0  0  0  0  0  0  0  0  0  0
   -2.8142   -2.3070    0.7078 C   0  0  0  0  0  0  0  0  0  0  0  0
   -3.7675   -1.7928    0.5651 H   0  0  0  0  0  0  0  0  0  0  0  0
   -2.4761   -2.7107   -0.2498 H   0  0  0  0  0  0  0  0  0  0  0  0
   -1.7792   -1.3427    1.2557 C   0  0  0  0  0  0  0  0  0  0  0  0
   -1.3876   -1.4607    2.4044 O   0  0  0  0  0  0  0  0  0  0  0  0
   -1.4253   -0.2313    0.5223 N   0  0  0  0  0  0  0  0  0  0  0  0
   -1.8729   -0.2568   -0.3891 H   0  0  0  0  0  0  0  0  0  0  0  0
   -0.0530    0.3370    0.4514 C   0  0  1  0  0  0  0  0  0  0  0  0
    0.1511    0.8763    1.3813 H   0  0  0  0  0  0  0  0  0  0  0  0
    1.0786   -0.7168    0.2188 C   0  0  1  0  0  0  0  0  0  0  0  0
    2.0170   -0.1563    0.1415 H   0  0  0  0  0  0  0  0  0  0  0  0
    1.3361   -1.7566    1.3090 C   0  0  0  0  0  0  0  0  0  0  0  0
    0.6149   -2.5760    1.2567 H   0  0  0  0  0  0  0  0  0  0  0  0
    2.3352   -2.1842    1.1855 H   0  0  0  0  0  0  0  0  0  0  0  0
    1.2843   -1.2936    2.2992 H   0  0  0  0  0  0  0  0  0  0  0  0
    0.8581   -1.3885   -1.0275 O   0  0  0  0  0  0  0  0  0  0  0  0
    1.6553   -1.8824   -1.2871 H   0  0  0  0  0  0  0  0  0  0  0  0
    0.0542    1.3407   -0.7272 C   0  0  0  0  0  0  0  0  0  0  0  0
    1.1315    1.8030   -1.0863 O   0  0  0  0  0  0  0  0  0  0  0  0
   -1.0964    1.8262   -1.3318 N   0  0  0  0  0  0  0  0  0  0  0  0
   -1.9694    1.6417   -0.8479 H   0  0  0  0  0  0  0  0  0  0  0  0
   -1.0783    2.8763   -2.3440 C   0  0  0  0  0  0  0  0  0  0  0  0
   -0.4622    2.5752   -3.1980 H   0  0  0  0  0  0  0  0  0  0  0  0
   -2.0926    3.0710   -2.7050 H   0  0  0  0  0  0  0  0  0  0  0  0
   -0.6736    3.8044   -1.9271 H   0  0  0  0  0  0  0  0  0  0  0  0
  1  2  1  0  0  0  0
  2  3  1  0  0  0  0
  2  4  1  0  0  0  0
  2  5  1  0  0  0  0
  5  6  2  0  0  0  0
  5  7  1  0  0  0  0
  7  8  1  0  0  0  0
  7  9  1  0  0  0  0
  9 10  1  0  0  0  0
  9 11  1  0  0  0  0
  9 19  1  0  0  0  0
 11 12  1  0  0  0  0
 11 13  1  0  0  0  0
 11 17  1  0  0  0  0
 13 14  1  0  0  0  0
 13 15  1  0  0  0  0
 13 16  1  0  0  0  0
 17 18  1  0  0  0  0
 19 20  2  0  0  0  0
 19 21  1  0  0  0  0
 21 22  1  0  0  0  0
 21 23  1  0  0  0  0
 23 24  1  0  0  0  0
 23 25  1  0  0  0  0
 23 26  1  0  0  0  0
M  END
$$$$

  -OEChem-01062216093D

 26 25  0     1  0  0  0  0  0999 V2000
   -3.0147   -3.0951    1.4126 H   0  0  0  0  0  0  0  0  0  0  0  0
   -2.8233   -2.2919    0.6955 C   0  0  0  0  0  0  0  0  0  0  0  0
   -3.7563   -1.7545    0.5104 H   0  0  0  0  0  0  0  0  0  0  0  0
   -2.4711   -2.7336   -0.2401 H   0  0  0  0  0  0  0  0  0  0  0  0
   -1.7753   -1.3424    1.2434 C   0  0  0  0  0  0  0  0  0  0  0  0
   -1.3852   -1.4646    2.3924 O   0  0  0  0  0  0  0  0  0  0  0  0
   -1.4150   -0.2301    0.5150 N   0  0  0  0  0  0  0  0  0  0  0  0
   -1.8776   -0.2305   -0.3900 H   0  0  0  0  0  0  0  0  0  0  0  0
   -0.0416    0.3327    0.4404 C   0  0  1  0  0  0  0  0  0  0  0  0
    0.1646    0.8753    1.3676 H   0  0  0  0  0  0  0  0  0  0  0  0
    1.0873   -0.7266    0.2179 C   0  0  1  0  0  0  0  0  0  0  0  0
    2.0254   -0.1661    0.1370 H   0  0  0  0  0  0  0  0  0  0  0  0
    1.3447   -1.7567    1.3168 C   0  0  0  0  0  0  0  0  0  0  0  0
    0.6256   -2.5782    1.2692 H   0  0  0  0  0  0  0  0  0  0  0  0
    2.3448   -2.1834    1.1979 H   0  0  0  0  0  0  0  0  0  0  0  0
    1.2902   -1.2859    2.3030 H   0  0  0  0  0  0  0  0  0  0  0  0
    0.8681   -1.4105   -1.0220 O   0  0  0  0  0  0  0  0  0  0  0  0
    1.6790   -1.8721   -1.2972 H   0  0  0  0  0  0  0  0  0  0  0  0
    0.0442    1.3372   -0.7396 C   0  0  0  0  0  0  0  0  0  0  0  0
    1.1018    1.6464   -1.2776 O   0  0  0  0  0  0  0  0  0  0  0  0
   -1.0954    2.0383   -1.1029 N   0  0  0  0  0  0  0  0  0  0  0  0
   -1.9041    1.9304   -0.4972 H   0  0  0  0  0  0  0  0  0  0  0  0
   -1.0910    3.1274   -2.0731 C   0  0  0  0  0  0  0  0  0  0  0  0
   -0.7027    2.7813   -3.0368 H   0  0  0  0  0  0  0  0  0  0  0  0
   -2.1081    3.5002   -2.2269 H   0  0  0  0  0  0  0  0  0  0  0  0
   -0.4674    3.9545   -1.7180 H   0  0  0  0  0  0  0  0  0  0  0  0
  1  2  1  0  0  0  0
  2  3  1  0  0  0  0
  2  4  1  0  0  0  0
  2  5  1  0  0  0  0
  5  6  2  0  0  0  0
  5  7  1  0  0  0  0
  7  8  1  0  0  0  0
  7  9  1  0  0  0  0
  9 10  1  0  0  0  0
  9 11  1  0  0  0  0
  9 19  1  0  0  0  0
 11 12  1  0  0  0  0
 11 13  1  0  0  0  0
 11 17  1  0  0  0  0
 13 14  1  0  0  0  0
 13 15  1  0  0  0  0
 13 16  1  0  0  0  0
 17 18  1  0  0  0  0
 19 20  2  0  0  0  0
 19 21  1  0  0  0  0
 21 22  1  0  0  0  0
 21 23  1  0  0  0  0
 23 24  1  0  0  0  0
 23 25  1  0  0  0  0
 23 26  1  0  0  0  0
M  END
$$$$

  -OEChem-01062216093D

 26 25  0     1  0  0  0  0  0999 V2000
   -3.0349   -3.0836    1.4024 H   0  0  0  0  0  0  0  0  0  0  0  0
   -2.8357   -2.2806    0.6872 C   0  0  0  0  0  0  0  0  0  0  0  0
   -3.7631   -1.7323    0.5050 H   0  0  0  0  0  0  0  0  0  0  0  0
   -2.4897   -2.7233   -0.2502 H   0  0  0  0  0  0  0  0  0  0  0  0
   -1.7753   -1.3449    1.2350 C   0  0  0  0  0  0  0  0  0  0  0  0
   -1.3807   -1.4775    2.3813 O   0  0  0  0  0  0  0  0  0  0  0  0
   -1.4121   -0.2288    0.5140 N   0  0  0  0  0  0  0  0  0  0  0  0
   -1.8936   -0.2045   -0.3809 H   0  0  0  0  0  0  0  0  0  0  0  0
   -0.0374    0.3270    0.4288 C   0  0  1  0  0  0  0  0  0  0  0  0
    0.1760    0.8684    1.3551 H   0  0  0  0  0  0  0  0  0  0  0  0
    1.0887   -0.7369    0.2130 C   0  0  1  0  0  0  0  0  0  0  0  0
    2.0228   -0.1717    0.1185 H   0  0  0  0  0  0  0  0  0  0  0  0
    1.3551   -1.7511    1.3246 C   0  0  0  0  0  0  0  0  0  0  0  0
    0.6408   -2.5775    1.2880 H   0  0  0  0  0  0  0  0  0  0  0  0
    2.3576   -2.1732    1.2092 H   0  0  0  0  0  0  0  0  0  0  0  0
    1.2990   -1.2688    2.3052 H   0  0  0  0  0  0  0  0  0  0  0  0
    0.8699   -1.4379   -1.0172 O   0  0  0  0  0  0  0  0  0  0  0  0
    1.6933   -1.8630   -1.3128 H   0  0  0  0  0  0  0  0  0  0  0  0
    0.0292    1.3389   -0.7458 C   0  0  0  0  0  0  0  0  0  0  0  0
    1.0106    1.4914   -1.4648 O   0  0  0  0  0  0  0  0  0  0  0  0
   -1.0062    2.2510   -0.8709 N   0  0  0  0  0  0  0  0  0  0  0  0
   -1.7370    2.2132   -0.1651 H   0  0  0  0  0  0  0  0  0  0  0  0
   -0.9929    3.3651   -1.8119 C   0  0  0  0  0  0  0  0  0  0  0  0
   -0.8813    2.9990   -2.8380 H   0  0  0  0  0  0  0  0  0  0  0  0
   -1.9302    3.9257   -1.7468 H   0  0  0  0  0  0  0  0  0  0  0  0
   -0.1650    4.0463   -1.5886 H   0  0  0  0  0  0  0  0  0  0  0  0
  1  2  1  0  0  0  0
  2  3  1  0  0  0  0
  2  4  1  0  0  0  0
  2  5  1  0  0  0  0
  5  6  2  0  0  0  0
  5  7  1  0  0  0  0
  7  8  1  0  0  0  0
  7  9  1  0  0  0  0
  9 10  1  0  0  0  0
  9 11  1  0  0  0  0
  9 19  1  0  0  0  0
 11 12  1  0  0  0  0
 11 13  1  0  0  0  0
 11 17  1  0  0  0  0
 13 14  1  0  0  0  0
 13 15  1  0  0  0  0
 13 16  1  0  0  0  0
 17 18  1  0  0  0  0
 19 20  2  0  0  0  0
 19 21  1  0  0  0  0
 21 22  1  0  0  0  0
 21 23  1  0  0  0  0
 23 24  1  0  0  0  0
 23 25  1  0  0  0  0
 23 26  1  0  0  0  0
M  END
$$$$

  -OEChem-01062216093D

 26 25  0     1  0  0  0  0  0999 V2000
   -3.0361   -3.0858    1.3986 H   0  0  0  0  0  0  0  0  0  0  0  0
   -2.8388   -2.2794    0.6866 C   0  0  0  0  0  0  0  0  0  0  0  0
   -3.7654   -1.7275    0.5125 H   0  0  0  0  0  0  0  0  0  0  0  0
   -2.4994   -2.7180   -0.2552 H   0  0  0  0  0  0  0  0  0  0  0  0
   -1.7730   -1.3493    1.2339 C   0  0  0  0  0  0  0  0  0  0  0  0
   -1.3726   -1.4890    2.3775 O   0  0  0  0  0  0  0  0  0  0  0  0
   -1.4165   -0.2256    0.5217 N   0  0  0  0  0  0  0  0  0  0  0  0
   -1.9165   -0.1834   -0.3624 H   0  0  0  0  0  0  0  0  0  0  0  0
   -0.0420    0.3234    0.4180 C   0  0  1  0  0  0  0  0  0  0  0  0
    0.1835    0.8576    1.3456 H   0  0  0  0  0  0  0  0  0  0  0  0
    1.0791   -0.7459    0.2021 C   0  0  1  0  0  0  0  0  0  0  0  0
    2.0073   -0.1749    0.0839 H   0  0  0  0  0  0  0  0  0  0  0  0
    1.3664   -1.7382    1.3282 C   0  0  0  0  0  0  0  0  0  0  0  0
    0.6631   -2.5749    1.3087 H   0  0  0  0  0  0  0  0  0  0  0  0
    2.3740   -2.1480    1.2129 H   0  0  0  0  0  0  0  0  0  0  0  0
    1.3092   -1.2415    2.3016 H   0  0  0  0  0  0  0  0  0  0  0  0
    0.8568   -1.4668   -1.0158 O   0  0  0  0  0  0  0  0  0  0  0  0
    1.6866   -1.8656   -1.3286 H   0  0  0  0  0  0  0  0  0  0  0  0
    0.0105    1.3509   -0.7427 C   0  0  0  0  0  0  0  0  0  0  0  0
    0.8442    1.3474   -1.6411 O   0  0  0  0  0  0  0  0  0  0  0  0
   -0.8279    2.4493   -0.6528 N   0  0  0  0  0  0  0  0  0  0  0  0
   -1.4563    2.4869    0.1456 H   0  0  0  0  0  0  0  0  0  0  0  0
   -0.7999    3.5718   -1.5836 C   0  0  0  0  0  0  0  0  0  0  0  0
   -0.9993    3.2289   -2.6043 H   0  0  0  0  0  0  0  0  0  0  0  0
   -1.5632    4.3071   -1.3115 H   0  0  0  0  0  0  0  0  0  0  0  0
    0.1780    4.0641   -1.5612 H   0  0  0  0  0  0  0  0  0  0  0  0
  1  2  1  0  0  0  0
  2  3  1  0  0  0  0
  2  4  1  0  0  0  0
  2  5  1  0  0  0  0
  5  6  2  0  0  0  0
  5  7  1  0  0  0  0
  7  8  1  0  0  0  0
  7  9  1  0  0  0  0
  9 10  1  0  0  0  0
  9 11  1  0  0  0  0
  9 19  1  0  0  0  0
 11 12  1  0  0  0  0
 11 13  1  0  0  0  0
 11 17  1  0  0  0  0
 13 14  1  0  0  0  0
 13 15  1  0  0  0  0
 13 16  1  0  0  0  0
 17 18  1  0  0  0  0
 19 20  2  0  0  0  0
 19 21  1  0  0  0  0
 21 22  1  0  0  0  0
 21 23  1  0  0  0  0
 23 24  1  0  0  0  0
 23 25  1  0  0  0  0
 23 26  1  0  0  0  0
M  END
$$$$

  -OEChem-01062216093D

 26 25  0     1  0  0  0  0  0999 V2000
   -3.0065   -3.1188    1.3336 H   0  0  0  0  0  0  0  0  0  0  0  0
   -2.8421   -2.2770    0.6552 C   0  0  0  0  0  0  0  0  0  0  0  0
   -3.7831   -1.7370    0.5271 H   0  0  0  0  0  0  0  0  0  0  0  0
   -2.5159   -2.6656   -0.3127 H   0  0  0  0  0  0  0  0  0  0  0  0
   -1.7823   -1.3512    1.2206 C   0  0  0  0  0  0  0  0  0  0  0  0
   -1.3838   -1.5087    2.3628 O   0  0  0  0  0  0  0  0  0  0  0  0
   -1.4266   -0.2141    0.5300 N   0  0  0  0  0  0  0  0  0  0  0  0
   -1.9311   -0.1522   -0.3506 H   0  0  0  0  0  0  0  0  0  0  0  0
   -0.0491    0.3221    0.4238 C   0  0  1  0  0  0  0  0  0  0  0  0
    0.1797    0.8369    1.3614 H   0  0  0  0  0  0  0  0  0  0  0  0
    1.0719   -0.7476    0.2069 C   0  0  1  0  0  0  0  0  0  0  0  0
    1.9942   -0.1688    0.0824 H   0  0  0  0  0  0  0  0  0  0  0  0
    1.3656   -1.7312    1.3387 C   0  0  0  0  0  0  0  0  0  0  0  0
    0.6674   -2.5720    1.3238 H   0  0  0  0  0  0  0  0  0  0  0  0
    2.3752   -2.1361    1.2253 H   0  0  0  0  0  0  0  0  0  0  0  0
    1.3048   -1.2303    2.3095 H   0  0  0  0  0  0  0  0  0  0  0  0
    0.8646   -1.4795   -1.0058 O   0  0  0  0  0  0  0  0  0  0  0  0
    1.6971   -1.8774   -1.3113 H   0  0  0  0  0  0  0  0  0  0  0  0
    0.0125    1.3776   -0.7106 C   0  0  0  0  0  0  0  0  0  0  0  0
    0.5821    1.2234   -1.7837 O   0  0  0  0  0  0  0  0  0  0  0  0
   -0.5459    2.6186   -0.4554 N   0  0  0  0  0  0  0  0  0  0  0  0
   -1.0200    2.7408    0.4356 H   0  0  0  0  0  0  0  0  0  0  0  0
   -0.5321    3.7255   -1.4053 C   0  0  0  0  0  0  0  0  0  0  0  0
   -1.0608    3.4494   -2.3237 H   0  0  0  0  0  0  0  0  0  0  0  0
   -1.0254    4.6009   -0.9722 H   0  0  0  0  0  0  0  0  0  0  0  0
    0.4970    4.0001   -1.6599 H   0  0  0  0  0  0  0  0  0  0  0  0
  1  2  1  0  0  0  0
  2  3  1  0  0  0  0
  2  4  1  0  0  0  0
  2  5  1  0  0  0  0
  5  6  2  0  0  0  0
  5  7  1  0  0  0  0
  7  8  1  0  0  0  0
  7  9  1  0  0  0  0
  9 10  1  0  0  0  0
  9 11  1  0  0  0  0
  9 19  1  0  0  0  0
 11 12  1  0  0  0  0
 11 13  1  0  0  0  0
 11 17  1  0  0  0  0
 13 14  1  0  0  0  0
 13 15  1  0  0  0  0
 13 16  1  0  0  0  0
 17 18  1  0  0  0  0
 19 20  2  0  0  0  0
 19 21  1  0  0  0  0
 21 22  1  0  0  0  0
 21 23  1  0  0  0  0
 23 24  1  0  0  0  0
 23 25  1  0  0  0  0
 23 26  1  0  0  0  0
M  END
$$$$

  -OEChem-01062216093D

 26 25  0     1  0  0  0  0  0999 V2000
   -3.0676   -3.0782    1.2565 H   0  0  0  0  0  0  0  0  0  0  0  0
   -2.8855   -2.2168    0.6079 C   0  0  0  0  0  0  0  0  0  0  0  0
   -3.8091   -1.6403    0.5170 H   0  0  0  0  0  0  0  0  0  0  0  0
   -2.5890   -2.5781   -0.3802 H   0  0  0  0  0  0  0  0  0  0  0  0
   -1.7864   -1.3483    1.1890 C   0  0  0  0  0  0  0  0  0  0  0  0
   -1.3778   -1.5595    2.3190 O   0  0  0  0  0  0  0  0  0  0  0  0
   -1.4025   -0.2035    0.5277 N   0  0  0  0  0  0  0  0  0  0  0  0
   -1.9007   -0.1022   -0.3538 H   0  0  0  0  0  0  0  0  0  0  0  0
   -0.0186    0.3127    0.4428 C   0  0  1  0  0  0  0  0  0  0  0  0
    0.1988    0.8091    1.3931 H   0  0  0  0  0  0  0  0  0  0  0  0
    1.1183   -0.7381    0.2225 C   0  0  1  0  0  0  0  0  0  0  0  0
    2.0355   -0.1466    0.1241 H   0  0  0  0  0  0  0  0  0  0  0  0
    1.3945   -1.7344    1.3473 C   0  0  0  0  0  0  0  0  0  0  0  0
    0.6992   -2.5770    1.3075 H   0  0  0  0  0  0  0  0  0  0  0  0
    2.4080   -2.1340    1.2500 H   0  0  0  0  0  0  0  0  0  0  0  0
    1.3120   -1.2464    2.3232 H   0  0  0  0  0  0  0  0  0  0  0  0
    0.9528   -1.4603   -1.0003 O   0  0  0  0  0  0  0  0  0  0  0  0
    1.7639   -1.9432   -1.2303 H   0  0  0  0  0  0  0  0  0  0  0  0
    0.0528    1.3868   -0.6692 C   0  0  0  0  0  0  0  0  0  0  0  0
    0.1437    1.1258   -1.8616 O   0  0  0  0  0  0  0  0  0  0  0  0
   -0.1879    2.7046   -0.3185 N   0  0  0  0  0  0  0  0  0  0  0  0
   -0.3859    2.8990    0.6591 H   0  0  0  0  0  0  0  0  0  0  0  0
   -0.2804    3.7940   -1.2840 C   0  0  0  0  0  0  0  0  0  0  0  0
   -1.1132    3.6259   -1.9747 H   0  0  0  0  0  0  0  0  0  0  0  0
   -0.4460    4.7440   -0.7669 H   0  0  0  0  0  0  0  0  0  0  0  0
    0.6466    3.8733   -1.8617 H   0  0  0  0  0  0  0  0  0  0  0  0
  1  2  1  0  0  0  0
  2  3  1  0  0  0  0
  2  4  1  0  0  0  0
  2  5  1  0  0  0  0
  5  6  2  0  0  0  0
  5  7  1  0  0  0  0
  7  8  1  0  0  0  0
  7  9  1  0  0  0  0
  9 10  1  0  0  0  0
  9 11  1  0  0  0  0
  9 19  1  0  0  0  0
 11 12  1  0  0  0  0
 11 13  1  0  0  0  0
 11 17  1  0  0  0  0
 13 14  1  0  0  0  0
 13 15  1  0  0  0  0
 13 16  1  0  0  0  0
 17 18  1  0  0  0  0
 19 20  2  0  0  0  0
 19 21  1  0  0  0  0
 21 22  1  0  0  0  0
 21 23  1  0  0  0  0
 23 24  1  0  0  0  0
 23 25  1  0  0  0  0
 23 26  1  0  0  0  0
M  END
$$$$

  -OEChem-01062216093D

 26 25  0     1  0  0  0  0  0999 V2000
   -3.1202   -3.0345    1.2217 H   0  0  0  0  0  0  0  0  0  0  0  0
   -2.9203   -2.1678    0.5857 C   0  0  0  0  0  0  0  0  0  0  0  0
   -3.8288   -1.5652    0.5124 H   0  0  0  0  0  0  0  0  0  0  0  0
   -2.6424   -2.5201   -0.4109 H   0  0  0  0  0  0  0  0  0  0  0  0
   -1.7932   -1.3387    1.1710 C   0  0  0  0  0  0  0  0  0  0  0  0
   -1.3782   -1.5836    2.2921 O   0  0  0  0  0  0  0  0  0  0  0  0
   -1.3783   -0.1996    0.5194 N   0  0  0  0  0  0  0  0  0  0  0  0
   -1.8573   -0.0752   -0.3713 H   0  0  0  0  0  0  0  0  0  0  0  0
    0.0088    0.3086    0.4721 C   0  0  1  0  0  0  0  0  0  0  0  0
    0.2048    0.7995    1.4295 H   0  0  0  0  0  0  0  0  0  0  0  0
    1.1600   -0.7219    0.2459 C   0  0  1  0  0  0  0  0  0  0  0  0
    2.0773   -0.1252    0.1896 H   0  0  0  0  0  0  0  0  0  0  0  0
    1.4051   -1.7528    1.3460 C   0  0  0  0  0  0  0  0  0  0  0  0
    0.7019   -2.5861    1.2682 H   0  0  0  0  0  0  0  0  0  0  0  0
    2.4165   -2.1595    1.2575 H   0  0  0  0  0  0  0  0  0  0  0  0
    1.3077   -1.2920    2.3337 H   0  0  0  0  0  0  0  0  0  0  0  0
    1.0249   -1.4080   -1.0002 O   0  0  0  0  0  0  0  0  0  0  0  0
    1.8086   -1.9520   -1.1846 H   0  0  0  0  0  0  0  0  0  0  0  0
    0.0983    1.3736   -0.6435 C   0  0  0  0  0  0  0  0  0  0  0  0
   -0.1957    1.1158   -1.8050 O   0  0  0  0  0  0  0  0  0  0  0  0
    0.1667    2.7095   -0.2845 N   0  0  0  0  0  0  0  0  0  0  0  0
    0.2398    2.9256    0.7055 H   0  0  0  0  0  0  0  0  0  0  0  0
    0.0121    3.8083   -1.2312 C   0  0  0  0  0  0  0  0  0  0  0  0
   -0.9772    3.7751   -1.6995 H   0  0  0  0  0  0  0  0  0  0  0  0
    0.1190    4.7682   -0.7167 H   0  0  0  0  0  0  0  0  0  0  0  0
    0.7754    3.7495   -2.0143 H   0  0  0  0  0  0  0  0  0  0  0  0
  1  2  1  0  0  0  0
  2  3  1  0  0  0  0
  2  4  1  0  0  0  0
  2  5  1  0  0  0  0
  5  6  2  0  0  0  0
  5  7  1  0  0  0  0
  7  8  1  0  0  0  0
  7  9  1  0  0  0  0
  9 10  1  0  0  0  0
  9 11  1  0  0  0  0
  9 19  1  0  0  0  0
 11 12  1  0  0  0  0
 11 13  1  0  0  0  0
 11 17  1  0  0  0  0
 13 14  1  0  0  0  0
 13 15  1  0  0  0  0
 13 16  1  0  0  0  0
 17 18  1  0  0  0  0
 19 20  2  0  0  0  0
 19 21  1  0  0  0  0
 21 22  1  0  0  0  0
 21 23  1  0  0  0  0
 23 24  1  0  0  0  0
 23 25  1  0  0  0  0
 23 26  1  0  0  0  0
M  END
$$$$

  -OEChem-01062216093D

 26 25  0     1  0  0  0  0  0999 V2000
   -3.1411   -3.0266    1.2197 H   0  0  0  0  0  0  0  0  0  0  0  0
   -2.9364   -2.1585    0.5871 C   0  0  0  0  0  0  0  0  0  0  0  0
   -3.8395   -1.5469    0.5224 H   0  0  0  0  0  0  0  0  0  0  0  0
   -2.6679   -2.5077   -0.4131 H   0  0  0  0  0  0  0  0  0  0  0  0
   -1.7978   -1.3434    1.1699 C   0  0  0  0  0  0  0  0  0  0  0  0
   -1.3754   -1.6028    2.2850 O   0  0  0  0  0  0  0  0  0  0  0  0
   -1.3714   -0.2089    0.5179 N   0  0  0  0  0  0  0  0  0  0  0  0
   -1.8427   -0.0723   -0.3760 H   0  0  0  0  0  0  0  0  0  0  0  0
    0.0116    0.3114    0.4936 C   0  0  1  0  0  0  0  0  0  0  0  0
    0.1907    0.8058    1.4523 H   0  0  0  0  0  0  0  0  0  0  0  0
    1.1746   -0.7024    0.2611 C   0  0  1  0  0  0  0  0  0  0  0  0
    2.0906   -0.1017    0.2300 H   0  0  0  0  0  0  0  0  0  0  0  0
    1.4085   -1.7598    1.3379 C   0  0  0  0  0  0  0  0  0  0  0  0
    0.6991   -2.5856    1.2389 H   0  0  0  0  0  0  0  0  0  0  0  0
    2.4171   -2.1723    1.2435 H   0  0  0  0  0  0  0  0  0  0  0  0
    1.3115   -1.3205    2.3353 H   0  0  0  0  0  0  0  0  0  0  0  0
    1.0514   -1.3610   -1.0010 O   0  0  0  0  0  0  0  0  0  0  0  0
    1.8117   -1.9441   -1.1641 H   0  0  0  0  0  0  0  0  0  0  0  0
    0.1105    1.3642   -0.6317 C   0  0  0  0  0  0  0  0  0  0  0  0
   -0.4092    1.1667   -1.7256 O   0  0  0  0  0  0  0  0  0  0  0  0
    0.4706    2.6631   -0.3126 N   0  0  0  0  0  0  0  0  0  0  0  0
    0.7484    2.8521    0.6460 H   0  0  0  0  0  0  0  0  0  0  0  0
    0.3561    3.7815   -1.2417 C   0  0  0  0  0  0  0  0  0  0  0  0
   -0.6887    3.9332   -1.5327 H   0  0  0  0  0  0  0  0  0  0  0  0
    0.7215    4.7005   -0.7734 H   0  0  0  0  0  0  0  0  0  0  0  0
    0.9502    3.5938   -2.1423 H   0  0  0  0  0  0  0  0  0  0  0  0
  1  2  1  0  0  0  0
  2  3  1  0  0  0  0
  2  4  1  0  0  0  0
  2  5  1  0  0  0  0
  5  6  2  0  0  0  0
  5  7  1  0  0  0  0
  7  8  1  0  0  0  0
  7  9  1  0  0  0  0
  9 10  1  0  0  0  0
  9 11  1  0  0  0  0
  9 19  1  0  0  0  0
 11 12  1  0  0  0  0
 11 13  1  0  0  0  0
 11 17  1  0  0  0  0
 13 14  1  0  0  0  0
 13 15  1  0  0  0  0
 13 16  1  0  0  0  0
 17 18  1  0  0  0  0
 19 20  2  0  0  0  0
 19 21  1  0  0  0  0
 21 22  1  0  0  0  0
 21 23  1  0  0  0  0
 23 24  1  0  0  0  0
 23 25  1  0  0  0  0
 23 26  1  0  0  0  0
M  END
$$$$

  -OEChem-01062216093D

 26 25  0     1  0  0  0  0  0999 V2000
   -3.1904   -3.0109    1.2374 H   0  0  0  0  0  0  0  0  0  0  0  0
   -2.9685   -2.1506    0.6000 C   0  0  0  0  0  0  0  0  0  0  0  0
   -3.8540   -1.5130    0.5449 H   0  0  0  0  0  0  0  0  0  0  0  0
   -2.7235   -2.5095   -0.4027 H   0  0  0  0  0  0  0  0  0  0  0  0
   -1.8001   -1.3666    1.1667 C   0  0  0  0  0  0  0  0  0  0  0  0
   -1.3599   -1.6489    2.2693 O   0  0  0  0  0  0  0  0  0  0  0  0
   -1.3677   -0.2327    0.5172 N   0  0  0  0  0  0  0  0  0  0  0  0
   -1.8480   -0.0716   -0.3685 H   0  0  0  0  0  0  0  0  0  0  0  0
    0.0076    0.3095    0.5078 C   0  0  1  0  0  0  0  0  0  0  0  0
    0.1726    0.8084    1.4668 H   0  0  0  0  0  0  0  0  0  0  0  0
    1.1861   -0.6826    0.2681 C   0  0  1  0  0  0  0  0  0  0  0  0
    2.0957   -0.0718    0.2540 H   0  0  0  0  0  0  0  0  0  0  0  0
    1.4236   -1.7555    1.3279 C   0  0  0  0  0  0  0  0  0  0  0  0
    0.7255   -2.5882    1.2075 H   0  0  0  0  0  0  0  0  0  0  0  0
    2.4384   -2.1533    1.2362 H   0  0  0  0  0  0  0  0  0  0  0  0
    1.3112   -1.3355    2.3320 H   0  0  0  0  0  0  0  0  0  0  0  0
    1.0742   -1.3211   -1.0056 O   0  0  0  0  0  0  0  0  0  0  0  0
    1.8313   -1.9096   -1.1656 H   0  0  0  0  0  0  0  0  0  0  0  0
    0.1081    1.3552   -0.6238 C   0  0  0  0  0  0  0  0  0  0  0  0
   -0.5735    1.2462   -1.6396 O   0  0  0  0  0  0  0  0  0  0  0  0
    0.7349    2.5661   -0.3812 N   0  0  0  0  0  0  0  0  0  0  0  0
    1.1846    2.6924    0.5207 H   0  0  0  0  0  0  0  0  0  0  0  0
    0.7015    3.6883   -1.3117 C   0  0  0  0  0  0  0  0  0  0  0  0
   -0.3241    4.0509   -1.4376 H   0  0  0  0  0  0  0  0  0  0  0  0
    1.3160    4.5110   -0.9336 H   0  0  0  0  0  0  0  0  0  0  0  0
    1.0920    3.3881   -2.2898 H   0  0  0  0  0  0  0  0  0  0  0  0
  1  2  1  0  0  0  0
  2  3  1  0  0  0  0
  2  4  1  0  0  0  0
  2  5  1  0  0  0  0
  5  6  2  0  0  0  0
  5  7  1  0  0  0  0
  7  8  1  0  0  0  0
  7  9  1  0  0  0  0
  9 10  1  0  0  0  0
  9 11  1  0  0  0  0
  9 19  1  0  0  0  0
 11 12  1  0  0  0  0
 11 13  1  0  0  0  0
 11 17  1  0  0  0  0
 13 14  1  0  0  0  0
 13 15  1  0  0  0  0
 13 16  1  0  0  0  0
 17 18  1  0  0  0  0
 19 20  2  0  0  0  0
 19 21  1  0  0  0  0
 21 22  1  0  0  0  0
 21 23  1  0  0  0  0
 23 24  1  0  0  0  0
 23 25  1  0  0  0  0
 23 26  1  0  0  0  0
M  END
$$$$

  -OEChem-01062216093D

 26 25  0     1  0  0  0  0  0999 V2000
   -3.2066   -3.0108    1.2409 H   0  0  0  0  0  0  0  0  0  0  0  0
   -2.9818   -2.1476    0.6086 C   0  0  0  0  0  0  0  0  0  0  0  0
   -3.8600   -1.4990    0.5701 H   0  0  0  0  0  0  0  0  0  0  0  0
   -2.7528   -2.5003   -0.4000 H   0  0  0  0  0  0  0  0  0  0  0  0
   -1.7982   -1.3821    1.1684 C   0  0  0  0  0  0  0  0  0  0  0  0
   -1.3482   -1.6804    2.2627 O   0  0  0  0  0  0  0  0  0  0  0  0
   -1.3631   -0.2471    0.5229 N   0  0  0  0  0  0  0  0  0  0  0  0
   -1.8567   -0.0609   -0.3508 H   0  0  0  0  0  0  0  0  0  0  0  0
    0.0050    0.3142    0.5215 C   0  0  1  0  0  0  0  0  0  0  0  0
    0.1640    0.8153    1.4803 H   0  0  0  0  0  0  0  0  0  0  0  0
    1.1890   -0.6700    0.2727 C   0  0  1  0  0  0  0  0  0  0  0  0
    2.0982   -0.0586    0.2652 H   0  0  0  0  0  0  0  0  0  0  0  0
    1.4307   -1.7553    1.3186 C   0  0  0  0  0  0  0  0  0  0  0  0
    0.7383   -2.5908    1.1851 H   0  0  0  0  0  0  0  0  0  0  0  0
    2.4482   -2.1455    1.2242 H   0  0  0  0  0  0  0  0  0  0  0  0
    1.3133   -1.3492    2.3279 H   0  0  0  0  0  0  0  0  0  0  0  0
    1.0740   -1.2925   -1.0091 O   0  0  0  0  0  0  0  0  0  0  0  0
    1.8193   -1.8963   -1.1685 H   0  0  0  0  0  0  0  0  0  0  0  0
    0.1036    1.3583   -0.6135 C   0  0  0  0  0  0  0  0  0  0  0  0
   -0.7063    1.3575   -1.5376 O   0  0  0  0  0  0  0  0  0  0  0  0
    0.9648    2.4360   -0.4891 N   0  0  0  0  0  0  0  0  0  0  0  0
    1.5636    2.4710    0.3304 H   0  0  0  0  0  0  0  0  0  0  0  0
    1.0103    3.5394   -1.4411 C   0  0  0  0  0  0  0  0  0  0  0  0
    0.0551    4.0749   -1.4520 H   0  0  0  0  0  0  0  0  0  0  0  0
    1.8000    4.2448   -1.1651 H   0  0  0  0  0  0  0  0  0  0  0  0
    1.2176    3.1674   -2.4501 H   0  0  0  0  0  0  0  0  0  0  0  0
  1  2  1  0  0  0  0
  2  3  1  0  0  0  0
  2  4  1  0  0  0  0
  2  5  1  0  0  0  0
  5  6  2  0  0  0  0
  5  7  1  0  0  0  0
  7  8  1  0  0  0  0
  7  9  1  0  0  0  0
  9 10  1  0  0  0  0
  9 11  1  0  0  0  0
  9 19  1  0  0  0  0
 11 12  1  0  0  0  0
 11 13  1  0  0  0  0
 11 17  1  0  0  0  0
 13 14  1  0  0  0  0
 13 15  1  0  0  0  0
 13 16  1  0  0  0  0
 17 18  1  0  0  0  0
 19 20  2  0  0  0  0
 19 21  1  0  0  0  0
 21 22  1  0  0  0  0
 21 23  1  0  0  0  0
 23 24  1  0  0  0  0
 23 25  1  0  0  0  0
 23 26  1  0  0  0  0
M  END
$$$$

  -OEChem-01062216093D

 26 25  0     1  0  0  0  0  0999 V2000
   -3.2246   -3.0061    1.2315 H   0  0  0  0  0  0  0  0  0  0  0  0
   -2.9957   -2.1356    0.6104 C   0  0  0  0  0  0  0  0  0  0  0  0
   -3.8656   -1.4747    0.5937 H   0  0  0  0  0  0  0  0  0  0  0  0
   -2.7847   -2.4747   -0.4068 H   0  0  0  0  0  0  0  0  0  0  0  0
   -1.7941   -1.3961    1.1676 C   0  0  0  0  0  0  0  0  0  0  0  0
   -1.3353   -1.7217    2.2504 O   0  0  0  0  0  0  0  0  0  0  0  0
   -1.3527   -0.2563    0.5343 N   0  0  0  0  0  0  0  0  0  0  0  0
   -1.8646   -0.0345   -0.3204 H   0  0  0  0  0  0  0  0  0  0  0  0
    0.0105    0.3199    0.5407 C   0  0  1  0  0  0  0  0  0  0  0  0
    0.1689    0.8180    1.5012 H   0  0  0  0  0  0  0  0  0  0  0  0
    1.1948   -0.6632    0.2802 C   0  0  1  0  0  0  0  0  0  0  0  0
    2.1072   -0.0573    0.2796 H   0  0  0  0  0  0  0  0  0  0  0  0
    1.4386   -1.7617    1.3118 C   0  0  0  0  0  0  0  0  0  0  0  0
    0.7510   -2.5989    1.1656 H   0  0  0  0  0  0  0  0  0  0  0  0
    2.4580   -2.1458    1.2140 H   0  0  0  0  0  0  0  0  0  0  0  0
    1.3173   -1.3696    2.3263 H   0  0  0  0  0  0  0  0  0  0  0  0
    1.0732   -1.2691   -1.0091 O   0  0  0  0  0  0  0  0  0  0  0  0
    1.8060   -1.8877   -1.1703 H   0  0  0  0  0  0  0  0  0  0  0  0
    0.1013    1.3708   -0.5926 C   0  0  0  0  0  0  0  0  0  0  0  0
   -0.8121    1.4924   -1.4060 O   0  0  0  0  0  0  0  0  0  0  0  0
    1.1444    2.2822   -0.6286 N   0  0  0  0  0  0  0  0  0  0  0  0
    1.8735    2.1948    0.0725 H   0  0  0  0  0  0  0  0  0  0  0  0
    1.2532    3.3375   -1.6288 C   0  0  0  0  0  0  0  0  0  0  0  0
    0.3841    4.0020   -1.5816 H   0  0  0  0  0  0  0  0  0  0  0  0
    2.1534    3.9340   -1.4525 H   0  0  0  0  0  0  0  0  0  0  0  0
    1.3142    2.9076   -2.6341 H   0  0  0  0  0  0  0  0  0  0  0  0
  1  2  1  0  0  0  0
  2  3  1  0  0  0  0
  2  4  1  0  0  0  0
  2  5  1  0  0  0  0
  5  6  2  0  0  0  0
  5  7  1  0  0  0  0
  7  8  1  0  0  0  0
  7  9  1  0  0  0  0
  9 10  1  0  0  0  0
  9 11  1  0  0  0  0
  9 19  1  0  0  0  0
 11 12  1  0  0  0  0
 11 13  1  0  0  0  0
 11 17  1  0  0  0  0
 13 14  1  0  0  0  0
 13 15  1  0  0  0  0
 13 16  1  0  0  0  0
 17 18  1  0  0  0  0
 19 20  2  0  0  0  0
 19 21  1  0  0  0  0
 21 22  1  0  0  0  0
 21 23  1  0  0  0  0
 23 24  1  0  0  0  0
 23 25  1  0  0  0  0
 23 26  1  0  0  0  0
M  END
$$$$
