default_name
  -OEChem-01062215323D

 26 25  0     1  0  0  0  0  0999 V2000
   -2.8882   -3.2497    1.2537 H   0  0  0  0  0  0  0  0  0  0  0  0
   -2.8032   -2.3157    0.7017 C   0  0  0  0  0  0  0  0  0  0  0  0
   -3.5012   -1.5857    1.1067 H   0  0  0  0  0  0  0  0  0  0  0  0
   -3.0182   -2.4907   -0.3513 H   0  0  0  0  0  0  0  0  0  0  0  0
   -1.3942   -1.7897    0.8407 C   0  0  0  0  0  0  0  0  0  0  0  0
   -0.5672   -2.4077    1.5007 O   0  0  0  0  0  0  0  0  0  0  0  0
   -1.1222   -0.6447    0.2217 N   0  0  0  0  0  0  0  0  0  0  0  0
   -1.8592   -0.1777   -0.2863 H   0  0  0  0  0  0  0  0  0  0  0  0
    0.1838    0.0363    0.2367 C   0  0  1  0  0  0  0  0  0  0  0  0
    0.4220    0.3111    1.2636 H   0  0  0  0  0  0  0  0  0  0  0  0
    1.3131   -0.8777   -0.2819 C   0  0  1  0  0  0  0  0  0  0  0  0
    2.2475   -0.3178   -0.2483 H   0  0  0  0  0  0  0  0  0  0  0  0
    1.5065   -2.1538    0.5349 C   0  0  0  0  0  0  0  0  0  0  0  0
    0.6426   -2.8103    0.4244 H   0  0  0  0  0  0  0  0  0  0  0  0
    2.3996   -2.6777    0.1964 H   0  0  0  0  0  0  0  0  0  0  0  0
    1.6254   -1.9000    1.5886 H   0  0  0  0  0  0  0  0  0  0  0  0
    1.0767   -1.2668   -1.6123 O   0  0  0  0  0  0  0  0  0  0  0  0
    1.7475   -1.9071   -1.8585 H   0  0  0  0  0  0  0  0  0  0  0  0
    0.1342    1.3315   -0.5831 C   0  0  0  0  0  0  0  0  0  0  0  0
   -0.9078    1.6972   -1.1269 O   0  0  0  0  0  0  0  0  0  0  0  0
    1.2622    2.0522   -0.6524 N   0  0  0  0  0  0  0  0  0  0  0  0
    2.0767    1.7102   -0.1696 H   0  0  0  0  0  0  0  0  0  0  0  0
    1.3819    3.3086   -1.3906 C   0  0  0  0  0  0  0  0  0  0  0  0
    0.5994    4.0001   -1.0720 H   0  0  0  0  0  0  0  0  0  0  0  0
    2.3565    3.7634   -1.2125 H   0  0  0  0  0  0  0  0  0  0  0  0
    1.2616    3.1197   -2.4594 H   0  0  0  0  0  0  0  0  0  0  0  0
  5  6  2  0  0  0  0
  5  7  1  0  0  0  0
  2  3  1  0  0  0  0
  2  4  1  0  0  0  0
  2  5  1  0  0  0  0
  1  2  1  0  0  0  0
 19 20  2  0  0  0  0
 19 21  1  0  0  0  0
 17 18  1  0  0  0  0
 13 14  1  0  0  0  0
 13 15  1  0  0  0  0
 13 16  1  0  0  0  0
 11 12  1  0  0  0  0
 11 13  1  0  0  0  0
 11 17  1  0  0  0  0
  9 10  1  0  0  0  0
  9 11  1  0  0  0  0
  9 19  1  0  0  0  0
  7  8  1  0  0  0  0
  7  9  1  0  0  0  0
 23 24  1  0  0  0  0
 23 25  1  0  0  0  0
 23 26  1  0  0  0  0
 21 22  1  0  0  0  0
 21 23  1  0  0  0  0
M  END
$$$$
default_name
  -OEChem-01062215323D

 26 25  0     1  0  0  0  0  0999 V2000
   -2.8882   -3.2497    1.2537 H   0  0  0  0  0  0  0  0  0  0  0  0
   -2.8032   -2.3157    0.7017 C   0  0  0  0  0  0  0  0  0  0  0  0
   -3.5012   -1.5857    1.1067 H   0  0  0  0  0  0  0  0  0  0  0  0
   -3.0182   -2.4907   -0.3513 H   0  0  0  0  0  0  0  0  0  0  0  0
   -1.3942   -1.7897    0.8407 C   0  0  0  0  0  0  0  0  0  0  0  0
   -0.5672   -2.4077    1.5007 O   0  0  0  0  0  0  0  0  0  0  0  0
   -1.1222   -0.6447    0.2217 N   0  0  0  0  0  0  0  0  0  0  0  0
   -1.8592   -0.1777   -0.2863 H   0  0  0  0  0  0  0  0  0  0  0  0
    0.1838    0.0363    0.2367 C   0  0  1  0  0  0  0  0  0  0  0  0
    0.4220    0.3111    1.2636 H   0  0  0  0  0  0  0  0  0  0  0  0
    1.3131   -0.8777   -0.2819 C   0  0  1  0  0  0  0  0  0  0  0  0
    2.2475   -0.3178   -0.2483 H   0  0  0  0  0  0  0  0  0  0  0  0
    1.5065   -2.1538    0.5349 C   0  0  0  0  0  0  0  0  0  0  0  0
    0.6426   -2.8103    0.4244 H   0  0  0  0  0  0  0  0  0  0  0  0
    2.3996   -2.6777    0.1964 H   0  0  0  0  0  0  0  0  0  0  0  0
    1.6254   -1.9000    1.5886 H   0  0  0  0  0  0  0  0  0  0  0  0
    1.0767   -1.2668   -1.6123 O   0  0  0  0  0  0  0  0  0  0  0  0
    1.7475   -1.9071   -1.8585 H   0  0  0  0  0  0  0  0  0  0  0  0
    0.1342    1.3315   -0.5831 C   0  0  0  0  0  0  0  0  0  0  0  0
   -0.9412    1.8426   -0.8952 O   0  0  0  0  0  0  0  0  0  0  0  0
    1.3076    1.8886   -0.9137 N   0  0  0  0  0  0  0  0  0  0  0  0
    2.1532    1.4330   -0.6121 H   0  0  0  0  0  0  0  0  0  0  0  0
    1.4341    3.1211   -1.6898 C   0  0  0  0  0  0  0  0  0  0  0  0
    0.8431    3.9127   -1.2248 H   0  0  0  0  0  0  0  0  0  0  0  0
    2.4771    3.4345   -1.7394 H   0  0  0  0  0  0  0  0  0  0  0  0
    1.0577    2.9583   -2.7020 H   0  0  0  0  0  0  0  0  0  0  0  0
  5  6  2  0  0  0  0
  5  7  1  0  0  0  0
  2  3  1  0  0  0  0
  2  4  1  0  0  0  0
  2  5  1  0  0  0  0
  1  2  1  0  0  0  0
 19 20  2  0  0  0  0
 19 21  1  0  0  0  0
 17 18  1  0  0  0  0
 13 14  1  0  0  0  0
 13 15  1  0  0  0  0
 13 16  1  0  0  0  0
 11 12  1  0  0  0  0
 11 13  1  0  0  0  0
 11 17  1  0  0  0  0
  9 10  1  0  0  0  0
  9 11  1  0  0  0  0
  9 19  1  0  0  0  0
  7  8  1  0  0  0  0
  7  9  1  0  0  0  0
 23 24  1  0  0  0  0
 23 25  1  0  0  0  0
 23 26  1  0  0  0  0
 21 22  1  0  0  0  0
 21 23  1  0  0  0  0
M  END
$$$$
default_name
  -OEChem-01062215323D

 26 25  0     1  0  0  0  0  0999 V2000
   -2.8882   -3.2497    1.2537 H   0  0  0  0  0  0  0  0  0  0  0  0
   -2.8032   -2.3157    0.7017 C   0  0  0  0  0  0  0  0  0  0  0  0
   -3.5012   -1.5857    1.1067 H   0  0  0  0  0  0  0  0  0  0  0  0
   -3.0182   -2.4907   -0.3513 H   0  0  0  0  0  0  0  0  0  0  0  0
   -1.3942   -1.7897    0.8407 C   0  0  0  0  0  0  0  0  0  0  0  0
   -0.5672   -2.4077    1.5007 O   0  0  0  0  0  0  0  0  0  0  0  0
   -1.1222   -0.6447    0.2217 N   0  0  0  0  0  0  0  0  0  0  0  0
   -1.8592   -0.1777   -0.2863 H   0  0  0  0  0  0  0  0  0  0  0  0
    0.1838    0.0363    0.2367 C   0  0  1  0  0  0  0  0  0  0  0  0
    0.4220    0.3111    1.2636 H   0  0  0  0  0  0  0  0  0  0  0  0
    1.3131   -0.8777   -0.2819 C   0  0  1  0  0  0  0  0  0  0  0  0
    2.2475   -0.3178   -0.2483 H   0  0  0  0  0  0  0  0  0  0  0  0
    1.5065   -2.1538    0.5349 C   0  0  0  0  0  0  0  0  0  0  0  0
    0.6426   -2.8103    0.4244 H   0  0  0  0  0  0  0  0  0  0  0  0
    2.3996   -2.6777    0.1964 H   0  0  0  0  0  0  0  0  0  0  0  0
    1.6254   -1.9000    1.5886 H   0  0  0  0  0  0  0  0  0  0  0  0
    1.0767   -1.2668   -1.6123 O   0  0  0  0  0  0  0  0  0  0  0  0
    1.7475   -1.9071   -1.8585 H   0  0  0  0  0  0  0  0  0  0  0  0
    0.1342    1.3315   -0.5831 C   0  0  0  0  0  0  0  0  0  0  0  0
   -0.9028    1.9896   -0.6653 O   0  0  0  0  0  0  0  0  0  0  0  0
    1.2718    1.7220   -1.1747 N   0  0  0  0  0  0  0  0  0  0  0  0
    2.0921    1.1510   -1.0539 H   0  0  0  0  0  0  0  0  0  0  0  0
    1.3933    2.9303   -1.9888 C   0  0  0  0  0  0  0  0  0  0  0  0
    1.0331    3.7932   -1.4251 H   0  0  0  0  0  0  0  0  0  0  0  0
    2.4329    3.0957   -2.2720 H   0  0  0  0  0  0  0  0  0  0  0  0
    0.7855    2.8287   -2.8904 H   0  0  0  0  0  0  0  0  0  0  0  0
  5  6  2  0  0  0  0
  5  7  1  0  0  0  0
  2  3  1  0  0  0  0
  2  4  1  0  0  0  0
  2  5  1  0  0  0  0
  1  2  1  0  0  0  0
 19 20  2  0  0  0  0
 19 21  1  0  0  0  0
 17 18  1  0  0  0  0
 13 14  1  0  0  0  0
 13 15  1  0  0  0  0
 13 16  1  0  0  0  0
 11 12  1  0  0  0  0
 11 13  1  0  0  0  0
 11 17  1  0  0  0  0
  9 10  1  0  0  0  0
  9 11  1  0  0  0  0
  9 19  1  0  0  0  0
  7  8  1  0  0  0  0
  7  9  1  0  0  0  0
 23 24  1  0  0  0  0
 23 25  1  0  0  0  0
 23 26  1  0  0  0  0
 21 22  1  0  0  0  0
 21 23  1  0  0  0  0
M  END
$$$$
default_name
  -OEChem-01062215323D

 26 25  0     1  0  0  0  0  0999 V2000
   -2.8882   -3.2497    1.2537 H   0  0  0  0  0  0  0  0  0  0  0  0
   -2.8032   -2.3157    0.7017 C   0  0  0  0  0  0  0  0  0  0  0  0
   -3.5012   -1.5857    1.1067 H   0  0  0  0  0  0  0  0  0  0  0  0
   -3.0182   -2.4907   -0.3513 H   0  0  0  0  0  0  0  0  0  0  0  0
   -1.3942   -1.7897    0.8407 C   0  0  0  0  0  0  0  0  0  0  0  0
   -0.5672   -2.4077    1.5007 O   0  0  0  0  0  0  0  0  0  0  0  0
   -1.1222   -0.6447    0.2217 N   0  0  0  0  0  0  0  0  0  0  0  0
   -1.8592   -0.1777   -0.2863 H   0  0  0  0  0  0  0  0  0  0  0  0
    0.1838    0.0363    0.2367 C   0  0  1  0  0  0  0  0  0  0  0  0
    0.4220    0.3111    1.2636 H   0  0  0  0  0  0  0  0  0  0  0  0
    1.3131   -0.8777   -0.2819 C   0  0  1  0  0  0  0  0  0  0  0  0
    2.2475   -0.3178   -0.2483 H   0  0  0  0  0  0  0  0  0  0  0  0
    1.5065   -2.1538    0.5349 C   0  0  0  0  0  0  0  0  0  0  0  0
    0.6426   -2.8103    0.4244 H   0  0  0  0  0  0  0  0  0  0  0  0
    2.3996   -2.6777    0.1964 H   0  0  0  0  0  0  0  0  0  0  0  0
    1.6254   -1.9000    1.5886 H   0  0  0  0  0  0  0  0  0  0  0  0
    1.0767   -1.2668   -1.6123 O   0  0  0  0  0  0  0  0  0  0  0  0
    1.7475   -1.9071   -1.8585 H   0  0  0  0  0  0  0  0  0  0  0  0
    0.1342    1.3315   -0.5831 C   0  0  0  0  0  0  0  0  0  0  0  0
   -0.7951    2.1282   -0.4529 O   0  0  0  0  0  0  0  0  0  0  0  0
    1.1571    1.5639   -1.4175 N   0  0  0  0  0  0  0  0  0  0  0  0
    1.8975    0.8834   -1.4650 H   0  0  0  0  0  0  0  0  0  0  0  0
    1.2621    2.7492   -2.2670 C   0  0  0  0  0  0  0  0  0  0  0  0
    1.1563    3.6499   -1.6590 H   0  0  0  0  0  0  0  0  0  0  0  0
    2.2270    2.7701   -2.7738 H   0  0  0  0  0  0  0  0  0  0  0  0
    0.4634    2.7395   -3.0118 H   0  0  0  0  0  0  0  0  0  0  0  0
  5  6  2  0  0  0  0
  5  7  1  0  0  0  0
  2  3  1  0  0  0  0
  2  4  1  0  0  0  0
  2  5  1  0  0  0  0
  1  2  1  0  0  0  0
 19 20  2  0  0  0  0
 19 21  1  0  0  0  0
 17 18  1  0  0  0  0
 13 14  1  0  0  0  0
 13 15  1  0  0  0  0
 13 16  1  0  0  0  0
 11 12  1  0  0  0  0
 11 13  1  0  0  0  0
 11 17  1  0  0  0  0
  9 10  1  0  0  0  0
  9 11  1  0  0  0  0
  9 19  1  0  0  0  0
  7  8  1  0  0  0  0
  7  9  1  0  0  0  0
 23 24  1  0  0  0  0
 23 25  1  0  0  0  0
 23 26  1  0  0  0  0
 21 22  1  0  0  0  0
 21 23  1  0  0  0  0
M  END
$$$$
default_name
  -OEChem-01062215323D

 26 25  0     1  0  0  0  0  0999 V2000
   -2.8882   -3.2497    1.2537 H   0  0  0  0  0  0  0  0  0  0  0  0
   -2.8032   -2.3157    0.7017 C   0  0  0  0  0  0  0  0  0  0  0  0
   -3.5012   -1.5857    1.1067 H   0  0  0  0  0  0  0  0  0  0  0  0
   -3.0182   -2.4907   -0.3513 H   0  0  0  0  0  0  0  0  0  0  0  0
   -1.3942   -1.7897    0.8407 C   0  0  0  0  0  0  0  0  0  0  0  0
   -0.5672   -2.4077    1.5007 O   0  0  0  0  0  0  0  0  0  0  0  0
   -1.1222   -0.6447    0.2217 N   0  0  0  0  0  0  0  0  0  0  0  0
   -1.8592   -0.1777   -0.2863 H   0  0  0  0  0  0  0  0  0  0  0  0
    0.1838    0.0363    0.2367 C   0  0  1  0  0  0  0  0  0  0  0  0
    0.4220    0.3111    1.2636 H   0  0  0  0  0  0  0  0  0  0  0  0
    1.3131   -0.8777   -0.2819 C   0  0  1  0  0  0  0  0  0  0  0  0
    2.2475   -0.3178   -0.2483 H   0  0  0  0  0  0  0  0  0  0  0  0
    1.5065   -2.1538    0.5349 C   0  0  0  0  0  0  0  0  0  0  0  0
    0.6426   -2.8103    0.4244 H   0  0  0  0  0  0  0  0  0  0  0  0
    2.3996   -2.6777    0.1964 H   0  0  0  0  0  0  0  0  0  0  0  0
    1.6254   -1.9000    1.5886 H   0  0  0  0  0  0  0  0  0  0  0  0
    1.0767   -1.2668   -1.6123 O   0  0  0  0  0  0  0  0  0  0  0  0
    1.7475   -1.9071   -1.8585 H   0  0  0  0  0  0  0  0  0  0  0  0
    0.1342    1.3315   -0.5831 C   0  0  0  0  0  0  0  0  0  0  0  0
   -0.6254    2.2489   -0.2724 O   0  0  0  0  0  0  0  0  0  0  0  0
    0.9713    1.4250   -1.6257 N   0  0  0  0  0  0  0  0  0  0  0  0
    1.5826    0.6484   -1.8172 H   0  0  0  0  0  0  0  0  0  0  0  0
    1.0494    2.5901   -2.5056 C   0  0  0  0  0  0  0  0  0  0  0  0
    1.2043    3.4924   -1.9107 H   0  0  0  0  0  0  0  0  0  0  0  0
    1.8733    2.4799   -3.2109 H   0  0  0  0  0  0  0  0  0  0  0  0
    0.1134    2.6969   -3.0578 H   0  0  0  0  0  0  0  0  0  0  0  0
  5  6  2  0  0  0  0
  5  7  1  0  0  0  0
  2  3  1  0  0  0  0
  2  4  1  0  0  0  0
  2  5  1  0  0  0  0
  1  2  1  0  0  0  0
 19 20  2  0  0  0  0
 19 21  1  0  0  0  0
 17 18  1  0  0  0  0
 13 14  1  0  0  0  0
 13 15  1  0  0  0  0
 13 16  1  0  0  0  0
 11 12  1  0  0  0  0
 11 13  1  0  0  0  0
 11 17  1  0  0  0  0
  9 10  1  0  0  0  0
  9 11  1  0  0  0  0
  9 19  1  0  0  0  0
  7  8  1  0  0  0  0
  7  9  1  0  0  0  0
 23 24  1  0  0  0  0
 23 25  1  0  0  0  0
 23 26  1  0  0  0  0
 21 22  1  0  0  0  0
 21 23  1  0  0  0  0
M  END
$$$$
default_name
  -OEChem-01062215323D

 26 25  0     1  0  0  0  0  0999 V2000
   -2.8882   -3.2497    1.2537 H   0  0  0  0  0  0  0  0  0  0  0  0
   -2.8032   -2.3157    0.7017 C   0  0  0  0  0  0  0  0  0  0  0  0
   -3.5012   -1.5857    1.1067 H   0  0  0  0  0  0  0  0  0  0  0  0
   -3.0182   -2.4907   -0.3513 H   0  0  0  0  0  0  0  0  0  0  0  0
   -1.3942   -1.7897    0.8407 C   0  0  0  0  0  0  0  0  0  0  0  0
   -0.5672   -2.4077    1.5007 O   0  0  0  0  0  0  0  0  0  0  0  0
   -1.1222   -0.6447    0.2217 N   0  0  0  0  0  0  0  0  0  0  0  0
   -1.8592   -0.1777   -0.2863 H   0  0  0  0  0  0  0  0  0  0  0  0
    0.1838    0.0363    0.2367 C   0  0  1  0  0  0  0  0  0  0  0  0
    0.4220    0.3111    1.2636 H   0  0  0  0  0  0  0  0  0  0  0  0
    1.3131   -0.8777   -0.2819 C   0  0  1  0  0  0  0  0  0  0  0  0
    2.2475   -0.3178   -0.2483 H   0  0  0  0  0  0  0  0  0  0  0  0
    1.5065   -2.1538    0.5349 C   0  0  0  0  0  0  0  0  0  0  0  0
    0.6426   -2.8103    0.4244 H   0  0  0  0  0  0  0  0  0  0  0  0
    2.3996   -2.6777    0.1964 H   0  0  0  0  0  0  0  0  0  0  0  0
    1.6254   -1.9000    1.5886 H   0  0  0  0  0  0  0  0  0  0  0  0
    1.0767   -1.2668   -1.6123 O   0  0  0  0  0  0  0  0  0  0  0  0
    1.7475   -1.9071   -1.8585 H   0  0  0  0  0  0  0  0  0  0  0  0
    0.1342    1.3315   -0.5831 C   0  0  0  0  0  0  0  0  0  0  0  0
   -0.4054    2.3436   -0.1362 O   0  0  0  0  0  0  0  0  0  0  0  0
    0.7272    1.3148   -1.7850 N   0  0  0  0  0  0  0  0  0  0  0  0
    1.1690    0.4619   -2.0867 H   0  0  0  0  0  0  0  0  0  0  0  0
    0.7699    2.4638   -2.6882 C   0  0  0  0  0  0  0  0  0  0  0  0
    1.1738    3.3316   -2.1629 H   0  0  0  0  0  0  0  0  0  0  0  0
    1.3960    2.2449   -3.5533 H   0  0  0  0  0  0  0  0  0  0  0  0
   -0.2406    2.7038   -3.0255 H   0  0  0  0  0  0  0  0  0  0  0  0
  5  6  2  0  0  0  0
  5  7  1  0  0  0  0
  2  3  1  0  0  0  0
  2  4  1  0  0  0  0
  2  5  1  0  0  0  0
  1  2  1  0  0  0  0
 19 20  2  0  0  0  0
 19 21  1  0  0  0  0
 17 18  1  0  0  0  0
 13 14  1  0  0  0  0
 13 15  1  0  0  0  0
 13 16  1  0  0  0  0
 11 12  1  0  0  0  0
 11 13  1  0  0  0  0
 11 17  1  0  0  0  0
  9 10  1  0  0  0  0
  9 11  1  0  0  0  0
  9 19  1  0  0  0  0
  7  8  1  0  0  0  0
  7  9  1  0  0  0  0
 23 24  1  0  0  0  0
 23 25  1  0  0  0  0
 23 26  1  0  0  0  0
 21 22  1  0  0  0  0
 21 23  1  0  0  0  0
M  END
$$$$
default_name
  -OEChem-01062215323D

 26 25  0     1  0  0  0  0  0999 V2000
   -2.8882   -3.2497    1.2537 H   0  0  0  0  0  0  0  0  0  0  0  0
   -2.8032   -2.3157    0.7017 C   0  0  0  0  0  0  0  0  0  0  0  0
   -3.5012   -1.5857    1.1067 H   0  0  0  0  0  0  0  0  0  0  0  0
   -3.0182   -2.4907   -0.3513 H   0  0  0  0  0  0  0  0  0  0  0  0
   -1.3942   -1.7897    0.8407 C   0  0  0  0  0  0  0  0  0  0  0  0
   -0.5672   -2.4077    1.5007 O   0  0  0  0  0  0  0  0  0  0  0  0
   -1.1222   -0.6447    0.2217 N   0  0  0  0  0  0  0  0  0  0  0  0
   -1.8592   -0.1777   -0.2863 H   0  0  0  0  0  0  0  0  0  0  0  0
    0.1838    0.0363    0.2367 C   0  0  1  0  0  0  0  0  0  0  0  0
    0.4220    0.3111    1.2636 H   0  0  0  0  0  0  0  0  0  0  0  0
    1.3131   -0.8777   -0.2819 C   0  0  1  0  0  0  0  0  0  0  0  0
    2.2475   -0.3178   -0.2483 H   0  0  0  0  0  0  0  0  0  0  0  0
    1.5065   -2.1538    0.5349 C   0  0  0  0  0  0  0  0  0  0  0  0
    0.6426   -2.8103    0.4244 H   0  0  0  0  0  0  0  0  0  0  0  0
    2.3996   -2.6777    0.1964 H   0  0  0  0  0  0  0  0  0  0  0  0
    1.6254   -1.9000    1.5886 H   0  0  0  0  0  0  0  0  0  0  0  0
    1.0767   -1.2668   -1.6123 O   0  0  0  0  0  0  0  0  0  0  0  0
    1.7475   -1.9071   -1.8585 H   0  0  0  0  0  0  0  0  0  0  0  0
    0.1342    1.3315   -0.5831 C   0  0  0  0  0  0  0  0  0  0  0  0
   -0.1500    2.4057   -0.0535 O   0  0  0  0  0  0  0  0  0  0  0  0
    0.4413    1.2408   -1.8846 N   0  0  0  0  0  0  0  0  0  0  0  0
    0.6847    0.3369   -2.2550 H   0  0  0  0  0  0  0  0  0  0  0  0
    0.4425    2.3789   -2.8024 C   0  0  0  0  0  0  0  0  0  0  0  0
    1.0671    3.1783   -2.3986 H   0  0  0  0  0  0  0  0  0  0  0  0
    0.8277    2.0811   -3.7778 H   0  0  0  0  0  0  0  0  0  0  0  0
   -0.5746    2.7598   -2.9170 H   0  0  0  0  0  0  0  0  0  0  0  0
  5  6  2  0  0  0  0
  5  7  1  0  0  0  0
  2  3  1  0  0  0  0
  2  4  1  0  0  0  0
  2  5  1  0  0  0  0
  1  2  1  0  0  0  0
 19 20  2  0  0  0  0
 19 21  1  0  0  0  0
 17 18  1  0  0  0  0
 13 14  1  0  0  0  0
 13 15  1  0  0  0  0
 13 16  1  0  0  0  0
 11 12  1  0  0  0  0
 11 13  1  0  0  0  0
 11 17  1  0  0  0  0
  9 10  1  0  0  0  0
  9 11  1  0  0  0  0
  9 19  1  0  0  0  0
  7  8  1  0  0  0  0
  7  9  1  0  0  0  0
 23 24  1  0  0  0  0
 23 25  1  0  0  0  0
 23 26  1  0  0  0  0
 21 22  1  0  0  0  0
 21 23  1  0  0  0  0
M  END
$$$$
default_name
  -OEChem-01062215323D

 26 25  0     1  0  0  0  0  0999 V2000
   -2.8882   -3.2497    1.2537 H   0  0  0  0  0  0  0  0  0  0  0  0
   -2.8032   -2.3157    0.7017 C   0  0  0  0  0  0  0  0  0  0  0  0
   -3.5012   -1.5857    1.1067 H   0  0  0  0  0  0  0  0  0  0  0  0
   -3.0182   -2.4907   -0.3513 H   0  0  0  0  0  0  0  0  0  0  0  0
   -1.3942   -1.7897    0.8407 C   0  0  0  0  0  0  0  0  0  0  0  0
   -0.5672   -2.4077    1.5007 O   0  0  0  0  0  0  0  0  0  0  0  0
   -1.1222   -0.6447    0.2217 N   0  0  0  0  0  0  0  0  0  0  0  0
   -1.8592   -0.1777   -0.2863 H   0  0  0  0  0  0  0  0  0  0  0  0
    0.1838    0.0363    0.2367 C   0  0  1  0  0  0  0  0  0  0  0  0
    0.4220    0.3111    1.2636 H   0  0  0  0  0  0  0  0  0  0  0  0
    1.3131   -0.8777   -0.2819 C   0  0  1  0  0  0  0  0  0  0  0  0
    2.2475   -0.3178   -0.2483 H   0  0  0  0  0  0  0  0  0  0  0  0
    1.5065   -2.1538    0.5349 C   0  0  0  0  0  0  0  0  0  0  0  0
    0.6426   -2.8103    0.4244 H   0  0  0  0  0  0  0  0  0  0  0  0
    2.3996   -2.6777    0.1964 H   0  0  0  0  0  0  0  0  0  0  0  0
    1.6254   -1.9000    1.5886 H   0  0  0  0  0  0  0  0  0  0  0  0
    1.0767   -1.2668   -1.6123 O   0  0  0  0  0  0  0  0  0  0  0  0
    1.7475   -1.9071   -1.8585 H   0  0  0  0  0  0  0  0  0  0  0  0
    0.1342    1.3315   -0.5831 C   0  0  0  0  0  0  0  0  0  0  0  0
    0.1234    2.4311   -0.0299 O   0  0  0  0  0  0  0  0  0  0  0  0
    0.1331    1.2080   -1.9178 N   0  0  0  0  0  0  0  0  0  0  0  0
    0.1629    0.2816   -2.3107 H   0  0  0  0  0  0  0  0  0  0  0  0
    0.0896    2.3413   -2.8405 C   0  0  0  0  0  0  0  0  0  0  0  0
    0.8912    3.0430   -2.6017 H   0  0  0  0  0  0  0  0  0  0  0  0
    0.2069    1.9996   -3.8690 H   0  0  0  0  0  0  0  0  0  0  0  0
   -0.8657    2.8609   -2.7396 H   0  0  0  0  0  0  0  0  0  0  0  0
  5  6  2  0  0  0  0
  5  7  1  0  0  0  0
  2  3  1  0  0  0  0
  2  4  1  0  0  0  0
  2  5  1  0  0  0  0
  1  2  1  0  0  0  0
 19 20  2  0  0  0  0
 19 21  1  0  0  0  0
 17 18  1  0  0  0  0
 13 14  1  0  0  0  0
 13 15  1  0  0  0  0
 13 16  1  0  0  0  0
 11 12  1  0  0  0  0
 11 13  1  0  0  0  0
 11 17  1  0  0  0  0
  9 10  1  0  0  0  0
  9 11  1  0  0  0  0
  9 19  1  0  0  0  0
  7  8  1  0  0  0  0
  7  9  1  0  0  0  0
 23 24  1  0  0  0  0
 23 25  1  0  0  0  0
 23 26  1  0  0  0  0
 21 22  1  0  0  0  0
 21 23  1  0  0  0  0
M  END
$$$$
default_name
  -OEChem-01062215323D

 26 25  0     1  0  0  0  0  0999 V2000
   -2.8882   -3.2497    1.2537 H   0  0  0  0  0  0  0  0  0  0  0  0
   -2.8032   -2.3157    0.7017 C   0  0  0  0  0  0  0  0  0  0  0  0
   -3.5012   -1.5857    1.1067 H   0  0  0  0  0  0  0  0  0  0  0  0
   -3.0182   -2.4907   -0.3513 H   0  0  0  0  0  0  0  0  0  0  0  0
   -1.3942   -1.7897    0.8407 C   0  0  0  0  0  0  0  0  0  0  0  0
   -0.5672   -2.4077    1.5007 O   0  0  0  0  0  0  0  0  0  0  0  0
   -1.1222   -0.6447    0.2217 N   0  0  0  0  0  0  0  0  0  0  0  0
   -1.8592   -0.1777   -0.2863 H   0  0  0  0  0  0  0  0  0  0  0  0
    0.1838    0.0363    0.2367 C   0  0  1  0  0  0  0  0  0  0  0  0
    0.4220    0.3111    1.2636 H   0  0  0  0  0  0  0  0  0  0  0  0
    1.3131   -0.8777   -0.2819 C   0  0  1  0  0  0  0  0  0  0  0  0
    2.2475   -0.3178   -0.2483 H   0  0  0  0  0  0  0  0  0  0  0  0
    1.5065   -2.1538    0.5349 C   0  0  0  0  0  0  0  0  0  0  0  0
    0.6426   -2.8103    0.4244 H   0  0  0  0  0  0  0  0  0  0  0  0
    2.3996   -2.6777    0.1964 H   0  0  0  0  0  0  0  0  0  0  0  0
    1.6254   -1.9000    1.5886 H   0  0  0  0  0  0  0  0  0  0  0  0
    1.0767   -1.2668   -1.6123 O   0  0  0  0  0  0  0  0  0  0  0  0
    1.7475   -1.9071   -1.8585 H   0  0  0  0  0  0  0  0  0  0  0  0
    0.1342    1.3315   -0.5831 C   0  0  0  0  0  0  0  0  0  0  0  0
    0.3961    2.4180   -0.0671 O   0  0  0  0  0  0  0  0  0  0  0  0
   -0.1763    1.2187   -1.8821 N   0  0  0  0  0  0  0  0  0  0  0  0
   -0.3610    0.3000   -2.2500 H   0  0  0  0  0  0  0  0  0  0  0  0
   -0.2649    2.3535   -2.7998 C   0  0  0  0  0  0  0  0  0  0  0  0
    0.6583    2.9350   -2.7582 H   0  0  0  0  0  0  0  0  0  0  0  0
   -0.4239    2.0059   -3.8208 H   0  0  0  0  0  0  0  0  0  0  0  0
   -1.0941    3.0003   -2.5055 H   0  0  0  0  0  0  0  0  0  0  0  0
  5  6  2  0  0  0  0
  5  7  1  0  0  0  0
  2  3  1  0  0  0  0
  2  4  1  0  0  0  0
  2  5  1  0  0  0  0
  1  2  1  0  0  0  0
 19 20  2  0  0  0  0
 19 21  1  0  0  0  0
 17 18  1  0  0  0  0
 13 14  1  0  0  0  0
 13 15  1  0  0  0  0
 13 16  1  0  0  0  0
 11 12  1  0  0  0  0
 11 13  1  0  0  0  0
 11 17  1  0  0  0  0
  9 10  1  0  0  0  0
  9 11  1  0  0  0  0
  9 19  1  0  0  0  0
  7  8  1  0  0  0  0
  7  9  1  0  0  0  0
 23 24  1  0  0  0  0
 23 25  1  0  0  0  0
 23 26  1  0  0  0  0
 21 22  1  0  0  0  0
 21 23  1  0  0  0  0
M  END
$$$$
default_name
  -OEChem-01062215323D

 26 25  0     1  0  0  0  0  0999 V2000
   -2.8882   -3.2497    1.2537 H   0  0  0  0  0  0  0  0  0  0  0  0
   -2.8032   -2.3157    0.7017 C   0  0  0  0  0  0  0  0  0  0  0  0
   -3.5012   -1.5857    1.1067 H   0  0  0  0  0  0  0  0  0  0  0  0
   -3.0182   -2.4907   -0.3513 H   0  0  0  0  0  0  0  0  0  0  0  0
   -1.3942   -1.7897    0.8407 C   0  0  0  0  0  0  0  0  0  0  0  0
   -0.5672   -2.4077    1.5007 O   0  0  0  0  0  0  0  0  0  0  0  0
   -1.1222   -0.6447    0.2217 N   0  0  0  0  0  0  0  0  0  0  0  0
   -1.8592   -0.1777   -0.2863 H   0  0  0  0  0  0  0  0  0  0  0  0
    0.1838    0.0363    0.2367 C   0  0  1  0  0  0  0  0  0  0  0  0
    0.4220    0.3111    1.2636 H   0  0  0  0  0  0  0  0  0  0  0  0
    1.3131   -0.8777   -0.2819 C   0  0  1  0  0  0  0  0  0  0  0  0
    2.2475   -0.3178   -0.2483 H   0  0  0  0  0  0  0  0  0  0  0  0
    1.5065   -2.1538    0.5349 C   0  0  0  0  0  0  0  0  0  0  0  0
    0.6426   -2.8103    0.4244 H   0  0  0  0  0  0  0  0  0  0  0  0
    2.3996   -2.6777    0.1964 H   0  0  0  0  0  0  0  0  0  0  0  0
    1.6254   -1.9000    1.5886 H   0  0  0  0  0  0  0  0  0  0  0  0
    1.0767   -1.2668   -1.6123 O   0  0  0  0  0  0  0  0  0  0  0  0
    1.7475   -1.9071   -1.8585 H   0  0  0  0  0  0  0  0  0  0  0  0
    0.1342    1.3315   -0.5831 C   0  0  0  0  0  0  0  0  0  0  0  0
    0.6496    2.3673   -0.1626 O   0  0  0  0  0  0  0  0  0  0  0  0
   -0.4659    1.2722   -1.7801 N   0  0  0  0  0  0  0  0  0  0  0  0
   -0.8512    0.3908   -2.0769 H   0  0  0  0  0  0  0  0  0  0  0  0
   -0.5967    2.4146   -2.6831 C   0  0  0  0  0  0  0  0  0  0  0  0
    0.3841    2.8616   -2.8576 H   0  0  0  0  0  0  0  0  0  0  0  0
   -1.0218    2.0998   -3.6363 H   0  0  0  0  0  0  0  0  0  0  0  0
   -1.2442    3.1686   -2.2306 H   0  0  0  0  0  0  0  0  0  0  0  0
  5  6  2  0  0  0  0
  5  7  1  0  0  0  0
  2  3  1  0  0  0  0
  2  4  1  0  0  0  0
  2  5  1  0  0  0  0
  1  2  1  0  0  0  0
 19 20  2  0  0  0  0
 19 21  1  0  0  0  0
 17 18  1  0  0  0  0
 13 14  1  0  0  0  0
 13 15  1  0  0  0  0
 13 16  1  0  0  0  0
 11 12  1  0  0  0  0
 11 13  1  0  0  0  0
 11 17  1  0  0  0  0
  9 10  1  0  0  0  0
  9 11  1  0  0  0  0
  9 19  1  0  0  0  0
  7  8  1  0  0  0  0
  7  9  1  0  0  0  0
 23 24  1  0  0  0  0
 23 25  1  0  0  0  0
 23 26  1  0  0  0  0
 21 22  1  0  0  0  0
 21 23  1  0  0  0  0
M  END
$$$$
default_name
  -OEChem-01062215323D

 26 25  0     1  0  0  0  0  0999 V2000
   -2.8882   -3.2497    1.2537 H   0  0  0  0  0  0  0  0  0  0  0  0
   -2.8032   -2.3157    0.7017 C   0  0  0  0  0  0  0  0  0  0  0  0
   -3.5012   -1.5857    1.1067 H   0  0  0  0  0  0  0  0  0  0  0  0
   -3.0182   -2.4907   -0.3513 H   0  0  0  0  0  0  0  0  0  0  0  0
   -1.3942   -1.7897    0.8407 C   0  0  0  0  0  0  0  0  0  0  0  0
   -0.5672   -2.4077    1.5007 O   0  0  0  0  0  0  0  0  0  0  0  0
   -1.1222   -0.6447    0.2217 N   0  0  0  0  0  0  0  0  0  0  0  0
   -1.8592   -0.1777   -0.2863 H   0  0  0  0  0  0  0  0  0  0  0  0
    0.1838    0.0363    0.2367 C   0  0  1  0  0  0  0  0  0  0  0  0
    0.4220    0.3111    1.2636 H   0  0  0  0  0  0  0  0  0  0  0  0
    1.3131   -0.8777   -0.2819 C   0  0  1  0  0  0  0  0  0  0  0  0
    2.2475   -0.3178   -0.2483 H   0  0  0  0  0  0  0  0  0  0  0  0
    1.5065   -2.1538    0.5349 C   0  0  0  0  0  0  0  0  0  0  0  0
    0.6426   -2.8103    0.4244 H   0  0  0  0  0  0  0  0  0  0  0  0
    2.3996   -2.6777    0.1964 H   0  0  0  0  0  0  0  0  0  0  0  0
    1.6254   -1.9000    1.5886 H   0  0  0  0  0  0  0  0  0  0  0  0
    1.0767   -1.2668   -1.6123 O   0  0  0  0  0  0  0  0  0  0  0  0
    1.7475   -1.9071   -1.8585 H   0  0  0  0  0  0  0  0  0  0  0  0
    0.1342    1.3315   -0.5831 C   0  0  0  0  0  0  0  0  0  0  0  0
    0.8665    2.2824   -0.3098 O   0  0  0  0  0  0  0  0  0  0  0  0
   -0.7160    1.3648   -1.6188 N   0  0  0  0  0  0  0  0  0  0  0  0
   -1.2744    0.5477   -1.8034 H   0  0  0  0  0  0  0  0  0  0  0  0
   -0.8832    2.5206   -2.4984 C   0  0  0  0  0  0  0  0  0  0  0  0
    0.0874    2.8278   -2.8930 H   0  0  0  0  0  0  0  0  0  0  0  0
   -1.5461    2.2747   -3.3283 H   0  0  0  0  0  0  0  0  0  0  0  0
   -1.3059    3.3542   -1.9336 H   0  0  0  0  0  0  0  0  0  0  0  0
  5  6  2  0  0  0  0
  5  7  1  0  0  0  0
  2  3  1  0  0  0  0
  2  4  1  0  0  0  0
  2  5  1  0  0  0  0
  1  2  1  0  0  0  0
 19 20  2  0  0  0  0
 19 21  1  0  0  0  0
 17 18  1  0  0  0  0
 13 14  1  0  0  0  0
 13 15  1  0  0  0  0
 13 16  1  0  0  0  0
 11 12  1  0  0  0  0
 11 13  1  0  0  0  0
 11 17  1  0  0  0  0
  9 10  1  0  0  0  0
  9 11  1  0  0  0  0
  9 19  1  0  0  0  0
  7  8  1  0  0  0  0
  7  9  1  0  0  0  0
 23 24  1  0  0  0  0
 23 25  1  0  0  0  0
 23 26  1  0  0  0  0
 21 22  1  0  0  0  0
 21 23  1  0  0  0  0
M  END
$$$$
default_name
  -OEChem-01062215323D

 26 25  0     1  0  0  0  0  0999 V2000
   -2.8882   -3.2497    1.2537 H   0  0  0  0  0  0  0  0  0  0  0  0
   -2.8032   -2.3157    0.7017 C   0  0  0  0  0  0  0  0  0  0  0  0
   -3.5012   -1.5857    1.1067 H   0  0  0  0  0  0  0  0  0  0  0  0
   -3.0182   -2.4907   -0.3513 H   0  0  0  0  0  0  0  0  0  0  0  0
   -1.3942   -1.7897    0.8407 C   0  0  0  0  0  0  0  0  0  0  0  0
   -0.5672   -2.4077    1.5007 O   0  0  0  0  0  0  0  0  0  0  0  0
   -1.1222   -0.6447    0.2217 N   0  0  0  0  0  0  0  0  0  0  0  0
   -1.8592   -0.1777   -0.2863 H   0  0  0  0  0  0  0  0  0  0  0  0
    0.1838    0.0363    0.2367 C   0  0  1  0  0  0  0  0  0  0  0  0
    0.4220    0.3111    1.2636 H   0  0  0  0  0  0  0  0  0  0  0  0
    1.3131   -0.8777   -0.2819 C   0  0  1  0  0  0  0  0  0  0  0  0
    2.2475   -0.3178   -0.2483 H   0  0  0  0  0  0  0  0  0  0  0  0
    1.5065   -2.1538    0.5349 C   0  0  0  0  0  0  0  0  0  0  0  0
    0.6426   -2.8103    0.4244 H   0  0  0  0  0  0  0  0  0  0  0  0
    2.3996   -2.6777    0.1964 H   0  0  0  0  0  0  0  0  0  0  0  0
    1.6254   -1.9000    1.5886 H   0  0  0  0  0  0  0  0  0  0  0  0
    1.0767   -1.2668   -1.6123 O   0  0  0  0  0  0  0  0  0  0  0  0
    1.7475   -1.9071   -1.8585 H   0  0  0  0  0  0  0  0  0  0  0  0
    0.1342    1.3315   -0.5831 C   0  0  0  0  0  0  0  0  0  0  0  0
    1.0322    2.1692   -0.4987 O   0  0  0  0  0  0  0  0  0  0  0  0
   -0.9095    1.4901   -1.4090 N   0  0  0  0  0  0  0  0  0  0  0  0
   -1.6016    0.7601   -1.4481 H   0  0  0  0  0  0  0  0  0  0  0  0
   -1.1049    2.6641   -2.2583 C   0  0  0  0  0  0  0  0  0  0  0  0
   -0.2117    2.8359   -2.8622 H   0  0  0  0  0  0  0  0  0  0  0  0
   -1.9609    2.5188   -2.9176 H   0  0  0  0  0  0  0  0  0  0  0  0
   -1.2749    3.5445   -1.6349 H   0  0  0  0  0  0  0  0  0  0  0  0
  5  6  2  0  0  0  0
  5  7  1  0  0  0  0
  2  3  1  0  0  0  0
  2  4  1  0  0  0  0
  2  5  1  0  0  0  0
  1  2  1  0  0  0  0
 19 20  2  0  0  0  0
 19 21  1  0  0  0  0
 17 18  1  0  0  0  0
 13 14  1  0  0  0  0
 13 15  1  0  0  0  0
 13 16  1  0  0  0  0
 11 12  1  0  0  0  0
 11 13  1  0  0  0  0
 11 17  1  0  0  0  0
  9 10  1  0  0  0  0
  9 11  1  0  0  0  0
  9 19  1  0  0  0  0
  7  8  1  0  0  0  0
  7  9  1  0  0  0  0
 23 24  1  0  0  0  0
 23 25  1  0  0  0  0
 23 26  1  0  0  0  0
 21 22  1  0  0  0  0
 21 23  1  0  0  0  0
M  END
$$$$
default_name
  -OEChem-01062215323D

 26 25  0     1  0  0  0  0  0999 V2000
   -2.8882   -3.2497    1.2537 H   0  0  0  0  0  0  0  0  0  0  0  0
   -2.8032   -2.3157    0.7017 C   0  0  0  0  0  0  0  0  0  0  0  0
   -3.5012   -1.5857    1.1067 H   0  0  0  0  0  0  0  0  0  0  0  0
   -3.0182   -2.4907   -0.3513 H   0  0  0  0  0  0  0  0  0  0  0  0
   -1.3942   -1.7897    0.8407 C   0  0  0  0  0  0  0  0  0  0  0  0
   -0.5672   -2.4077    1.5007 O   0  0  0  0  0  0  0  0  0  0  0  0
   -1.1222   -0.6447    0.2217 N   0  0  0  0  0  0  0  0  0  0  0  0
   -1.8592   -0.1777   -0.2863 H   0  0  0  0  0  0  0  0  0  0  0  0
    0.1838    0.0363    0.2367 C   0  0  1  0  0  0  0  0  0  0  0  0
    0.4220    0.3111    1.2636 H   0  0  0  0  0  0  0  0  0  0  0  0
    1.3131   -0.8777   -0.2819 C   0  0  1  0  0  0  0  0  0  0  0  0
    2.2475   -0.3178   -0.2483 H   0  0  0  0  0  0  0  0  0  0  0  0
    1.5065   -2.1538    0.5349 C   0  0  0  0  0  0  0  0  0  0  0  0
    0.6426   -2.8103    0.4244 H   0  0  0  0  0  0  0  0  0  0  0  0
    2.3996   -2.6777    0.1964 H   0  0  0  0  0  0  0  0  0  0  0  0
    1.6254   -1.9000    1.5886 H   0  0  0  0  0  0  0  0  0  0  0  0
    1.0767   -1.2668   -1.6123 O   0  0  0  0  0  0  0  0  0  0  0  0
    1.7475   -1.9071   -1.8585 H   0  0  0  0  0  0  0  0  0  0  0  0
    0.1342    1.3315   -0.5831 C   0  0  0  0  0  0  0  0  0  0  0  0
    1.1352    2.0353   -0.7164 O   0  0  0  0  0  0  0  0  0  0  0  0
   -1.0332    1.6397   -1.1652 N   0  0  0  0  0  0  0  0  0  0  0  0
   -1.8106    1.0135   -1.0351 H   0  0  0  0  0  0  0  0  0  0  0  0
   -1.2467    2.8354   -1.9791 C   0  0  0  0  0  0  0  0  0  0  0  0
   -0.4926    2.8854   -2.7670 H   0  0  0  0  0  0  0  0  0  0  0  0
   -2.2380    2.8154   -2.4323 H   0  0  0  0  0  0  0  0  0  0  0  0
   -1.1534    3.7265   -1.3547 H   0  0  0  0  0  0  0  0  0  0  0  0
  5  6  2  0  0  0  0
  5  7  1  0  0  0  0
  2  3  1  0  0  0  0
  2  4  1  0  0  0  0
  2  5  1  0  0  0  0
  1  2  1  0  0  0  0
 19 20  2  0  0  0  0
 19 21  1  0  0  0  0
 17 18  1  0  0  0  0
 13 14  1  0  0  0  0
 13 15  1  0  0  0  0
 13 16  1  0  0  0  0
 11 12  1  0  0  0  0
 11 13  1  0  0  0  0
 11 17  1  0  0  0  0
  9 10  1  0  0  0  0
  9 11  1  0  0  0  0
  9 19  1  0  0  0  0
  7  8  1  0  0  0  0
  7  9  1  0  0  0  0
 23 24  1  0  0  0  0
 23 25  1  0  0  0  0
 23 26  1  0  0  0  0
 21 22  1  0  0  0  0
 21 23  1  0  0  0  0
M  END
$$$$
default_name
  -OEChem-01062215323D

 26 25  0     1  0  0  0  0  0999 V2000
   -2.8882   -3.2497    1.2537 H   0  0  0  0  0  0  0  0  0  0  0  0
   -2.8032   -2.3157    0.7017 C   0  0  0  0  0  0  0  0  0  0  0  0
   -3.5012   -1.5857    1.1067 H   0  0  0  0  0  0  0  0  0  0  0  0
   -3.0182   -2.4907   -0.3513 H   0  0  0  0  0  0  0  0  0  0  0  0
   -1.3942   -1.7897    0.8407 C   0  0  0  0  0  0  0  0  0  0  0  0
   -0.5672   -2.4077    1.5007 O   0  0  0  0  0  0  0  0  0  0  0  0
   -1.1222   -0.6447    0.2217 N   0  0  0  0  0  0  0  0  0  0  0  0
   -1.8592   -0.1777   -0.2863 H   0  0  0  0  0  0  0  0  0  0  0  0
    0.1838    0.0363    0.2367 C   0  0  1  0  0  0  0  0  0  0  0  0
    0.4220    0.3111    1.2636 H   0  0  0  0  0  0  0  0  0  0  0  0
    1.3131   -0.8777   -0.2819 C   0  0  1  0  0  0  0  0  0  0  0  0
    2.2475   -0.3178   -0.2483 H   0  0  0  0  0  0  0  0  0  0  0  0
    1.5065   -2.1538    0.5349 C   0  0  0  0  0  0  0  0  0  0  0  0
    0.6426   -2.8103    0.4244 H   0  0  0  0  0  0  0  0  0  0  0  0
    2.3996   -2.6777    0.1964 H   0  0  0  0  0  0  0  0  0  0  0  0
    1.6254   -1.9000    1.5886 H   0  0  0  0  0  0  0  0  0  0  0  0
    1.0767   -1.2668   -1.6123 O   0  0  0  0  0  0  0  0  0  0  0  0
    1.7475   -1.9071   -1.8585 H   0  0  0  0  0  0  0  0  0  0  0  0
    0.1342    1.3315   -0.5831 C   0  0  0  0  0  0  0  0  0  0  0  0
    1.1687    1.8900   -0.9480 O   0  0  0  0  0  0  0  0  0  0  0  0
   -1.0786    1.8034   -0.9039 N   0  0  0  0  0  0  0  0  0  0  0  0
   -1.8871    1.2907   -0.5926 H   0  0  0  0  0  0  0  0  0  0  0  0
   -1.2990    3.0228   -1.6798 C   0  0  0  0  0  0  0  0  0  0  0  0
   -0.7364    2.9728   -2.6141 H   0  0  0  0  0  0  0  0  0  0  0  0
   -2.3586    3.1443   -1.9054 H   0  0  0  0  0  0  0  0  0  0  0  0
   -0.9495    3.8878   -1.1121 H   0  0  0  0  0  0  0  0  0  0  0  0
  5  6  2  0  0  0  0
  5  7  1  0  0  0  0
  2  3  1  0  0  0  0
  2  4  1  0  0  0  0
  2  5  1  0  0  0  0
  1  2  1  0  0  0  0
 19 20  2  0  0  0  0
 19 21  1  0  0  0  0
 17 18  1  0  0  0  0
 13 14  1  0  0  0  0
 13 15  1  0  0  0  0
 13 16  1  0  0  0  0
 11 12  1  0  0  0  0
 11 13  1  0  0  0  0
 11 17  1  0  0  0  0
  9 10  1  0  0  0  0
  9 11  1  0  0  0  0
  9 19  1  0  0  0  0
  7  8  1  0  0  0  0
  7  9  1  0  0  0  0
 23 24  1  0  0  0  0
 23 25  1  0  0  0  0
 23 26  1  0  0  0  0
 21 22  1  0  0  0  0
 21 23  1  0  0  0  0
M  END
$$$$
default_name
  -OEChem-01062215323D

 26 25  0     1  0  0  0  0  0999 V2000
   -2.8882   -3.2497    1.2537 H   0  0  0  0  0  0  0  0  0  0  0  0
   -2.8032   -2.3157    0.7017 C   0  0  0  0  0  0  0  0  0  0  0  0
   -3.5012   -1.5857    1.1067 H   0  0  0  0  0  0  0  0  0  0  0  0
   -3.0182   -2.4907   -0.3513 H   0  0  0  0  0  0  0  0  0  0  0  0
   -1.3942   -1.7897    0.8407 C   0  0  0  0  0  0  0  0  0  0  0  0
   -0.5672   -2.4077    1.5007 O   0  0  0  0  0  0  0  0  0  0  0  0
   -1.1222   -0.6447    0.2217 N   0  0  0  0  0  0  0  0  0  0  0  0
   -1.8592   -0.1777   -0.2863 H   0  0  0  0  0  0  0  0  0  0  0  0
    0.1838    0.0363    0.2367 C   0  0  1  0  0  0  0  0  0  0  0  0
    0.4220    0.3111    1.2636 H   0  0  0  0  0  0  0  0  0  0  0  0
    1.3131   -0.8777   -0.2819 C   0  0  1  0  0  0  0  0  0  0  0  0
    2.2475   -0.3178   -0.2483 H   0  0  0  0  0  0  0  0  0  0  0  0
    1.5065   -2.1538    0.5349 C   0  0  0  0  0  0  0  0  0  0  0  0
    0.6426   -2.8103    0.4244 H   0  0  0  0  0  0  0  0  0  0  0  0
    2.3996   -2.6777    0.1964 H   0  0  0  0  0  0  0  0  0  0  0  0
    1.6254   -1.9000    1.5886 H   0  0  0  0  0  0  0  0  0  0  0  0
    1.0767   -1.2668   -1.6123 O   0  0  0  0  0  0  0  0  0  0  0  0
    1.7475   -1.9071   -1.8585 H   0  0  0  0  0  0  0  0  0  0  0  0
    0.1342    1.3315   -0.5831 C   0  0  0  0  0  0  0  0  0  0  0  0
    1.1302    1.7430   -1.1779 O   0  0  0  0  0  0  0  0  0  0  0  0
   -1.0428    1.9700   -0.6429 N   0  0  0  0  0  0  0  0  0  0  0  0
   -1.8260    1.5727   -0.1507 H   0  0  0  0  0  0  0  0  0  0  0  0
   -1.2581    3.2136   -1.3808 C   0  0  0  0  0  0  0  0  0  0  0  0
   -0.9263    3.0923   -2.4139 H   0  0  0  0  0  0  0  0  0  0  0  0
   -2.3145    3.4830   -1.3729 H   0  0  0  0  0  0  0  0  0  0  0  0
   -0.6772    4.0175   -0.9237 H   0  0  0  0  0  0  0  0  0  0  0  0
  5  6  2  0  0  0  0
  5  7  1  0  0  0  0
  2  3  1  0  0  0  0
  2  4  1  0  0  0  0
  2  5  1  0  0  0  0
  1  2  1  0  0  0  0
 19 20  2  0  0  0  0
 19 21  1  0  0  0  0
 17 18  1  0  0  0  0
 13 14  1  0  0  0  0
 13 15  1  0  0  0  0
 13 16  1  0  0  0  0
 11 12  1  0  0  0  0
 11 13  1  0  0  0  0
 11 17  1  0  0  0  0
  9 10  1  0  0  0  0
  9 11  1  0  0  0  0
  9 19  1  0  0  0  0
  7  8  1  0  0  0  0
  7  9  1  0  0  0  0
 23 24  1  0  0  0  0
 23 25  1  0  0  0  0
 23 26  1  0  0  0  0
 21 22  1  0  0  0  0
 21 23  1  0  0  0  0
M  END
$$$$
default_name
  -OEChem-01062215323D

 26 25  0     1  0  0  0  0  0999 V2000
   -2.8882   -3.2497    1.2537 H   0  0  0  0  0  0  0  0  0  0  0  0
   -2.8032   -2.3157    0.7017 C   0  0  0  0  0  0  0  0  0  0  0  0
   -3.5012   -1.5857    1.1067 H   0  0  0  0  0  0  0  0  0  0  0  0
   -3.0182   -2.4907   -0.3513 H   0  0  0  0  0  0  0  0  0  0  0  0
   -1.3942   -1.7897    0.8407 C   0  0  0  0  0  0  0  0  0  0  0  0
   -0.5672   -2.4077    1.5007 O   0  0  0  0  0  0  0  0  0  0  0  0
   -1.1222   -0.6447    0.2217 N   0  0  0  0  0  0  0  0  0  0  0  0
   -1.8592   -0.1777   -0.2863 H   0  0  0  0  0  0  0  0  0  0  0  0
    0.1838    0.0363    0.2367 C   0  0  1  0  0  0  0  0  0  0  0  0
    0.4220    0.3111    1.2636 H   0  0  0  0  0  0  0  0  0  0  0  0
    1.3131   -0.8777   -0.2819 C   0  0  1  0  0  0  0  0  0  0  0  0
    2.2475   -0.3178   -0.2483 H   0  0  0  0  0  0  0  0  0  0  0  0
    1.5065   -2.1538    0.5349 C   0  0  0  0  0  0  0  0  0  0  0  0
    0.6426   -2.8103    0.4244 H   0  0  0  0  0  0  0  0  0  0  0  0
    2.3996   -2.6777    0.1964 H   0  0  0  0  0  0  0  0  0  0  0  0
    1.6254   -1.9000    1.5886 H   0  0  0  0  0  0  0  0  0  0  0  0
    1.0767   -1.2668   -1.6123 O   0  0  0  0  0  0  0  0  0  0  0  0
    1.7475   -1.9071   -1.8585 H   0  0  0  0  0  0  0  0  0  0  0  0
    0.1342    1.3315   -0.5831 C   0  0  0  0  0  0  0  0  0  0  0  0
    1.0225    1.6044   -1.3903 O   0  0  0  0  0  0  0  0  0  0  0  0
   -0.9281    2.1281   -0.4000 N   0  0  0  0  0  0  0  0  0  0  0  0
   -1.6314    1.8403    0.2603 H   0  0  0  0  0  0  0  0  0  0  0  0
   -1.1269    3.3948   -1.1026 C   0  0  0  0  0  0  0  0  0  0  0  0
   -1.0495    3.2356   -2.1800 H   0  0  0  0  0  0  0  0  0  0  0  0
   -2.1085    3.8086   -0.8710 H   0  0  0  0  0  0  0  0  0  0  0  0
   -0.3551    4.1067   -0.8023 H   0  0  0  0  0  0  0  0  0  0  0  0
  5  6  2  0  0  0  0
  5  7  1  0  0  0  0
  2  3  1  0  0  0  0
  2  4  1  0  0  0  0
  2  5  1  0  0  0  0
  1  2  1  0  0  0  0
 19 20  2  0  0  0  0
 19 21  1  0  0  0  0
 17 18  1  0  0  0  0
 13 14  1  0  0  0  0
 13 15  1  0  0  0  0
 13 16  1  0  0  0  0
 11 12  1  0  0  0  0
 11 13  1  0  0  0  0
 11 17  1  0  0  0  0
  9 10  1  0  0  0  0
  9 11  1  0  0  0  0
  9 19  1  0  0  0  0
  7  8  1  0  0  0  0
  7  9  1  0  0  0  0
 23 24  1  0  0  0  0
 23 25  1  0  0  0  0
 23 26  1  0  0  0  0
 21 22  1  0  0  0  0
 21 23  1  0  0  0  0
M  END
$$$$
default_name
  -OEChem-01062215323D

 26 25  0     1  0  0  0  0  0999 V2000
   -2.8882   -3.2497    1.2537 H   0  0  0  0  0  0  0  0  0  0  0  0
   -2.8032   -2.3157    0.7017 C   0  0  0  0  0  0  0  0  0  0  0  0
   -3.5012   -1.5857    1.1067 H   0  0  0  0  0  0  0  0  0  0  0  0
   -3.0182   -2.4907   -0.3513 H   0  0  0  0  0  0  0  0  0  0  0  0
   -1.3942   -1.7897    0.8407 C   0  0  0  0  0  0  0  0  0  0  0  0
   -0.5672   -2.4077    1.5007 O   0  0  0  0  0  0  0  0  0  0  0  0
   -1.1222   -0.6447    0.2217 N   0  0  0  0  0  0  0  0  0  0  0  0
   -1.8592   -0.1777   -0.2863 H   0  0  0  0  0  0  0  0  0  0  0  0
    0.1838    0.0363    0.2367 C   0  0  1  0  0  0  0  0  0  0  0  0
    0.4220    0.3111    1.2636 H   0  0  0  0  0  0  0  0  0  0  0  0
    1.3131   -0.8777   -0.2819 C   0  0  1  0  0  0  0  0  0  0  0  0
    2.2475   -0.3178   -0.2483 H   0  0  0  0  0  0  0  0  0  0  0  0
    1.5065   -2.1538    0.5349 C   0  0  0  0  0  0  0  0  0  0  0  0
    0.6426   -2.8103    0.4244 H   0  0  0  0  0  0  0  0  0  0  0  0
    2.3996   -2.6777    0.1964 H   0  0  0  0  0  0  0  0  0  0  0  0
    1.6254   -1.9000    1.5886 H   0  0  0  0  0  0  0  0  0  0  0  0
    1.0767   -1.2668   -1.6123 O   0  0  0  0  0  0  0  0  0  0  0  0
    1.7475   -1.9071   -1.8585 H   0  0  0  0  0  0  0  0  0  0  0  0
    0.1342    1.3315   -0.5831 C   0  0  0  0  0  0  0  0  0  0  0  0
    0.8529    1.4837   -1.5708 O   0  0  0  0  0  0  0  0  0  0  0  0
   -0.7423    2.2670   -0.1918 N   0  0  0  0  0  0  0  0  0  0  0  0
   -1.3165    2.0754    0.6126 H   0  0  0  0  0  0  0  0  0  0  0  0
   -0.9143    3.5539   -0.8641 C   0  0  0  0  0  0  0  0  0  0  0  0
   -1.0975    3.3931   -1.9283 H   0  0  0  0  0  0  0  0  0  0  0  0
   -1.7549    4.0988   -0.4339 H   0  0  0  0  0  0  0  0  0  0  0  0
   -0.0052    4.1493   -0.7562 H   0  0  0  0  0  0  0  0  0  0  0  0
  5  6  2  0  0  0  0
  5  7  1  0  0  0  0
  2  3  1  0  0  0  0
  2  4  1  0  0  0  0
  2  5  1  0  0  0  0
  1  2  1  0  0  0  0
 19 20  2  0  0  0  0
 19 21  1  0  0  0  0
 17 18  1  0  0  0  0
 13 14  1  0  0  0  0
 13 15  1  0  0  0  0
 13 16  1  0  0  0  0
 11 12  1  0  0  0  0
 11 13  1  0  0  0  0
 11 17  1  0  0  0  0
  9 10  1  0  0  0  0
  9 11  1  0  0  0  0
  9 19  1  0  0  0  0
  7  8  1  0  0  0  0
  7  9  1  0  0  0  0
 23 24  1  0  0  0  0
 23 25  1  0  0  0  0
 23 26  1  0  0  0  0
 21 22  1  0  0  0  0
 21 23  1  0  0  0  0
M  END
$$$$
default_name
  -OEChem-01062215323D

 26 25  0     1  0  0  0  0  0999 V2000
   -2.8882   -3.2497    1.2537 H   0  0  0  0  0  0  0  0  0  0  0  0
   -2.8032   -2.3157    0.7017 C   0  0  0  0  0  0  0  0  0  0  0  0
   -3.5012   -1.5857    1.1067 H   0  0  0  0  0  0  0  0  0  0  0  0
   -3.0182   -2.4907   -0.3513 H   0  0  0  0  0  0  0  0  0  0  0  0
   -1.3942   -1.7897    0.8407 C   0  0  0  0  0  0  0  0  0  0  0  0
   -0.5672   -2.4077    1.5007 O   0  0  0  0  0  0  0  0  0  0  0  0
   -1.1222   -0.6447    0.2217 N   0  0  0  0  0  0  0  0  0  0  0  0
   -1.8592   -0.1777   -0.2863 H   0  0  0  0  0  0  0  0  0  0  0  0
    0.1838    0.0363    0.2367 C   0  0  1  0  0  0  0  0  0  0  0  0
    0.4220    0.3111    1.2636 H   0  0  0  0  0  0  0  0  0  0  0  0
    1.3131   -0.8777   -0.2819 C   0  0  1  0  0  0  0  0  0  0  0  0
    2.2475   -0.3178   -0.2483 H   0  0  0  0  0  0  0  0  0  0  0  0
    1.5065   -2.1538    0.5349 C   0  0  0  0  0  0  0  0  0  0  0  0
    0.6426   -2.8103    0.4244 H   0  0  0  0  0  0  0  0  0  0  0  0
    2.3996   -2.6777    0.1964 H   0  0  0  0  0  0  0  0  0  0  0  0
    1.6254   -1.9000    1.5886 H   0  0  0  0  0  0  0  0  0  0  0  0
    1.0767   -1.2668   -1.6123 O   0  0  0  0  0  0  0  0  0  0  0  0
    1.7475   -1.9071   -1.8585 H   0  0  0  0  0  0  0  0  0  0  0  0
    0.1342    1.3315   -0.5831 C   0  0  0  0  0  0  0  0  0  0  0  0
    0.6328    1.3890   -1.7071 O   0  0  0  0  0  0  0  0  0  0  0  0
   -0.4982    2.3772   -0.0325 N   0  0  0  0  0  0  0  0  0  0  0  0
   -0.9029    2.2618    0.8821 H   0  0  0  0  0  0  0  0  0  0  0  0
   -0.6348    3.6802   -0.6814 C   0  0  0  0  0  0  0  0  0  0  0  0
   -1.0671    3.5539   -1.6760 H   0  0  0  0  0  0  0  0  0  0  0  0
   -1.2776    4.3338   -0.0915 H   0  0  0  0  0  0  0  0  0  0  0  0
    0.3489    4.1423   -0.7886 H   0  0  0  0  0  0  0  0  0  0  0  0
  5  6  2  0  0  0  0
  5  7  1  0  0  0  0
  2  3  1  0  0  0  0
  2  4  1  0  0  0  0
  2  5  1  0  0  0  0
  1  2  1  0  0  0  0
 19 20  2  0  0  0  0
 19 21  1  0  0  0  0
 17 18  1  0  0  0  0
 13 14  1  0  0  0  0
 13 15  1  0  0  0  0
 13 16  1  0  0  0  0
 11 12  1  0  0  0  0
 11 13  1  0  0  0  0
 11 17  1  0  0  0  0
  9 10  1  0  0  0  0
  9 11  1  0  0  0  0
  9 19  1  0  0  0  0
  7  8  1  0  0  0  0
  7  9  1  0  0  0  0
 23 24  1  0  0  0  0
 23 25  1  0  0  0  0
 23 26  1  0  0  0  0
 21 22  1  0  0  0  0
 21 23  1  0  0  0  0
M  END
$$$$
default_name
  -OEChem-01062215323D

 26 25  0     1  0  0  0  0  0999 V2000
   -2.8882   -3.2497    1.2537 H   0  0  0  0  0  0  0  0  0  0  0  0
   -2.8032   -2.3157    0.7017 C   0  0  0  0  0  0  0  0  0  0  0  0
   -3.5012   -1.5857    1.1067 H   0  0  0  0  0  0  0  0  0  0  0  0
   -3.0182   -2.4907   -0.3513 H   0  0  0  0  0  0  0  0  0  0  0  0
   -1.3942   -1.7897    0.8407 C   0  0  0  0  0  0  0  0  0  0  0  0
   -0.5672   -2.4077    1.5007 O   0  0  0  0  0  0  0  0  0  0  0  0
   -1.1222   -0.6447    0.2217 N   0  0  0  0  0  0  0  0  0  0  0  0
   -1.8592   -0.1777   -0.2863 H   0  0  0  0  0  0  0  0  0  0  0  0
    0.1838    0.0363    0.2367 C   0  0  1  0  0  0  0  0  0  0  0  0
    0.4220    0.3111    1.2636 H   0  0  0  0  0  0  0  0  0  0  0  0
    1.3131   -0.8777   -0.2819 C   0  0  1  0  0  0  0  0  0  0  0  0
    2.2475   -0.3178   -0.2483 H   0  0  0  0  0  0  0  0  0  0  0  0
    1.5065   -2.1538    0.5349 C   0  0  0  0  0  0  0  0  0  0  0  0
    0.6426   -2.8103    0.4244 H   0  0  0  0  0  0  0  0  0  0  0  0
    2.3996   -2.6777    0.1964 H   0  0  0  0  0  0  0  0  0  0  0  0
    1.6254   -1.9000    1.5886 H   0  0  0  0  0  0  0  0  0  0  0  0
    1.0767   -1.2668   -1.6123 O   0  0  0  0  0  0  0  0  0  0  0  0
    1.7475   -1.9071   -1.8585 H   0  0  0  0  0  0  0  0  0  0  0  0
    0.1342    1.3315   -0.5831 C   0  0  0  0  0  0  0  0  0  0  0  0
    0.3774    1.3269   -1.7898 O   0  0  0  0  0  0  0  0  0  0  0  0
   -0.2123    2.4512    0.0671 N   0  0  0  0  0  0  0  0  0  0  0  0
   -0.4186    2.3869    1.0504 H   0  0  0  0  0  0  0  0  0  0  0  0
   -0.3074    3.7651   -0.5672 C   0  0  0  0  0  0  0  0  0  0  0  0
   -0.9603    3.7072   -1.4404 H   0  0  0  0  0  0  0  0  0  0  0  0
   -0.7092    4.4977    0.1330 H   0  0  0  0  0  0  0  0  0  0  0  0
    0.6828    4.0864   -0.8971 H   0  0  0  0  0  0  0  0  0  0  0  0
  5  6  2  0  0  0  0
  5  7  1  0  0  0  0
  2  3  1  0  0  0  0
  2  4  1  0  0  0  0
  2  5  1  0  0  0  0
  1  2  1  0  0  0  0
 19 20  2  0  0  0  0
 19 21  1  0  0  0  0
 17 18  1  0  0  0  0
 13 14  1  0  0  0  0
 13 15  1  0  0  0  0
 13 16  1  0  0  0  0
 11 12  1  0  0  0  0
 11 13  1  0  0  0  0
 11 17  1  0  0  0  0
  9 10  1  0  0  0  0
  9 11  1  0  0  0  0
  9 19  1  0  0  0  0
  7  8  1  0  0  0  0
  7  9  1  0  0  0  0
 23 24  1  0  0  0  0
 23 25  1  0  0  0  0
 23 26  1  0  0  0  0
 21 22  1  0  0  0  0
 21 23  1  0  0  0  0
M  END
$$$$
default_name
  -OEChem-01062215323D

 26 25  0     1  0  0  0  0  0999 V2000
   -2.8882   -3.2497    1.2537 H   0  0  0  0  0  0  0  0  0  0  0  0
   -2.8032   -2.3157    0.7017 C   0  0  0  0  0  0  0  0  0  0  0  0
   -3.5012   -1.5857    1.1067 H   0  0  0  0  0  0  0  0  0  0  0  0
   -3.0182   -2.4907   -0.3513 H   0  0  0  0  0  0  0  0  0  0  0  0
   -1.3942   -1.7897    0.8407 C   0  0  0  0  0  0  0  0  0  0  0  0
   -0.5672   -2.4077    1.5007 O   0  0  0  0  0  0  0  0  0  0  0  0
   -1.1222   -0.6447    0.2217 N   0  0  0  0  0  0  0  0  0  0  0  0
   -1.8592   -0.1777   -0.2863 H   0  0  0  0  0  0  0  0  0  0  0  0
    0.1838    0.0363    0.2367 C   0  0  1  0  0  0  0  0  0  0  0  0
    0.4220    0.3111    1.2636 H   0  0  0  0  0  0  0  0  0  0  0  0
    1.3131   -0.8777   -0.2819 C   0  0  1  0  0  0  0  0  0  0  0  0
    2.2475   -0.3178   -0.2483 H   0  0  0  0  0  0  0  0  0  0  0  0
    1.5065   -2.1538    0.5349 C   0  0  0  0  0  0  0  0  0  0  0  0
    0.6426   -2.8103    0.4244 H   0  0  0  0  0  0  0  0  0  0  0  0
    2.3996   -2.6777    0.1964 H   0  0  0  0  0  0  0  0  0  0  0  0
    1.6254   -1.9000    1.5886 H   0  0  0  0  0  0  0  0  0  0  0  0
    1.0767   -1.2668   -1.6123 O   0  0  0  0  0  0  0  0  0  0  0  0
    1.7475   -1.9071   -1.8585 H   0  0  0  0  0  0  0  0  0  0  0  0
    0.1342    1.3315   -0.5831 C   0  0  0  0  0  0  0  0  0  0  0  0
    0.1041    1.3015   -1.8133 O   0  0  0  0  0  0  0  0  0  0  0  0
    0.0959    2.4840    0.1002 N   0  0  0  0  0  0  0  0  0  0  0  0
    0.1032    2.4421    1.1060 H   0  0  0  0  0  0  0  0  0  0  0  0
    0.0455    3.8027   -0.5291 C   0  0  0  0  0  0  0  0  0  0  0  0
   -0.7845    3.8425   -1.2373 H   0  0  0  0  0  0  0  0  0  0  0  0
   -0.0884    4.5792    0.2242 H   0  0  0  0  0  0  0  0  0  0  0  0
    0.9739    3.9853   -1.0745 H   0  0  0  0  0  0  0  0  0  0  0  0
  5  6  2  0  0  0  0
  5  7  1  0  0  0  0
  2  3  1  0  0  0  0
  2  4  1  0  0  0  0
  2  5  1  0  0  0  0
  1  2  1  0  0  0  0
 19 20  2  0  0  0  0
 19 21  1  0  0  0  0
 17 18  1  0  0  0  0
 13 14  1  0  0  0  0
 13 15  1  0  0  0  0
 13 16  1  0  0  0  0
 11 12  1  0  0  0  0
 11 13  1  0  0  0  0
 11 17  1  0  0  0  0
  9 10  1  0  0  0  0
  9 11  1  0  0  0  0
  9 19  1  0  0  0  0
  7  8  1  0  0  0  0
  7  9  1  0  0  0  0
 23 24  1  0  0  0  0
 23 25  1  0  0  0  0
 23 26  1  0  0  0  0
 21 22  1  0  0  0  0
 21 23  1  0  0  0  0
M  END
$$$$
default_name
  -OEChem-01062215323D

 26 25  0     1  0  0  0  0  0999 V2000
   -2.8882   -3.2497    1.2537 H   0  0  0  0  0  0  0  0  0  0  0  0
   -2.8032   -2.3157    0.7017 C   0  0  0  0  0  0  0  0  0  0  0  0
   -3.5012   -1.5857    1.1067 H   0  0  0  0  0  0  0  0  0  0  0  0
   -3.0182   -2.4907   -0.3513 H   0  0  0  0  0  0  0  0  0  0  0  0
   -1.3942   -1.7897    0.8407 C   0  0  0  0  0  0  0  0  0  0  0  0
   -0.5672   -2.4077    1.5007 O   0  0  0  0  0  0  0  0  0  0  0  0
   -1.1222   -0.6447    0.2217 N   0  0  0  0  0  0  0  0  0  0  0  0
   -1.8592   -0.1777   -0.2863 H   0  0  0  0  0  0  0  0  0  0  0  0
    0.1838    0.0363    0.2367 C   0  0  1  0  0  0  0  0  0  0  0  0
    0.4220    0.3111    1.2636 H   0  0  0  0  0  0  0  0  0  0  0  0
    1.3131   -0.8777   -0.2819 C   0  0  1  0  0  0  0  0  0  0  0  0
    2.2475   -0.3178   -0.2483 H   0  0  0  0  0  0  0  0  0  0  0  0
    1.5065   -2.1538    0.5349 C   0  0  0  0  0  0  0  0  0  0  0  0
    0.6426   -2.8103    0.4244 H   0  0  0  0  0  0  0  0  0  0  0  0
    2.3996   -2.6777    0.1964 H   0  0  0  0  0  0  0  0  0  0  0  0
    1.6254   -1.9000    1.5886 H   0  0  0  0  0  0  0  0  0  0  0  0
    1.0767   -1.2668   -1.6123 O   0  0  0  0  0  0  0  0  0  0  0  0
    1.7475   -1.9071   -1.8585 H   0  0  0  0  0  0  0  0  0  0  0  0
    0.1342    1.3315   -0.5831 C   0  0  0  0  0  0  0  0  0  0  0  0
   -0.1686    1.3146   -1.7761 O   0  0  0  0  0  0  0  0  0  0  0  0
    0.4053    2.4732    0.0646 N   0  0  0  0  0  0  0  0  0  0  0  0
    0.6271    2.4237    1.0453 H   0  0  0  0  0  0  0  0  0  0  0  0
    0.4000    3.7905   -0.5698 C   0  0  0  0  0  0  0  0  0  0  0  0
   -0.5515    3.9505   -1.0808 H   0  0  0  0  0  0  0  0  0  0  0  0
    0.5424    4.5728    0.1759 H   0  0  0  0  0  0  0  0  0  0  0  0
    1.2023    3.8458   -1.3086 H   0  0  0  0  0  0  0  0  0  0  0  0
  5  6  2  0  0  0  0
  5  7  1  0  0  0  0
  2  3  1  0  0  0  0
  2  4  1  0  0  0  0
  2  5  1  0  0  0  0
  1  2  1  0  0  0  0
 19 20  2  0  0  0  0
 19 21  1  0  0  0  0
 17 18  1  0  0  0  0
 13 14  1  0  0  0  0
 13 15  1  0  0  0  0
 13 16  1  0  0  0  0
 11 12  1  0  0  0  0
 11 13  1  0  0  0  0
 11 17  1  0  0  0  0
  9 10  1  0  0  0  0
  9 11  1  0  0  0  0
  9 19  1  0  0  0  0
  7  8  1  0  0  0  0
  7  9  1  0  0  0  0
 23 24  1  0  0  0  0
 23 25  1  0  0  0  0
 23 26  1  0  0  0  0
 21 22  1  0  0  0  0
 21 23  1  0  0  0  0
M  END
$$$$
default_name
  -OEChem-01062215323D

 26 25  0     1  0  0  0  0  0999 V2000
   -2.8882   -3.2497    1.2537 H   0  0  0  0  0  0  0  0  0  0  0  0
   -2.8032   -2.3157    0.7017 C   0  0  0  0  0  0  0  0  0  0  0  0
   -3.5012   -1.5857    1.1067 H   0  0  0  0  0  0  0  0  0  0  0  0
   -3.0182   -2.4907   -0.3513 H   0  0  0  0  0  0  0  0  0  0  0  0
   -1.3942   -1.7897    0.8407 C   0  0  0  0  0  0  0  0  0  0  0  0
   -0.5672   -2.4077    1.5007 O   0  0  0  0  0  0  0  0  0  0  0  0
   -1.1222   -0.6447    0.2217 N   0  0  0  0  0  0  0  0  0  0  0  0
   -1.8592   -0.1777   -0.2863 H   0  0  0  0  0  0  0  0  0  0  0  0
    0.1838    0.0363    0.2367 C   0  0  1  0  0  0  0  0  0  0  0  0
    0.4220    0.3111    1.2636 H   0  0  0  0  0  0  0  0  0  0  0  0
    1.3131   -0.8777   -0.2819 C   0  0  1  0  0  0  0  0  0  0  0  0
    2.2475   -0.3178   -0.2483 H   0  0  0  0  0  0  0  0  0  0  0  0
    1.5065   -2.1538    0.5349 C   0  0  0  0  0  0  0  0  0  0  0  0
    0.6426   -2.8103    0.4244 H   0  0  0  0  0  0  0  0  0  0  0  0
    2.3996   -2.6777    0.1964 H   0  0  0  0  0  0  0  0  0  0  0  0
    1.6254   -1.9000    1.5886 H   0  0  0  0  0  0  0  0  0  0  0  0
    1.0767   -1.2668   -1.6123 O   0  0  0  0  0  0  0  0  0  0  0  0
    1.7475   -1.9071   -1.8585 H   0  0  0  0  0  0  0  0  0  0  0  0
    0.1342    1.3315   -0.5831 C   0  0  0  0  0  0  0  0  0  0  0  0
   -0.4221    1.3653   -1.6806 O   0  0  0  0  0  0  0  0  0  0  0  0
    0.6950    2.4198   -0.0374 N   0  0  0  0  0  0  0  0  0  0  0  0
    1.1173    2.3330    0.8723 H   0  0  0  0  0  0  0  0  0  0  0  0
    0.7318    3.7294   -0.6865 C   0  0  0  0  0  0  0  0  0  0  0  0
   -0.2773    4.0239   -0.9814 H   0  0  0  0  0  0  0  0  0  0  0  0
    1.1403    4.4789   -0.0085 H   0  0  0  0  0  0  0  0  0  0  0  0
    1.3525    3.6776   -1.5835 H   0  0  0  0  0  0  0  0  0  0  0  0
  5  6  2  0  0  0  0
  5  7  1  0  0  0  0
  2  3  1  0  0  0  0
  2  4  1  0  0  0  0
  2  5  1  0  0  0  0
  1  2  1  0  0  0  0
 19 20  2  0  0  0  0
 19 21  1  0  0  0  0
 17 18  1  0  0  0  0
 13 14  1  0  0  0  0
 13 15  1  0  0  0  0
 13 16  1  0  0  0  0
 11 12  1  0  0  0  0
 11 13  1  0  0  0  0
 11 17  1  0  0  0  0
  9 10  1  0  0  0  0
  9 11  1  0  0  0  0
  9 19  1  0  0  0  0
  7  8  1  0  0  0  0
  7  9  1  0  0  0  0
 23 24  1  0  0  0  0
 23 25  1  0  0  0  0
 23 26  1  0  0  0  0
 21 22  1  0  0  0  0
 21 23  1  0  0  0  0
M  END
$$$$
default_name
  -OEChem-01062215323D

 26 25  0     1  0  0  0  0  0999 V2000
   -2.8882   -3.2497    1.2537 H   0  0  0  0  0  0  0  0  0  0  0  0
   -2.8032   -2.3157    0.7017 C   0  0  0  0  0  0  0  0  0  0  0  0
   -3.5012   -1.5857    1.1067 H   0  0  0  0  0  0  0  0  0  0  0  0
   -3.0182   -2.4907   -0.3513 H   0  0  0  0  0  0  0  0  0  0  0  0
   -1.3942   -1.7897    0.8407 C   0  0  0  0  0  0  0  0  0  0  0  0
   -0.5672   -2.4077    1.5007 O   0  0  0  0  0  0  0  0  0  0  0  0
   -1.1222   -0.6447    0.2217 N   0  0  0  0  0  0  0  0  0  0  0  0
   -1.8592   -0.1777   -0.2863 H   0  0  0  0  0  0  0  0  0  0  0  0
    0.1838    0.0363    0.2367 C   0  0  1  0  0  0  0  0  0  0  0  0
    0.4220    0.3111    1.2636 H   0  0  0  0  0  0  0  0  0  0  0  0
    1.3131   -0.8777   -0.2819 C   0  0  1  0  0  0  0  0  0  0  0  0
    2.2475   -0.3178   -0.2483 H   0  0  0  0  0  0  0  0  0  0  0  0
    1.5065   -2.1538    0.5349 C   0  0  0  0  0  0  0  0  0  0  0  0
    0.6426   -2.8103    0.4244 H   0  0  0  0  0  0  0  0  0  0  0  0
    2.3996   -2.6777    0.1964 H   0  0  0  0  0  0  0  0  0  0  0  0
    1.6254   -1.9000    1.5886 H   0  0  0  0  0  0  0  0  0  0  0  0
    1.0767   -1.2668   -1.6123 O   0  0  0  0  0  0  0  0  0  0  0  0
    1.7475   -1.9071   -1.8585 H   0  0  0  0  0  0  0  0  0  0  0  0
    0.1342    1.3315   -0.5831 C   0  0  0  0  0  0  0  0  0  0  0  0
   -0.6391    1.4502   -1.5335 O   0  0  0  0  0  0  0  0  0  0  0  0
    0.9450    2.3272   -0.1988 N   0  0  0  0  0  0  0  0  0  0  0  0
    1.5405    2.1760    0.5988 H   0  0  0  0  0  0  0  0  0  0  0  0
    1.0183    3.6234   -0.8712 C   0  0  0  0  0  0  0  0  0  0  0  0
    0.0194    4.0577   -0.9459 H   0  0  0  0  0  0  0  0  0  0  0  0
    1.6645    4.3040   -0.3166 H   0  0  0  0  0  0  0  0  0  0  0  0
    1.4142    3.4920   -1.8805 H   0  0  0  0  0  0  0  0  0  0  0  0
  5  6  2  0  0  0  0
  5  7  1  0  0  0  0
  2  3  1  0  0  0  0
  2  4  1  0  0  0  0
  2  5  1  0  0  0  0
  1  2  1  0  0  0  0
 19 20  2  0  0  0  0
 19 21  1  0  0  0  0
 17 18  1  0  0  0  0
 13 14  1  0  0  0  0
 13 15  1  0  0  0  0
 13 16  1  0  0  0  0
 11 12  1  0  0  0  0
 11 13  1  0  0  0  0
 11 17  1  0  0  0  0
  9 10  1  0  0  0  0
  9 11  1  0  0  0  0
  9 19  1  0  0  0  0
  7  8  1  0  0  0  0
  7  9  1  0  0  0  0
 23 24  1  0  0  0  0
 23 25  1  0  0  0  0
 23 26  1  0  0  0  0
 21 22  1  0  0  0  0
 21 23  1  0  0  0  0
M  END
$$$$
default_name
  -OEChem-01062215323D

 26 25  0     1  0  0  0  0  0999 V2000
   -2.8882   -3.2497    1.2537 H   0  0  0  0  0  0  0  0  0  0  0  0
   -2.8032   -2.3157    0.7017 C   0  0  0  0  0  0  0  0  0  0  0  0
   -3.5012   -1.5857    1.1067 H   0  0  0  0  0  0  0  0  0  0  0  0
   -3.0182   -2.4907   -0.3513 H   0  0  0  0  0  0  0  0  0  0  0  0
   -1.3942   -1.7897    0.8407 C   0  0  0  0  0  0  0  0  0  0  0  0
   -0.5672   -2.4077    1.5007 O   0  0  0  0  0  0  0  0  0  0  0  0
   -1.1222   -0.6447    0.2217 N   0  0  0  0  0  0  0  0  0  0  0  0
   -1.8592   -0.1777   -0.2863 H   0  0  0  0  0  0  0  0  0  0  0  0
    0.1838    0.0363    0.2367 C   0  0  1  0  0  0  0  0  0  0  0  0
    0.4220    0.3111    1.2636 H   0  0  0  0  0  0  0  0  0  0  0  0
    1.3131   -0.8777   -0.2819 C   0  0  1  0  0  0  0  0  0  0  0  0
    2.2475   -0.3178   -0.2483 H   0  0  0  0  0  0  0  0  0  0  0  0
    1.5065   -2.1538    0.5349 C   0  0  0  0  0  0  0  0  0  0  0  0
    0.6426   -2.8103    0.4244 H   0  0  0  0  0  0  0  0  0  0  0  0
    2.3996   -2.6777    0.1964 H   0  0  0  0  0  0  0  0  0  0  0  0
    1.6254   -1.9000    1.5886 H   0  0  0  0  0  0  0  0  0  0  0  0
    1.0767   -1.2668   -1.6123 O   0  0  0  0  0  0  0  0  0  0  0  0
    1.7475   -1.9071   -1.8585 H   0  0  0  0  0  0  0  0  0  0  0  0
    0.1342    1.3315   -0.5831 C   0  0  0  0  0  0  0  0  0  0  0  0
   -0.8047    1.5634   -1.3446 O   0  0  0  0  0  0  0  0  0  0  0  0
    1.1385    2.2018   -0.4085 N   0  0  0  0  0  0  0  0  0  0  0  0
    1.8677    1.9636    0.2434 H   0  0  0  0  0  0  0  0  0  0  0  0
    1.2400    3.4799   -1.1113 C   0  0  0  0  0  0  0  0  0  0  0  0
    0.3184    4.0496   -0.9768 H   0  0  0  0  0  0  0  0  0  0  0  0
    2.0793    4.0600   -0.7272 H   0  0  0  0  0  0  0  0  0  0  0  0
    1.3832    3.3017   -2.1792 H   0  0  0  0  0  0  0  0  0  0  0  0
  5  6  2  0  0  0  0
  5  7  1  0  0  0  0
  2  3  1  0  0  0  0
  2  4  1  0  0  0  0
  2  5  1  0  0  0  0
  1  2  1  0  0  0  0
 19 20  2  0  0  0  0
 19 21  1  0  0  0  0
 17 18  1  0  0  0  0
 13 14  1  0  0  0  0
 13 15  1  0  0  0  0
 13 16  1  0  0  0  0
 11 12  1  0  0  0  0
 11 13  1  0  0  0  0
 11 17  1  0  0  0  0
  9 10  1  0  0  0  0
  9 11  1  0  0  0  0
  9 19  1  0  0  0  0
  7  8  1  0  0  0  0
  7  9  1  0  0  0  0
 23 24  1  0  0  0  0
 23 25  1  0  0  0  0
 23 26  1  0  0  0  0
 21 22  1  0  0  0  0
 21 23  1  0  0  0  0
M  END
$$$$
default_name
  -OEChem-01062215323D

 26 25  0     1  0  0  0  0  0999 V2000
   -2.8882   -3.2497    1.2537 H   0  0  0  0  0  0  0  0  0  0  0  0
   -2.8032   -2.3157    0.7017 C   0  0  0  0  0  0  0  0  0  0  0  0
   -3.5012   -1.5857    1.1067 H   0  0  0  0  0  0  0  0  0  0  0  0
   -3.0182   -2.4907   -0.3513 H   0  0  0  0  0  0  0  0  0  0  0  0
   -1.3942   -1.7897    0.8407 C   0  0  0  0  0  0  0  0  0  0  0  0
   -0.5672   -2.4077    1.5007 O   0  0  0  0  0  0  0  0  0  0  0  0
   -1.1222   -0.6447    0.2217 N   0  0  0  0  0  0  0  0  0  0  0  0
   -1.8592   -0.1777   -0.2863 H   0  0  0  0  0  0  0  0  0  0  0  0
    0.1838    0.0363    0.2367 C   0  0  1  0  0  0  0  0  0  0  0  0
    0.5466    0.0723    1.2633 H   0  0  0  0  0  0  0  0  0  0  0  0
    1.2323   -0.7155   -0.6089 C   0  0  1  0  0  0  0  0  0  0  0  0
    2.1703   -0.1628   -0.5594 H   0  0  0  0  0  0  0  0  0  0  0  0
    1.5078   -2.1415   -0.1361 C   0  0  0  0  0  0  0  0  0  0  0  0
    0.6295   -2.7695   -0.2905 H   0  0  0  0  0  0  0  0  0  0  0  0
    2.3479   -2.5589   -0.6900 H   0  0  0  0  0  0  0  0  0  0  0  0
    1.7551   -2.1342    0.9259 H   0  0  0  0  0  0  0  0  0  0  0  0
    0.8336   -0.7931   -1.9551 O   0  0  0  0  0  0  0  0  0  0  0  0
    1.4627   -1.3486   -2.4200 H   0  0  0  0  0  0  0  0  0  0  0  0
    0.0509    1.4840   -0.2518 C   0  0  0  0  0  0  0  0  0  0  0  0
   -1.0446    1.9473   -0.5687 O   0  0  0  0  0  0  0  0  0  0  0  0
    1.1705    2.2200   -0.2878 N   0  0  0  0  0  0  0  0  0  0  0  0
    2.0331    1.7900    0.0027 H   0  0  0  0  0  0  0  0  0  0  0  0
    1.2150    3.6140   -0.7267 C   0  0  0  0  0  0  0  0  0  0  0  0
    0.4843    4.2009   -0.1667 H   0  0  0  0  0  0  0  0  0  0  0  0
    2.2090    4.0319   -0.5666 H   0  0  0  0  0  0  0  0  0  0  0  0
    0.9652    3.6732   -1.7881 H   0  0  0  0  0  0  0  0  0  0  0  0
  5  6  2  0  0  0  0
  5  7  1  0  0  0  0
  2  3  1  0  0  0  0
  2  4  1  0  0  0  0
  2  5  1  0  0  0  0
  1  2  1  0  0  0  0
 19 20  2  0  0  0  0
 19 21  1  0  0  0  0
 17 18  1  0  0  0  0
 13 14  1  0  0  0  0
 13 15  1  0  0  0  0
 13 16  1  0  0  0  0
 11 12  1  0  0  0  0
 11 13  1  0  0  0  0
 11 17  1  0  0  0  0
  9 10  1  0  0  0  0
  9 11  1  0  0  0  0
  9 19  1  0  0  0  0
  7  8  1  0  0  0  0
  7  9  1  0  0  0  0
 23 24  1  0  0  0  0
 23 25  1  0  0  0  0
 23 26  1  0  0  0  0
 21 22  1  0  0  0  0
 21 23  1  0  0  0  0
M  END
$$$$
default_name
  -OEChem-01062215323D

 26 25  0     1  0  0  0  0  0999 V2000
   -2.8882   -3.2497    1.2537 H   0  0  0  0  0  0  0  0  0  0  0  0
   -2.8032   -2.3157    0.7017 C   0  0  0  0  0  0  0  0  0  0  0  0
   -3.5012   -1.5857    1.1067 H   0  0  0  0  0  0  0  0  0  0  0  0
   -3.0182   -2.4907   -0.3513 H   0  0  0  0  0  0  0  0  0  0  0  0
   -1.3942   -1.7897    0.8407 C   0  0  0  0  0  0  0  0  0  0  0  0
   -0.5672   -2.4077    1.5007 O   0  0  0  0  0  0  0  0  0  0  0  0
   -1.1222   -0.6447    0.2217 N   0  0  0  0  0  0  0  0  0  0  0  0
   -1.8592   -0.1777   -0.2863 H   0  0  0  0  0  0  0  0  0  0  0  0
    0.1838    0.0363    0.2367 C   0  0  1  0  0  0  0  0  0  0  0  0
    0.5466    0.0723    1.2633 H   0  0  0  0  0  0  0  0  0  0  0  0
    1.2323   -0.7155   -0.6089 C   0  0  1  0  0  0  0  0  0  0  0  0
    2.1703   -0.1628   -0.5594 H   0  0  0  0  0  0  0  0  0  0  0  0
    1.5078   -2.1415   -0.1361 C   0  0  0  0  0  0  0  0  0  0  0  0
    0.6295   -2.7695   -0.2905 H   0  0  0  0  0  0  0  0  0  0  0  0
    2.3479   -2.5589   -0.6900 H   0  0  0  0  0  0  0  0  0  0  0  0
    1.7551   -2.1342    0.9259 H   0  0  0  0  0  0  0  0  0  0  0  0
    0.8336   -0.7931   -1.9551 O   0  0  0  0  0  0  0  0  0  0  0  0
    1.4627   -1.3486   -2.4200 H   0  0  0  0  0  0  0  0  0  0  0  0
    0.0509    1.4840   -0.2518 C   0  0  0  0  0  0  0  0  0  0  0  0
   -1.0484    2.0351   -0.3075 O   0  0  0  0  0  0  0  0  0  0  0  0
    1.1824    2.1214   -0.5833 N   0  0  0  0  0  0  0  0  0  0  0  0
    2.0529    1.6230   -0.4975 H   0  0  0  0  0  0  0  0  0  0  0  0
    1.2289    3.5011   -1.0650 C   0  0  0  0  0  0  0  0  0  0  0  0
    0.7069    4.1550   -0.3636 H   0  0  0  0  0  0  0  0  0  0  0  0
    2.2618    3.8347   -1.1654 H   0  0  0  0  0  0  0  0  0  0  0  0
    0.7319    3.5685   -2.0352 H   0  0  0  0  0  0  0  0  0  0  0  0
  5  6  2  0  0  0  0
  5  7  1  0  0  0  0
  2  3  1  0  0  0  0
  2  4  1  0  0  0  0
  2  5  1  0  0  0  0
  1  2  1  0  0  0  0
 19 20  2  0  0  0  0
 19 21  1  0  0  0  0
 17 18  1  0  0  0  0
 13 14  1  0  0  0  0
 13 15  1  0  0  0  0
 13 16  1  0  0  0  0
 11 12  1  0  0  0  0
 11 13  1  0  0  0  0
 11 17  1  0  0  0  0
  9 10  1  0  0  0  0
  9 11  1  0  0  0  0
  9 19  1  0  0  0  0
  7  8  1  0  0  0  0
  7  9  1  0  0  0  0
 23 24  1  0  0  0  0
 23 25  1  0  0  0  0
 23 26  1  0  0  0  0
 21 22  1  0  0  0  0
 21 23  1  0  0  0  0
M  END
$$$$
default_name
  -OEChem-01062215323D

 26 25  0     1  0  0  0  0  0999 V2000
   -2.8882   -3.2497    1.2537 H   0  0  0  0  0  0  0  0  0  0  0  0
   -2.8032   -2.3157    0.7017 C   0  0  0  0  0  0  0  0  0  0  0  0
   -3.5012   -1.5857    1.1067 H   0  0  0  0  0  0  0  0  0  0  0  0
   -3.0182   -2.4907   -0.3513 H   0  0  0  0  0  0  0  0  0  0  0  0
   -1.3942   -1.7897    0.8407 C   0  0  0  0  0  0  0  0  0  0  0  0
   -0.5672   -2.4077    1.5007 O   0  0  0  0  0  0  0  0  0  0  0  0
   -1.1222   -0.6447    0.2217 N   0  0  0  0  0  0  0  0  0  0  0  0
   -1.8592   -0.1777   -0.2863 H   0  0  0  0  0  0  0  0  0  0  0  0
    0.1838    0.0363    0.2367 C   0  0  1  0  0  0  0  0  0  0  0  0
    0.5466    0.0723    1.2633 H   0  0  0  0  0  0  0  0  0  0  0  0
    1.2323   -0.7155   -0.6089 C   0  0  1  0  0  0  0  0  0  0  0  0
    2.1703   -0.1628   -0.5594 H   0  0  0  0  0  0  0  0  0  0  0  0
    1.5078   -2.1415   -0.1361 C   0  0  0  0  0  0  0  0  0  0  0  0
    0.6295   -2.7695   -0.2905 H   0  0  0  0  0  0  0  0  0  0  0  0
    2.3479   -2.5589   -0.6900 H   0  0  0  0  0  0  0  0  0  0  0  0
    1.7551   -2.1342    0.9259 H   0  0  0  0  0  0  0  0  0  0  0  0
    0.8336   -0.7931   -1.9551 O   0  0  0  0  0  0  0  0  0  0  0  0
    1.4627   -1.3486   -2.4200 H   0  0  0  0  0  0  0  0  0  0  0  0
    0.0509    1.4840   -0.2518 C   0  0  0  0  0  0  0  0  0  0  0  0
   -0.9809    2.1261   -0.0563 O   0  0  0  0  0  0  0  0  0  0  0  0
    1.1137    2.0186   -0.8693 N   0  0  0  0  0  0  0  0  0  0  0  0
    1.9360    1.4488   -0.9817 H   0  0  0  0  0  0  0  0  0  0  0  0
    1.1503    3.3833   -1.3927 C   0  0  0  0  0  0  0  0  0  0  0  0
    0.8701    4.0878   -0.6071 H   0  0  0  0  0  0  0  0  0  0  0  0
    2.1503    3.6264   -1.7524 H   0  0  0  0  0  0  0  0  0  0  0  0
    0.4376    3.4810   -2.2144 H   0  0  0  0  0  0  0  0  0  0  0  0
  5  6  2  0  0  0  0
  5  7  1  0  0  0  0
  2  3  1  0  0  0  0
  2  4  1  0  0  0  0
  2  5  1  0  0  0  0
  1  2  1  0  0  0  0
 19 20  2  0  0  0  0
 19 21  1  0  0  0  0
 17 18  1  0  0  0  0
 13 14  1  0  0  0  0
 13 15  1  0  0  0  0
 13 16  1  0  0  0  0
 11 12  1  0  0  0  0
 11 13  1  0  0  0  0
 11 17  1  0  0  0  0
  9 10  1  0  0  0  0
  9 11  1  0  0  0  0
  9 19  1  0  0  0  0
  7  8  1  0  0  0  0
  7  9  1  0  0  0  0
 23 24  1  0  0  0  0
 23 25  1  0  0  0  0
 23 26  1  0  0  0  0
 21 22  1  0  0  0  0
 21 23  1  0  0  0  0
M  END
$$$$
default_name
  -OEChem-01062215323D

 26 25  0     1  0  0  0  0  0999 V2000
   -2.8882   -3.2497    1.2537 H   0  0  0  0  0  0  0  0  0  0  0  0
   -2.8032   -2.3157    0.7017 C   0  0  0  0  0  0  0  0  0  0  0  0
   -3.5012   -1.5857    1.1067 H   0  0  0  0  0  0  0  0  0  0  0  0
   -3.0182   -2.4907   -0.3513 H   0  0  0  0  0  0  0  0  0  0  0  0
   -1.3942   -1.7897    0.8407 C   0  0  0  0  0  0  0  0  0  0  0  0
   -0.5672   -2.4077    1.5007 O   0  0  0  0  0  0  0  0  0  0  0  0
   -1.1222   -0.6447    0.2217 N   0  0  0  0  0  0  0  0  0  0  0  0
   -1.8592   -0.1777   -0.2863 H   0  0  0  0  0  0  0  0  0  0  0  0
    0.1838    0.0363    0.2367 C   0  0  1  0  0  0  0  0  0  0  0  0
    0.5466    0.0723    1.2633 H   0  0  0  0  0  0  0  0  0  0  0  0
    1.2323   -0.7155   -0.6089 C   0  0  1  0  0  0  0  0  0  0  0  0
    2.1703   -0.1628   -0.5594 H   0  0  0  0  0  0  0  0  0  0  0  0
    1.5078   -2.1415   -0.1361 C   0  0  0  0  0  0  0  0  0  0  0  0
    0.6295   -2.7695   -0.2905 H   0  0  0  0  0  0  0  0  0  0  0  0
    2.3479   -2.5589   -0.6900 H   0  0  0  0  0  0  0  0  0  0  0  0
    1.7551   -2.1342    0.9259 H   0  0  0  0  0  0  0  0  0  0  0  0
    0.8336   -0.7931   -1.9551 O   0  0  0  0  0  0  0  0  0  0  0  0
    1.4627   -1.3486   -2.4200 H   0  0  0  0  0  0  0  0  0  0  0  0
    0.0509    1.4840   -0.2518 C   0  0  0  0  0  0  0  0  0  0  0  0
   -0.8470    2.2140    0.1678 O   0  0  0  0  0  0  0  0  0  0  0  0
    0.9689    1.9185   -1.1265 N   0  0  0  0  0  0  0  0  0  0  0  0
    1.6904    1.2794   -1.4170 H   0  0  0  0  0  0  0  0  0  0  0  0
    0.9846    3.2686   -1.6874 C   0  0  0  0  0  0  0  0  0  0  0  0
    0.9627    4.0039   -0.8806 H   0  0  0  0  0  0  0  0  0  0  0  0
    1.8819    3.4212   -2.2873 H   0  0  0  0  0  0  0  0  0  0  0  0
    0.1023    3.4167   -2.3137 H   0  0  0  0  0  0  0  0  0  0  0  0
  5  6  2  0  0  0  0
  5  7  1  0  0  0  0
  2  3  1  0  0  0  0
  2  4  1  0  0  0  0
  2  5  1  0  0  0  0
  1  2  1  0  0  0  0
 19 20  2  0  0  0  0
 19 21  1  0  0  0  0
 17 18  1  0  0  0  0
 13 14  1  0  0  0  0
 13 15  1  0  0  0  0
 13 16  1  0  0  0  0
 11 12  1  0  0  0  0
 11 13  1  0  0  0  0
 11 17  1  0  0  0  0
  9 10  1  0  0  0  0
  9 11  1  0  0  0  0
  9 19  1  0  0  0  0
  7  8  1  0  0  0  0
  7  9  1  0  0  0  0
 23 24  1  0  0  0  0
 23 25  1  0  0  0  0
 23 26  1  0  0  0  0
 21 22  1  0  0  0  0
 21 23  1  0  0  0  0
M  END
$$$$
default_name
  -OEChem-01062215323D

 26 25  0     1  0  0  0  0  0999 V2000
   -2.8882   -3.2497    1.2537 H   0  0  0  0  0  0  0  0  0  0  0  0
   -2.8032   -2.3157    0.7017 C   0  0  0  0  0  0  0  0  0  0  0  0
   -3.5012   -1.5857    1.1067 H   0  0  0  0  0  0  0  0  0  0  0  0
   -3.0182   -2.4907   -0.3513 H   0  0  0  0  0  0  0  0  0  0  0  0
   -1.3942   -1.7897    0.8407 C   0  0  0  0  0  0  0  0  0  0  0  0
   -0.5672   -2.4077    1.5007 O   0  0  0  0  0  0  0  0  0  0  0  0
   -1.1222   -0.6447    0.2217 N   0  0  0  0  0  0  0  0  0  0  0  0
   -1.8592   -0.1777   -0.2863 H   0  0  0  0  0  0  0  0  0  0  0  0
    0.1838    0.0363    0.2367 C   0  0  1  0  0  0  0  0  0  0  0  0
    0.5466    0.0723    1.2633 H   0  0  0  0  0  0  0  0  0  0  0  0
    1.2323   -0.7155   -0.6089 C   0  0  1  0  0  0  0  0  0  0  0  0
    2.1703   -0.1628   -0.5594 H   0  0  0  0  0  0  0  0  0  0  0  0
    1.5078   -2.1415   -0.1361 C   0  0  0  0  0  0  0  0  0  0  0  0
    0.6295   -2.7695   -0.2905 H   0  0  0  0  0  0  0  0  0  0  0  0
    2.3479   -2.5589   -0.6900 H   0  0  0  0  0  0  0  0  0  0  0  0
    1.7551   -2.1342    0.9259 H   0  0  0  0  0  0  0  0  0  0  0  0
    0.8336   -0.7931   -1.9551 O   0  0  0  0  0  0  0  0  0  0  0  0
    1.4627   -1.3486   -2.4200 H   0  0  0  0  0  0  0  0  0  0  0  0
    0.0509    1.4840   -0.2518 C   0  0  0  0  0  0  0  0  0  0  0  0
   -0.6555    2.2930    0.3496 O   0  0  0  0  0  0  0  0  0  0  0  0
    0.7579    1.8280   -1.3373 N   0  0  0  0  0  0  0  0  0  0  0  0
    1.3329    1.1262   -1.7736 H   0  0  0  0  0  0  0  0  0  0  0  0
    0.7431    3.1649   -1.9290 C   0  0  0  0  0  0  0  0  0  0  0  0
    0.9784    3.9092   -1.1656 H   0  0  0  0  0  0  0  0  0  0  0  0
    1.4751    3.2331   -2.7339 H   0  0  0  0  0  0  0  0  0  0  0  0
   -0.2512    3.3800   -2.3262 H   0  0  0  0  0  0  0  0  0  0  0  0
  5  6  2  0  0  0  0
  5  7  1  0  0  0  0
  2  3  1  0  0  0  0
  2  4  1  0  0  0  0
  2  5  1  0  0  0  0
  1  2  1  0  0  0  0
 19 20  2  0  0  0  0
 19 21  1  0  0  0  0
 17 18  1  0  0  0  0
 13 14  1  0  0  0  0
 13 15  1  0  0  0  0
 13 16  1  0  0  0  0
 11 12  1  0  0  0  0
 11 13  1  0  0  0  0
 11 17  1  0  0  0  0
  9 10  1  0  0  0  0
  9 11  1  0  0  0  0
  9 19  1  0  0  0  0
  7  8  1  0  0  0  0
  7  9  1  0  0  0  0
 23 24  1  0  0  0  0
 23 25  1  0  0  0  0
 23 26  1  0  0  0  0
 21 22  1  0  0  0  0
 21 23  1  0  0  0  0
M  END
$$$$
default_name
  -OEChem-01062215323D

 26 25  0     1  0  0  0  0  0999 V2000
   -2.8882   -3.2497    1.2537 H   0  0  0  0  0  0  0  0  0  0  0  0
   -2.8032   -2.3157    0.7017 C   0  0  0  0  0  0  0  0  0  0  0  0
   -3.5012   -1.5857    1.1067 H   0  0  0  0  0  0  0  0  0  0  0  0
   -3.0182   -2.4907   -0.3513 H   0  0  0  0  0  0  0  0  0  0  0  0
   -1.3942   -1.7897    0.8407 C   0  0  0  0  0  0  0  0  0  0  0  0
   -0.5672   -2.4077    1.5007 O   0  0  0  0  0  0  0  0  0  0  0  0
   -1.1222   -0.6447    0.2217 N   0  0  0  0  0  0  0  0  0  0  0  0
   -1.8592   -0.1777   -0.2863 H   0  0  0  0  0  0  0  0  0  0  0  0
    0.1838    0.0363    0.2367 C   0  0  1  0  0  0  0  0  0  0  0  0
    0.5466    0.0723    1.2633 H   0  0  0  0  0  0  0  0  0  0  0  0
    1.2323   -0.7155   -0.6089 C   0  0  1  0  0  0  0  0  0  0  0  0
    2.1703   -0.1628   -0.5594 H   0  0  0  0  0  0  0  0  0  0  0  0
    1.5078   -2.1415   -0.1361 C   0  0  0  0  0  0  0  0  0  0  0  0
    0.6295   -2.7695   -0.2905 H   0  0  0  0  0  0  0  0  0  0  0  0
    2.3479   -2.5589   -0.6900 H   0  0  0  0  0  0  0  0  0  0  0  0
    1.7551   -2.1342    0.9259 H   0  0  0  0  0  0  0  0  0  0  0  0
    0.8336   -0.7931   -1.9551 O   0  0  0  0  0  0  0  0  0  0  0  0
    1.4627   -1.3486   -2.4200 H   0  0  0  0  0  0  0  0  0  0  0  0
    0.0509    1.4840   -0.2518 C   0  0  0  0  0  0  0  0  0  0  0  0
   -0.4197    2.3575    0.4767 O   0  0  0  0  0  0  0  0  0  0  0  0
    0.4952    1.7532   -1.4874 N   0  0  0  0  0  0  0  0  0  0  0  0
    0.8879    0.9997   -2.0274 H   0  0  0  0  0  0  0  0  0  0  0  0
    0.4423    3.0792   -2.1010 C   0  0  0  0  0  0  0  0  0  0  0  0
    0.9161    3.8100   -1.4426 H   0  0  0  0  0  0  0  0  0  0  0  0
    0.9576    3.0750   -3.0617 H   0  0  0  0  0  0  0  0  0  0  0  0
   -0.5987    3.3734   -2.2511 H   0  0  0  0  0  0  0  0  0  0  0  0
  5  6  2  0  0  0  0
  5  7  1  0  0  0  0
  2  3  1  0  0  0  0
  2  4  1  0  0  0  0
  2  5  1  0  0  0  0
  1  2  1  0  0  0  0
 19 20  2  0  0  0  0
 19 21  1  0  0  0  0
 17 18  1  0  0  0  0
 13 14  1  0  0  0  0
 13 15  1  0  0  0  0
 13 16  1  0  0  0  0
 11 12  1  0  0  0  0
 11 13  1  0  0  0  0
 11 17  1  0  0  0  0
  9 10  1  0  0  0  0
  9 11  1  0  0  0  0
  9 19  1  0  0  0  0
  7  8  1  0  0  0  0
  7  9  1  0  0  0  0
 23 24  1  0  0  0  0
 23 25  1  0  0  0  0
 23 26  1  0  0  0  0
 21 22  1  0  0  0  0
 21 23  1  0  0  0  0
M  END
$$$$
default_name
  -OEChem-01062215323D

 26 25  0     1  0  0  0  0  0999 V2000
   -2.8882   -3.2497    1.2537 H   0  0  0  0  0  0  0  0  0  0  0  0
   -2.8032   -2.3157    0.7017 C   0  0  0  0  0  0  0  0  0  0  0  0
   -3.5012   -1.5857    1.1067 H   0  0  0  0  0  0  0  0  0  0  0  0
   -3.0182   -2.4907   -0.3513 H   0  0  0  0  0  0  0  0  0  0  0  0
   -1.3942   -1.7897    0.8407 C   0  0  0  0  0  0  0  0  0  0  0  0
   -0.5672   -2.4077    1.5007 O   0  0  0  0  0  0  0  0  0  0  0  0
   -1.1222   -0.6447    0.2217 N   0  0  0  0  0  0  0  0  0  0  0  0
   -1.8592   -0.1777   -0.2863 H   0  0  0  0  0  0  0  0  0  0  0  0
    0.1838    0.0363    0.2367 C   0  0  1  0  0  0  0  0  0  0  0  0
    0.5466    0.0723    1.2633 H   0  0  0  0  0  0  0  0  0  0  0  0
    1.2323   -0.7155   -0.6089 C   0  0  1  0  0  0  0  0  0  0  0  0
    2.1703   -0.1628   -0.5594 H   0  0  0  0  0  0  0  0  0  0  0  0
    1.5078   -2.1415   -0.1361 C   0  0  0  0  0  0  0  0  0  0  0  0
    0.6295   -2.7695   -0.2905 H   0  0  0  0  0  0  0  0  0  0  0  0
    2.3479   -2.5589   -0.6900 H   0  0  0  0  0  0  0  0  0  0  0  0
    1.7551   -2.1342    0.9259 H   0  0  0  0  0  0  0  0  0  0  0  0
    0.8336   -0.7931   -1.9551 O   0  0  0  0  0  0  0  0  0  0  0  0
    1.4627   -1.3486   -2.4200 H   0  0  0  0  0  0  0  0  0  0  0  0
    0.0509    1.4840   -0.2518 C   0  0  0  0  0  0  0  0  0  0  0  0
   -0.1555    2.4032    0.5404 O   0  0  0  0  0  0  0  0  0  0  0  0
    0.1986    1.6993   -1.5665 N   0  0  0  0  0  0  0  0  0  0  0  0
    0.3855    0.9085   -2.1609 H   0  0  0  0  0  0  0  0  0  0  0  0
    0.1026    3.0174   -2.1918 C   0  0  0  0  0  0  0  0  0  0  0  0
    0.7801    3.7131   -1.6927 H   0  0  0  0  0  0  0  0  0  0  0  0
    0.3645    2.9576   -3.2483 H   0  0  0  0  0  0  0  0  0  0  0  0
   -0.9165    3.3974   -2.0936 H   0  0  0  0  0  0  0  0  0  0  0  0
  5  6  2  0  0  0  0
  5  7  1  0  0  0  0
  2  3  1  0  0  0  0
  2  4  1  0  0  0  0
  2  5  1  0  0  0  0
  1  2  1  0  0  0  0
 19 20  2  0  0  0  0
 19 21  1  0  0  0  0
 17 18  1  0  0  0  0
 13 14  1  0  0  0  0
 13 15  1  0  0  0  0
 13 16  1  0  0  0  0
 11 12  1  0  0  0  0
 11 13  1  0  0  0  0
 11 17  1  0  0  0  0
  9 10  1  0  0  0  0
  9 11  1  0  0  0  0
  9 19  1  0  0  0  0
  7  8  1  0  0  0  0
  7  9  1  0  0  0  0
 23 24  1  0  0  0  0
 23 25  1  0  0  0  0
 23 26  1  0  0  0  0
 21 22  1  0  0  0  0
 21 23  1  0  0  0  0
M  END
$$$$
default_name
  -OEChem-01062215323D

 26 25  0     1  0  0  0  0  0999 V2000
   -2.8882   -3.2497    1.2537 H   0  0  0  0  0  0  0  0  0  0  0  0
   -2.8032   -2.3157    0.7017 C   0  0  0  0  0  0  0  0  0  0  0  0
   -3.5012   -1.5857    1.1067 H   0  0  0  0  0  0  0  0  0  0  0  0
   -3.0182   -2.4907   -0.3513 H   0  0  0  0  0  0  0  0  0  0  0  0
   -1.3942   -1.7897    0.8407 C   0  0  0  0  0  0  0  0  0  0  0  0
   -0.5672   -2.4077    1.5007 O   0  0  0  0  0  0  0  0  0  0  0  0
   -1.1222   -0.6447    0.2217 N   0  0  0  0  0  0  0  0  0  0  0  0
   -1.8592   -0.1777   -0.2863 H   0  0  0  0  0  0  0  0  0  0  0  0
    0.1838    0.0363    0.2367 C   0  0  1  0  0  0  0  0  0  0  0  0
    0.5466    0.0723    1.2633 H   0  0  0  0  0  0  0  0  0  0  0  0
    1.2323   -0.7155   -0.6089 C   0  0  1  0  0  0  0  0  0  0  0  0
    2.1703   -0.1628   -0.5594 H   0  0  0  0  0  0  0  0  0  0  0  0
    1.5078   -2.1415   -0.1361 C   0  0  0  0  0  0  0  0  0  0  0  0
    0.6295   -2.7695   -0.2905 H   0  0  0  0  0  0  0  0  0  0  0  0
    2.3479   -2.5589   -0.6900 H   0  0  0  0  0  0  0  0  0  0  0  0
    1.7551   -2.1342    0.9259 H   0  0  0  0  0  0  0  0  0  0  0  0
    0.8336   -0.7931   -1.9551 O   0  0  0  0  0  0  0  0  0  0  0  0
    1.4627   -1.3486   -2.4200 H   0  0  0  0  0  0  0  0  0  0  0  0
    0.0509    1.4840   -0.2518 C   0  0  0  0  0  0  0  0  0  0  0  0
    0.1190    2.4271    0.5363 O   0  0  0  0  0  0  0  0  0  0  0  0
   -0.1117    1.6699   -1.5692 N   0  0  0  0  0  0  0  0  0  0  0  0
   -0.1398    0.8589   -2.1651 H   0  0  0  0  0  0  0  0  0  0  0  0
   -0.2528    2.9837   -2.1951 C   0  0  0  0  0  0  0  0  0  0  0  0
    0.5796    3.6251   -1.8989 H   0  0  0  0  0  0  0  0  0  0  0  0
   -0.2636    2.8889   -3.2810 H   0  0  0  0  0  0  0  0  0  0  0  0
   -1.1831    3.4503   -1.8643 H   0  0  0  0  0  0  0  0  0  0  0  0
  5  6  2  0  0  0  0
  5  7  1  0  0  0  0
  2  3  1  0  0  0  0
  2  4  1  0  0  0  0
  2  5  1  0  0  0  0
  1  2  1  0  0  0  0
 19 20  2  0  0  0  0
 19 21  1  0  0  0  0
 17 18  1  0  0  0  0
 13 14  1  0  0  0  0
 13 15  1  0  0  0  0
 13 16  1  0  0  0  0
 11 12  1  0  0  0  0
 11 13  1  0  0  0  0
 11 17  1  0  0  0  0
  9 10  1  0  0  0  0
  9 11  1  0  0  0  0
  9 19  1  0  0  0  0
  7  8  1  0  0  0  0
  7  9  1  0  0  0  0
 23 24  1  0  0  0  0
 23 25  1  0  0  0  0
 23 26  1  0  0  0  0
 21 22  1  0  0  0  0
 21 23  1  0  0  0  0
M  END
$$$$
default_name
  -OEChem-01062215323D

 26 25  0     1  0  0  0  0  0999 V2000
   -2.8882   -3.2497    1.2537 H   0  0  0  0  0  0  0  0  0  0  0  0
   -2.8032   -2.3157    0.7017 C   0  0  0  0  0  0  0  0  0  0  0  0
   -3.5012   -1.5857    1.1067 H   0  0  0  0  0  0  0  0  0  0  0  0
   -3.0182   -2.4907   -0.3513 H   0  0  0  0  0  0  0  0  0  0  0  0
   -1.3942   -1.7897    0.8407 C   0  0  0  0  0  0  0  0  0  0  0  0
   -0.5672   -2.4077    1.5007 O   0  0  0  0  0  0  0  0  0  0  0  0
   -1.1222   -0.6447    0.2217 N   0  0  0  0  0  0  0  0  0  0  0  0
   -1.8592   -0.1777   -0.2863 H   0  0  0  0  0  0  0  0  0  0  0  0
    0.1838    0.0363    0.2367 C   0  0  1  0  0  0  0  0  0  0  0  0
    0.5466    0.0723    1.2633 H   0  0  0  0  0  0  0  0  0  0  0  0
    1.2323   -0.7155   -0.6089 C   0  0  1  0  0  0  0  0  0  0  0  0
    2.1703   -0.1628   -0.5594 H   0  0  0  0  0  0  0  0  0  0  0  0
    1.5078   -2.1415   -0.1361 C   0  0  0  0  0  0  0  0  0  0  0  0
    0.6295   -2.7695   -0.2905 H   0  0  0  0  0  0  0  0  0  0  0  0
    2.3479   -2.5589   -0.6900 H   0  0  0  0  0  0  0  0  0  0  0  0
    1.7551   -2.1342    0.9259 H   0  0  0  0  0  0  0  0  0  0  0  0
    0.8336   -0.7931   -1.9551 O   0  0  0  0  0  0  0  0  0  0  0  0
    1.4627   -1.3486   -2.4200 H   0  0  0  0  0  0  0  0  0  0  0  0
    0.0509    1.4840   -0.2518 C   0  0  0  0  0  0  0  0  0  0  0  0
    0.3851    2.4274    0.4648 O   0  0  0  0  0  0  0  0  0  0  0  0
   -0.4145    1.6670   -1.4954 N   0  0  0  0  0  0  0  0  0  0  0  0
   -0.6524    0.8542   -2.0396 H   0  0  0  0  0  0  0  0  0  0  0  0
   -0.5996    2.9803   -2.1107 C   0  0  0  0  0  0  0  0  0  0  0  0
    0.3283    3.5520   -2.0471 H   0  0  0  0  0  0  0  0  0  0  0  0
   -0.8840    2.8736   -3.1577 H   0  0  0  0  0  0  0  0  0  0  0  0
   -1.3802    3.5285   -1.5788 H   0  0  0  0  0  0  0  0  0  0  0  0
  5  6  2  0  0  0  0
  5  7  1  0  0  0  0
  2  3  1  0  0  0  0
  2  4  1  0  0  0  0
  2  5  1  0  0  0  0
  1  2  1  0  0  0  0
 19 20  2  0  0  0  0
 19 21  1  0  0  0  0
 17 18  1  0  0  0  0
 13 14  1  0  0  0  0
 13 15  1  0  0  0  0
 13 16  1  0  0  0  0
 11 12  1  0  0  0  0
 11 13  1  0  0  0  0
 11 17  1  0  0  0  0
  9 10  1  0  0  0  0
  9 11  1  0  0  0  0
  9 19  1  0  0  0  0
  7  8  1  0  0  0  0
  7  9  1  0  0  0  0
 23 24  1  0  0  0  0
 23 25  1  0  0  0  0
 23 26  1  0  0  0  0
 21 22  1  0  0  0  0
 21 23  1  0  0  0  0
M  END
$$$$
default_name
  -OEChem-01062215323D

 26 25  0     1  0  0  0  0  0999 V2000
   -2.8882   -3.2497    1.2537 H   0  0  0  0  0  0  0  0  0  0  0  0
   -2.8032   -2.3157    0.7017 C   0  0  0  0  0  0  0  0  0  0  0  0
   -3.5012   -1.5857    1.1067 H   0  0  0  0  0  0  0  0  0  0  0  0
   -3.0182   -2.4907   -0.3513 H   0  0  0  0  0  0  0  0  0  0  0  0
   -1.3942   -1.7897    0.8407 C   0  0  0  0  0  0  0  0  0  0  0  0
   -0.5672   -2.4077    1.5007 O   0  0  0  0  0  0  0  0  0  0  0  0
   -1.1222   -0.6447    0.2217 N   0  0  0  0  0  0  0  0  0  0  0  0
   -1.8592   -0.1777   -0.2863 H   0  0  0  0  0  0  0  0  0  0  0  0
    0.1838    0.0363    0.2367 C   0  0  1  0  0  0  0  0  0  0  0  0
    0.5466    0.0723    1.2633 H   0  0  0  0  0  0  0  0  0  0  0  0
    1.2323   -0.7155   -0.6089 C   0  0  1  0  0  0  0  0  0  0  0  0
    2.1703   -0.1628   -0.5594 H   0  0  0  0  0  0  0  0  0  0  0  0
    1.5078   -2.1415   -0.1361 C   0  0  0  0  0  0  0  0  0  0  0  0
    0.6295   -2.7695   -0.2905 H   0  0  0  0  0  0  0  0  0  0  0  0
    2.3479   -2.5589   -0.6900 H   0  0  0  0  0  0  0  0  0  0  0  0
    1.7551   -2.1342    0.9259 H   0  0  0  0  0  0  0  0  0  0  0  0
    0.8336   -0.7931   -1.9551 O   0  0  0  0  0  0  0  0  0  0  0  0
    1.4627   -1.3486   -2.4200 H   0  0  0  0  0  0  0  0  0  0  0  0
    0.0509    1.4840   -0.2518 C   0  0  0  0  0  0  0  0  0  0  0  0
    0.6247    2.4041    0.3307 O   0  0  0  0  0  0  0  0  0  0  0  0
   -0.6892    1.6908   -1.3500 N   0  0  0  0  0  0  0  0  0  0  0  0
   -1.1172    0.8947   -1.7932 H   0  0  0  0  0  0  0  0  0  0  0  0
   -0.9143    3.0075   -1.9443 C   0  0  0  0  0  0  0  0  0  0  0  0
    0.0434    3.4988   -2.1273 H   0  0  0  0  0  0  0  0  0  0  0  0
   -1.4543    2.9127   -2.8866 H   0  0  0  0  0  0  0  0  0  0  0  0
   -1.4943    3.6268   -1.2568 H   0  0  0  0  0  0  0  0  0  0  0  0
  5  6  2  0  0  0  0
  5  7  1  0  0  0  0
  2  3  1  0  0  0  0
  2  4  1  0  0  0  0
  2  5  1  0  0  0  0
  1  2  1  0  0  0  0
 19 20  2  0  0  0  0
 19 21  1  0  0  0  0
 17 18  1  0  0  0  0
 13 14  1  0  0  0  0
 13 15  1  0  0  0  0
 13 16  1  0  0  0  0
 11 12  1  0  0  0  0
 11 13  1  0  0  0  0
 11 17  1  0  0  0  0
  9 10  1  0  0  0  0
  9 11  1  0  0  0  0
  9 19  1  0  0  0  0
  7  8  1  0  0  0  0
  7  9  1  0  0  0  0
 23 24  1  0  0  0  0
 23 25  1  0  0  0  0
 23 26  1  0  0  0  0
 21 22  1  0  0  0  0
 21 23  1  0  0  0  0
M  END
$$$$
default_name
  -OEChem-01062215323D

 26 25  0     1  0  0  0  0  0999 V2000
   -2.8882   -3.2497    1.2537 H   0  0  0  0  0  0  0  0  0  0  0  0
   -2.8032   -2.3157    0.7017 C   0  0  0  0  0  0  0  0  0  0  0  0
   -3.5012   -1.5857    1.1067 H   0  0  0  0  0  0  0  0  0  0  0  0
   -3.0182   -2.4907   -0.3513 H   0  0  0  0  0  0  0  0  0  0  0  0
   -1.3942   -1.7897    0.8407 C   0  0  0  0  0  0  0  0  0  0  0  0
   -0.5672   -2.4077    1.5007 O   0  0  0  0  0  0  0  0  0  0  0  0
   -1.1222   -0.6447    0.2217 N   0  0  0  0  0  0  0  0  0  0  0  0
   -1.8592   -0.1777   -0.2863 H   0  0  0  0  0  0  0  0  0  0  0  0
    0.1838    0.0363    0.2367 C   0  0  1  0  0  0  0  0  0  0  0  0
    0.5466    0.0723    1.2633 H   0  0  0  0  0  0  0  0  0  0  0  0
    1.2323   -0.7155   -0.6089 C   0  0  1  0  0  0  0  0  0  0  0  0
    2.1703   -0.1628   -0.5594 H   0  0  0  0  0  0  0  0  0  0  0  0
    1.5078   -2.1415   -0.1361 C   0  0  0  0  0  0  0  0  0  0  0  0
    0.6295   -2.7695   -0.2905 H   0  0  0  0  0  0  0  0  0  0  0  0
    2.3479   -2.5589   -0.6900 H   0  0  0  0  0  0  0  0  0  0  0  0
    1.7551   -2.1342    0.9259 H   0  0  0  0  0  0  0  0  0  0  0  0
    0.8336   -0.7931   -1.9551 O   0  0  0  0  0  0  0  0  0  0  0  0
    1.4627   -1.3486   -2.4200 H   0  0  0  0  0  0  0  0  0  0  0  0
    0.0509    1.4840   -0.2518 C   0  0  0  0  0  0  0  0  0  0  0  0
    0.8214    2.3589    0.1432 O   0  0  0  0  0  0  0  0  0  0  0  0
   -0.9170    1.7397   -1.1431 N   0  0  0  0  0  0  0  0  0  0  0  0
   -1.5027    0.9776   -1.4424 H   0  0  0  0  0  0  0  0  0  0  0  0
   -1.1754    3.0635   -1.7074 C   0  0  0  0  0  0  0  0  0  0  0  0
   -0.2558    3.4691   -2.1339 H   0  0  0  0  0  0  0  0  0  0  0  0
   -1.9358    3.0036   -2.4863 H   0  0  0  0  0  0  0  0  0  0  0  0
   -1.5178    3.7383   -0.9199 H   0  0  0  0  0  0  0  0  0  0  0  0
  5  6  2  0  0  0  0
  5  7  1  0  0  0  0
  2  3  1  0  0  0  0
  2  4  1  0  0  0  0
  2  5  1  0  0  0  0
  1  2  1  0  0  0  0
 19 20  2  0  0  0  0
 19 21  1  0  0  0  0
 17 18  1  0  0  0  0
 13 14  1  0  0  0  0
 13 15  1  0  0  0  0
 13 16  1  0  0  0  0
 11 12  1  0  0  0  0
 11 13  1  0  0  0  0
 11 17  1  0  0  0  0
  9 10  1  0  0  0  0
  9 11  1  0  0  0  0
  9 19  1  0  0  0  0
  7  8  1  0  0  0  0
  7  9  1  0  0  0  0
 23 24  1  0  0  0  0
 23 25  1  0  0  0  0
 23 26  1  0  0  0  0
 21 22  1  0  0  0  0
 21 23  1  0  0  0  0
M  END
$$$$
default_name
  -OEChem-01062215323D

 26 25  0     1  0  0  0  0  0999 V2000
   -2.8882   -3.2497    1.2537 H   0  0  0  0  0  0  0  0  0  0  0  0
   -2.8032   -2.3157    0.7017 C   0  0  0  0  0  0  0  0  0  0  0  0
   -3.5012   -1.5857    1.1067 H   0  0  0  0  0  0  0  0  0  0  0  0
   -3.0182   -2.4907   -0.3513 H   0  0  0  0  0  0  0  0  0  0  0  0
   -1.3942   -1.7897    0.8407 C   0  0  0  0  0  0  0  0  0  0  0  0
   -0.5672   -2.4077    1.5007 O   0  0  0  0  0  0  0  0  0  0  0  0
   -1.1222   -0.6447    0.2217 N   0  0  0  0  0  0  0  0  0  0  0  0
   -1.8592   -0.1777   -0.2863 H   0  0  0  0  0  0  0  0  0  0  0  0
    0.1838    0.0363    0.2367 C   0  0  1  0  0  0  0  0  0  0  0  0
    0.5466    0.0723    1.2633 H   0  0  0  0  0  0  0  0  0  0  0  0
    1.2323   -0.7155   -0.6089 C   0  0  1  0  0  0  0  0  0  0  0  0
    2.1703   -0.1628   -0.5594 H   0  0  0  0  0  0  0  0  0  0  0  0
    1.5078   -2.1415   -0.1361 C   0  0  0  0  0  0  0  0  0  0  0  0
    0.6295   -2.7695   -0.2905 H   0  0  0  0  0  0  0  0  0  0  0  0
    2.3479   -2.5589   -0.6900 H   0  0  0  0  0  0  0  0  0  0  0  0
    1.7551   -2.1342    0.9259 H   0  0  0  0  0  0  0  0  0  0  0  0
    0.8336   -0.7931   -1.9551 O   0  0  0  0  0  0  0  0  0  0  0  0
    1.4627   -1.3486   -2.4200 H   0  0  0  0  0  0  0  0  0  0  0  0
    0.0509    1.4840   -0.2518 C   0  0  0  0  0  0  0  0  0  0  0  0
    0.9620    2.2948   -0.0851 O   0  0  0  0  0  0  0  0  0  0  0  0
   -1.0825    1.8104   -0.8886 N   0  0  0  0  0  0  0  0  0  0  0  0
   -1.7825    1.0974   -1.0113 H   0  0  0  0  0  0  0  0  0  0  0  0
   -1.3651    3.1445   -1.4160 C   0  0  0  0  0  0  0  0  0  0  0  0
   -0.5488    3.4650   -2.0665 H   0  0  0  0  0  0  0  0  0  0  0  0
   -2.2955    3.1400   -1.9841 H   0  0  0  0  0  0  0  0  0  0  0  0
   -1.4491    3.8555   -0.5914 H   0  0  0  0  0  0  0  0  0  0  0  0
  5  6  2  0  0  0  0
  5  7  1  0  0  0  0
  2  3  1  0  0  0  0
  2  4  1  0  0  0  0
  2  5  1  0  0  0  0
  1  2  1  0  0  0  0
 19 20  2  0  0  0  0
 19 21  1  0  0  0  0
 17 18  1  0  0  0  0
 13 14  1  0  0  0  0
 13 15  1  0  0  0  0
 13 16  1  0  0  0  0
 11 12  1  0  0  0  0
 11 13  1  0  0  0  0
 11 17  1  0  0  0  0
  9 10  1  0  0  0  0
  9 11  1  0  0  0  0
  9 19  1  0  0  0  0
  7  8  1  0  0  0  0
  7  9  1  0  0  0  0
 23 24  1  0  0  0  0
 23 25  1  0  0  0  0
 23 26  1  0  0  0  0
 21 22  1  0  0  0  0
 21 23  1  0  0  0  0
M  END
$$$$
default_name
  -OEChem-01062215323D

 26 25  0     1  0  0  0  0  0999 V2000
   -2.8882   -3.2497    1.2537 H   0  0  0  0  0  0  0  0  0  0  0  0
   -2.8032   -2.3157    0.7017 C   0  0  0  0  0  0  0  0  0  0  0  0
   -3.5012   -1.5857    1.1067 H   0  0  0  0  0  0  0  0  0  0  0  0
   -3.0182   -2.4907   -0.3513 H   0  0  0  0  0  0  0  0  0  0  0  0
   -1.3942   -1.7897    0.8407 C   0  0  0  0  0  0  0  0  0  0  0  0
   -0.5672   -2.4077    1.5007 O   0  0  0  0  0  0  0  0  0  0  0  0
   -1.1222   -0.6447    0.2217 N   0  0  0  0  0  0  0  0  0  0  0  0
   -1.8592   -0.1777   -0.2863 H   0  0  0  0  0  0  0  0  0  0  0  0
    0.1838    0.0363    0.2367 C   0  0  1  0  0  0  0  0  0  0  0  0
    0.5466    0.0723    1.2633 H   0  0  0  0  0  0  0  0  0  0  0  0
    1.2323   -0.7155   -0.6089 C   0  0  1  0  0  0  0  0  0  0  0  0
    2.1703   -0.1628   -0.5594 H   0  0  0  0  0  0  0  0  0  0  0  0
    1.5078   -2.1415   -0.1361 C   0  0  0  0  0  0  0  0  0  0  0  0
    0.6295   -2.7695   -0.2905 H   0  0  0  0  0  0  0  0  0  0  0  0
    2.3479   -2.5589   -0.6900 H   0  0  0  0  0  0  0  0  0  0  0  0
    1.7551   -2.1342    0.9259 H   0  0  0  0  0  0  0  0  0  0  0  0
    0.8336   -0.7931   -1.9551 O   0  0  0  0  0  0  0  0  0  0  0  0
    1.4627   -1.3486   -2.4200 H   0  0  0  0  0  0  0  0  0  0  0  0
    0.0509    1.4840   -0.2518 C   0  0  0  0  0  0  0  0  0  0  0  0
    1.0366    2.2161   -0.3384 O   0  0  0  0  0  0  0  0  0  0  0  0
   -1.1743    1.8981   -0.6039 N   0  0  0  0  0  0  0  0  0  0  0  0
   -1.9376    1.2459   -0.5293 H   0  0  0  0  0  0  0  0  0  0  0  0
   -1.4704    3.2448   -1.0900 C   0  0  0  0  0  0  0  0  0  0  0  0
   -0.8158    3.4866   -1.9297 H   0  0  0  0  0  0  0  0  0  0  0  0
   -2.5091    3.3128   -1.4141 H   0  0  0  0  0  0  0  0  0  0  0  0
   -1.2927    3.9704   -0.2934 H   0  0  0  0  0  0  0  0  0  0  0  0
  5  6  2  0  0  0  0
  5  7  1  0  0  0  0
  2  3  1  0  0  0  0
  2  4  1  0  0  0  0
  2  5  1  0  0  0  0
  1  2  1  0  0  0  0
 19 20  2  0  0  0  0
 19 21  1  0  0  0  0
 17 18  1  0  0  0  0
 13 14  1  0  0  0  0
 13 15  1  0  0  0  0
 13 16  1  0  0  0  0
 11 12  1  0  0  0  0
 11 13  1  0  0  0  0
 11 17  1  0  0  0  0
  9 10  1  0  0  0  0
  9 11  1  0  0  0  0
  9 19  1  0  0  0  0
  7  8  1  0  0  0  0
  7  9  1  0  0  0  0
 23 24  1  0  0  0  0
 23 25  1  0  0  0  0
 23 26  1  0  0  0  0
 21 22  1  0  0  0  0
 21 23  1  0  0  0  0
M  END
$$$$
default_name
  -OEChem-01062215323D

 26 25  0     1  0  0  0  0  0999 V2000
   -2.8882   -3.2497    1.2537 H   0  0  0  0  0  0  0  0  0  0  0  0
   -2.8032   -2.3157    0.7017 C   0  0  0  0  0  0  0  0  0  0  0  0
   -3.5012   -1.5857    1.1067 H   0  0  0  0  0  0  0  0  0  0  0  0
   -3.0182   -2.4907   -0.3513 H   0  0  0  0  0  0  0  0  0  0  0  0
   -1.3942   -1.7897    0.8407 C   0  0  0  0  0  0  0  0  0  0  0  0
   -0.5672   -2.4077    1.5007 O   0  0  0  0  0  0  0  0  0  0  0  0
   -1.1222   -0.6447    0.2217 N   0  0  0  0  0  0  0  0  0  0  0  0
   -1.8592   -0.1777   -0.2863 H   0  0  0  0  0  0  0  0  0  0  0  0
    0.1838    0.0363    0.2367 C   0  0  1  0  0  0  0  0  0  0  0  0
    0.5466    0.0723    1.2633 H   0  0  0  0  0  0  0  0  0  0  0  0
    1.2323   -0.7155   -0.6089 C   0  0  1  0  0  0  0  0  0  0  0  0
    2.1703   -0.1628   -0.5594 H   0  0  0  0  0  0  0  0  0  0  0  0
    1.5078   -2.1415   -0.1361 C   0  0  0  0  0  0  0  0  0  0  0  0
    0.6295   -2.7695   -0.2905 H   0  0  0  0  0  0  0  0  0  0  0  0
    2.3479   -2.5589   -0.6900 H   0  0  0  0  0  0  0  0  0  0  0  0
    1.7551   -2.1342    0.9259 H   0  0  0  0  0  0  0  0  0  0  0  0
    0.8336   -0.7931   -1.9551 O   0  0  0  0  0  0  0  0  0  0  0  0
    1.4627   -1.3486   -2.4200 H   0  0  0  0  0  0  0  0  0  0  0  0
    0.0509    1.4840   -0.2518 C   0  0  0  0  0  0  0  0  0  0  0  0
    1.0404    2.1283   -0.5995 O   0  0  0  0  0  0  0  0  0  0  0  0
   -1.1862    1.9967   -0.3085 N   0  0  0  0  0  0  0  0  0  0  0  0
   -1.9573    1.4129   -0.0291 H   0  0  0  0  0  0  0  0  0  0  0  0
   -1.4843    3.3577   -0.7517 C   0  0  0  0  0  0  0  0  0  0  0  0
   -1.0384    3.5326   -1.7328 H   0  0  0  0  0  0  0  0  0  0  0  0
   -2.5619    3.5100   -0.8152 H   0  0  0  0  0  0  0  0  0  0  0  0
   -1.0594    4.0752   -0.0464 H   0  0  0  0  0  0  0  0  0  0  0  0
  5  6  2  0  0  0  0
  5  7  1  0  0  0  0
  2  3  1  0  0  0  0
  2  4  1  0  0  0  0
  2  5  1  0  0  0  0
  1  2  1  0  0  0  0
 19 20  2  0  0  0  0
 19 21  1  0  0  0  0
 17 18  1  0  0  0  0
 13 14  1  0  0  0  0
 13 15  1  0  0  0  0
 13 16  1  0  0  0  0
 11 12  1  0  0  0  0
 11 13  1  0  0  0  0
 11 17  1  0  0  0  0
  9 10  1  0  0  0  0
  9 11  1  0  0  0  0
  9 19  1  0  0  0  0
  7  8  1  0  0  0  0
  7  9  1  0  0  0  0
 23 24  1  0  0  0  0
 23 25  1  0  0  0  0
 23 26  1  0  0  0  0
 21 22  1  0  0  0  0
 21 23  1  0  0  0  0
M  END
$$$$
default_name
  -OEChem-01062215323D

 26 25  0     1  0  0  0  0  0999 V2000
   -2.8882   -3.2497    1.2537 H   0  0  0  0  0  0  0  0  0  0  0  0
   -2.8032   -2.3157    0.7017 C   0  0  0  0  0  0  0  0  0  0  0  0
   -3.5012   -1.5857    1.1067 H   0  0  0  0  0  0  0  0  0  0  0  0
   -3.0182   -2.4907   -0.3513 H   0  0  0  0  0  0  0  0  0  0  0  0
   -1.3942   -1.7897    0.8407 C   0  0  0  0  0  0  0  0  0  0  0  0
   -0.5672   -2.4077    1.5007 O   0  0  0  0  0  0  0  0  0  0  0  0
   -1.1222   -0.6447    0.2217 N   0  0  0  0  0  0  0  0  0  0  0  0
   -1.8592   -0.1777   -0.2863 H   0  0  0  0  0  0  0  0  0  0  0  0
    0.1838    0.0363    0.2367 C   0  0  1  0  0  0  0  0  0  0  0  0
    0.5466    0.0723    1.2633 H   0  0  0  0  0  0  0  0  0  0  0  0
    1.2323   -0.7155   -0.6089 C   0  0  1  0  0  0  0  0  0  0  0  0
    2.1703   -0.1628   -0.5594 H   0  0  0  0  0  0  0  0  0  0  0  0
    1.5078   -2.1415   -0.1361 C   0  0  0  0  0  0  0  0  0  0  0  0
    0.6295   -2.7695   -0.2905 H   0  0  0  0  0  0  0  0  0  0  0  0
    2.3479   -2.5589   -0.6900 H   0  0  0  0  0  0  0  0  0  0  0  0
    1.7551   -2.1342    0.9259 H   0  0  0  0  0  0  0  0  0  0  0  0
    0.8336   -0.7931   -1.9551 O   0  0  0  0  0  0  0  0  0  0  0  0
    1.4627   -1.3486   -2.4200 H   0  0  0  0  0  0  0  0  0  0  0  0
    0.0509    1.4840   -0.2518 C   0  0  0  0  0  0  0  0  0  0  0  0
    0.9730    2.0374   -0.8508 O   0  0  0  0  0  0  0  0  0  0  0  0
   -1.1175    2.0995   -0.0225 N   0  0  0  0  0  0  0  0  0  0  0  0
   -1.8404    1.5870    0.4552 H   0  0  0  0  0  0  0  0  0  0  0  0
   -1.4057    3.4755   -0.4240 C   0  0  0  0  0  0  0  0  0  0  0  0
   -1.2016    3.5998   -1.4893 H   0  0  0  0  0  0  0  0  0  0  0  0
   -2.4503    3.7183   -0.2283 H   0  0  0  0  0  0  0  0  0  0  0  0
   -0.7651    4.1627    0.1328 H   0  0  0  0  0  0  0  0  0  0  0  0
  5  6  2  0  0  0  0
  5  7  1  0  0  0  0
  2  3  1  0  0  0  0
  2  4  1  0  0  0  0
  2  5  1  0  0  0  0
  1  2  1  0  0  0  0
 19 20  2  0  0  0  0
 19 21  1  0  0  0  0
 17 18  1  0  0  0  0
 13 14  1  0  0  0  0
 13 15  1  0  0  0  0
 13 16  1  0  0  0  0
 11 12  1  0  0  0  0
 11 13  1  0  0  0  0
 11 17  1  0  0  0  0
  9 10  1  0  0  0  0
  9 11  1  0  0  0  0
  9 19  1  0  0  0  0
  7  8  1  0  0  0  0
  7  9  1  0  0  0  0
 23 24  1  0  0  0  0
 23 25  1  0  0  0  0
 23 26  1  0  0  0  0
 21 22  1  0  0  0  0
 21 23  1  0  0  0  0
M  END
$$$$
default_name
  -OEChem-01062215323D

 26 25  0     1  0  0  0  0  0999 V2000
   -2.8882   -3.2497    1.2537 H   0  0  0  0  0  0  0  0  0  0  0  0
   -2.8032   -2.3157    0.7017 C   0  0  0  0  0  0  0  0  0  0  0  0
   -3.5012   -1.5857    1.1067 H   0  0  0  0  0  0  0  0  0  0  0  0
   -3.0182   -2.4907   -0.3513 H   0  0  0  0  0  0  0  0  0  0  0  0
   -1.3942   -1.7897    0.8407 C   0  0  0  0  0  0  0  0  0  0  0  0
   -0.5672   -2.4077    1.5007 O   0  0  0  0  0  0  0  0  0  0  0  0
   -1.1222   -0.6447    0.2217 N   0  0  0  0  0  0  0  0  0  0  0  0
   -1.8592   -0.1777   -0.2863 H   0  0  0  0  0  0  0  0  0  0  0  0
    0.1838    0.0363    0.2367 C   0  0  1  0  0  0  0  0  0  0  0  0
    0.5466    0.0723    1.2633 H   0  0  0  0  0  0  0  0  0  0  0  0
    1.2323   -0.7155   -0.6089 C   0  0  1  0  0  0  0  0  0  0  0  0
    2.1703   -0.1628   -0.5594 H   0  0  0  0  0  0  0  0  0  0  0  0
    1.5078   -2.1415   -0.1361 C   0  0  0  0  0  0  0  0  0  0  0  0
    0.6295   -2.7695   -0.2905 H   0  0  0  0  0  0  0  0  0  0  0  0
    2.3479   -2.5589   -0.6900 H   0  0  0  0  0  0  0  0  0  0  0  0
    1.7551   -2.1342    0.9259 H   0  0  0  0  0  0  0  0  0  0  0  0
    0.8336   -0.7931   -1.9551 O   0  0  0  0  0  0  0  0  0  0  0  0
    1.4627   -1.3486   -2.4200 H   0  0  0  0  0  0  0  0  0  0  0  0
    0.0509    1.4840   -0.2518 C   0  0  0  0  0  0  0  0  0  0  0  0
    0.8390    1.9494   -1.0749 O   0  0  0  0  0  0  0  0  0  0  0  0
   -0.9727    2.1996    0.2347 N   0  0  0  0  0  0  0  0  0  0  0  0
   -1.5949    1.7565    0.8904 H   0  0  0  0  0  0  0  0  0  0  0  0
   -1.2400    3.5902   -0.1293 C   0  0  0  0  0  0  0  0  0  0  0  0
   -1.2942    3.6836   -1.2157 H   0  0  0  0  0  0  0  0  0  0  0  0
   -2.1820    3.9235    0.3066 H   0  0  0  0  0  0  0  0  0  0  0  0
   -0.4297    4.2270    0.2321 H   0  0  0  0  0  0  0  0  0  0  0  0
  5  6  2  0  0  0  0
  5  7  1  0  0  0  0
  2  3  1  0  0  0  0
  2  4  1  0  0  0  0
  2  5  1  0  0  0  0
  1  2  1  0  0  0  0
 19 20  2  0  0  0  0
 19 21  1  0  0  0  0
 17 18  1  0  0  0  0
 13 14  1  0  0  0  0
 13 15  1  0  0  0  0
 13 16  1  0  0  0  0
 11 12  1  0  0  0  0
 11 13  1  0  0  0  0
 11 17  1  0  0  0  0
  9 10  1  0  0  0  0
  9 11  1  0  0  0  0
  9 19  1  0  0  0  0
  7  8  1  0  0  0  0
  7  9  1  0  0  0  0
 23 24  1  0  0  0  0
 23 25  1  0  0  0  0
 23 26  1  0  0  0  0
 21 22  1  0  0  0  0
 21 23  1  0  0  0  0
M  END
$$$$
default_name
  -OEChem-01062215323D

 26 25  0     1  0  0  0  0  0999 V2000
   -2.8882   -3.2497    1.2537 H   0  0  0  0  0  0  0  0  0  0  0  0
   -2.8032   -2.3157    0.7017 C   0  0  0  0  0  0  0  0  0  0  0  0
   -3.5012   -1.5857    1.1067 H   0  0  0  0  0  0  0  0  0  0  0  0
   -3.0182   -2.4907   -0.3513 H   0  0  0  0  0  0  0  0  0  0  0  0
   -1.3942   -1.7897    0.8407 C   0  0  0  0  0  0  0  0  0  0  0  0
   -0.5672   -2.4077    1.5007 O   0  0  0  0  0  0  0  0  0  0  0  0
   -1.1222   -0.6447    0.2217 N   0  0  0  0  0  0  0  0  0  0  0  0
   -1.8592   -0.1777   -0.2863 H   0  0  0  0  0  0  0  0  0  0  0  0
    0.1838    0.0363    0.2367 C   0  0  1  0  0  0  0  0  0  0  0  0
    0.5466    0.0723    1.2633 H   0  0  0  0  0  0  0  0  0  0  0  0
    1.2323   -0.7155   -0.6089 C   0  0  1  0  0  0  0  0  0  0  0  0
    2.1703   -0.1628   -0.5594 H   0  0  0  0  0  0  0  0  0  0  0  0
    1.5078   -2.1415   -0.1361 C   0  0  0  0  0  0  0  0  0  0  0  0
    0.6295   -2.7695   -0.2905 H   0  0  0  0  0  0  0  0  0  0  0  0
    2.3479   -2.5589   -0.6900 H   0  0  0  0  0  0  0  0  0  0  0  0
    1.7551   -2.1342    0.9259 H   0  0  0  0  0  0  0  0  0  0  0  0
    0.8336   -0.7931   -1.9551 O   0  0  0  0  0  0  0  0  0  0  0  0
    1.4627   -1.3486   -2.4200 H   0  0  0  0  0  0  0  0  0  0  0  0
    0.0509    1.4840   -0.2518 C   0  0  0  0  0  0  0  0  0  0  0  0
    0.6475    1.8705   -1.2567 O   0  0  0  0  0  0  0  0  0  0  0  0
   -0.7617    2.2901    0.4456 N   0  0  0  0  0  0  0  0  0  0  0  0
   -1.2374    1.9096    1.2471 H   0  0  0  0  0  0  0  0  0  0  0  0
   -0.9985    3.6939    0.1123 C   0  0  0  0  0  0  0  0  0  0  0  0
   -1.3099    3.7784   -0.9308 H   0  0  0  0  0  0  0  0  0  0  0  0
   -1.7752    4.1116    0.7532 H   0  0  0  0  0  0  0  0  0  0  0  0
   -0.0763    4.2636    0.2446 H   0  0  0  0  0  0  0  0  0  0  0  0
  5  6  2  0  0  0  0
  5  7  1  0  0  0  0
  2  3  1  0  0  0  0
  2  4  1  0  0  0  0
  2  5  1  0  0  0  0
  1  2  1  0  0  0  0
 19 20  2  0  0  0  0
 19 21  1  0  0  0  0
 17 18  1  0  0  0  0
 13 14  1  0  0  0  0
 13 15  1  0  0  0  0
 13 16  1  0  0  0  0
 11 12  1  0  0  0  0
 11 13  1  0  0  0  0
 11 17  1  0  0  0  0
  9 10  1  0  0  0  0
  9 11  1  0  0  0  0
  9 19  1  0  0  0  0
  7  8  1  0  0  0  0
  7  9  1  0  0  0  0
 23 24  1  0  0  0  0
 23 25  1  0  0  0  0
 23 26  1  0  0  0  0
 21 22  1  0  0  0  0
 21 23  1  0  0  0  0
M  END
$$$$
default_name
  -OEChem-01062215323D

 26 25  0     1  0  0  0  0  0999 V2000
   -2.8882   -3.2497    1.2537 H   0  0  0  0  0  0  0  0  0  0  0  0
   -2.8032   -2.3157    0.7017 C   0  0  0  0  0  0  0  0  0  0  0  0
   -3.5012   -1.5857    1.1067 H   0  0  0  0  0  0  0  0  0  0  0  0
   -3.0182   -2.4907   -0.3513 H   0  0  0  0  0  0  0  0  0  0  0  0
   -1.3942   -1.7897    0.8407 C   0  0  0  0  0  0  0  0  0  0  0  0
   -0.5672   -2.4077    1.5007 O   0  0  0  0  0  0  0  0  0  0  0  0
   -1.1222   -0.6447    0.2217 N   0  0  0  0  0  0  0  0  0  0  0  0
   -1.8592   -0.1777   -0.2863 H   0  0  0  0  0  0  0  0  0  0  0  0
    0.1838    0.0363    0.2367 C   0  0  1  0  0  0  0  0  0  0  0  0
    0.5466    0.0723    1.2633 H   0  0  0  0  0  0  0  0  0  0  0  0
    1.2323   -0.7155   -0.6089 C   0  0  1  0  0  0  0  0  0  0  0  0
    2.1703   -0.1628   -0.5594 H   0  0  0  0  0  0  0  0  0  0  0  0
    1.5078   -2.1415   -0.1361 C   0  0  0  0  0  0  0  0  0  0  0  0
    0.6295   -2.7695   -0.2905 H   0  0  0  0  0  0  0  0  0  0  0  0
    2.3479   -2.5589   -0.6900 H   0  0  0  0  0  0  0  0  0  0  0  0
    1.7551   -2.1342    0.9259 H   0  0  0  0  0  0  0  0  0  0  0  0
    0.8336   -0.7931   -1.9551 O   0  0  0  0  0  0  0  0  0  0  0  0
    1.4627   -1.3486   -2.4200 H   0  0  0  0  0  0  0  0  0  0  0  0
    0.0509    1.4840   -0.2518 C   0  0  0  0  0  0  0  0  0  0  0  0
    0.4117    1.8060   -1.3838 O   0  0  0  0  0  0  0  0  0  0  0  0
   -0.4990    2.3649    0.5956 N   0  0  0  0  0  0  0  0  0  0  0  0
   -0.7923    2.0361    1.5008 H   0  0  0  0  0  0  0  0  0  0  0  0
   -0.6977    3.7796    0.2843 C   0  0  0  0  0  0  0  0  0  0  0  0
   -1.2476    3.8776   -0.6538 H   0  0  0  0  0  0  0  0  0  0  0  0
   -1.2576    4.2697    1.0810 H   0  0  0  0  0  0  0  0  0  0  0  0
    0.2712    4.2702    0.1696 H   0  0  0  0  0  0  0  0  0  0  0  0
  5  6  2  0  0  0  0
  5  7  1  0  0  0  0
  2  3  1  0  0  0  0
  2  4  1  0  0  0  0
  2  5  1  0  0  0  0
  1  2  1  0  0  0  0
 19 20  2  0  0  0  0
 19 21  1  0  0  0  0
 17 18  1  0  0  0  0
 13 14  1  0  0  0  0
 13 15  1  0  0  0  0
 13 16  1  0  0  0  0
 11 12  1  0  0  0  0
 11 13  1  0  0  0  0
 11 17  1  0  0  0  0
  9 10  1  0  0  0  0
  9 11  1  0  0  0  0
  9 19  1  0  0  0  0
  7  8  1  0  0  0  0
  7  9  1  0  0  0  0
 23 24  1  0  0  0  0
 23 25  1  0  0  0  0
 23 26  1  0  0  0  0
 21 22  1  0  0  0  0
 21 23  1  0  0  0  0
M  END
$$$$
default_name
  -OEChem-01062215323D

 26 25  0     1  0  0  0  0  0999 V2000
   -2.8882   -3.2497    1.2537 H   0  0  0  0  0  0  0  0  0  0  0  0
   -2.8032   -2.3157    0.7017 C   0  0  0  0  0  0  0  0  0  0  0  0
   -3.5012   -1.5857    1.1067 H   0  0  0  0  0  0  0  0  0  0  0  0
   -3.0182   -2.4907   -0.3513 H   0  0  0  0  0  0  0  0  0  0  0  0
   -1.3942   -1.7897    0.8407 C   0  0  0  0  0  0  0  0  0  0  0  0
   -0.5672   -2.4077    1.5007 O   0  0  0  0  0  0  0  0  0  0  0  0
   -1.1222   -0.6447    0.2217 N   0  0  0  0  0  0  0  0  0  0  0  0
   -1.8592   -0.1777   -0.2863 H   0  0  0  0  0  0  0  0  0  0  0  0
    0.1838    0.0363    0.2367 C   0  0  1  0  0  0  0  0  0  0  0  0
    0.5466    0.0723    1.2633 H   0  0  0  0  0  0  0  0  0  0  0  0
    1.2323   -0.7155   -0.6089 C   0  0  1  0  0  0  0  0  0  0  0  0
    2.1703   -0.1628   -0.5594 H   0  0  0  0  0  0  0  0  0  0  0  0
    1.5078   -2.1415   -0.1361 C   0  0  0  0  0  0  0  0  0  0  0  0
    0.6295   -2.7695   -0.2905 H   0  0  0  0  0  0  0  0  0  0  0  0
    2.3479   -2.5589   -0.6900 H   0  0  0  0  0  0  0  0  0  0  0  0
    1.7551   -2.1342    0.9259 H   0  0  0  0  0  0  0  0  0  0  0  0
    0.8336   -0.7931   -1.9551 O   0  0  0  0  0  0  0  0  0  0  0  0
    1.4627   -1.3486   -2.4200 H   0  0  0  0  0  0  0  0  0  0  0  0
    0.0509    1.4840   -0.2518 C   0  0  0  0  0  0  0  0  0  0  0  0
    0.1475    1.7602   -1.4475 O   0  0  0  0  0  0  0  0  0  0  0  0
   -0.2024    2.4188    0.6747 N   0  0  0  0  0  0  0  0  0  0  0  0
   -0.2900    2.1273    1.6343 H   0  0  0  0  0  0  0  0  0  0  0  0
   -0.3580    3.8414    0.3751 C   0  0  0  0  0  0  0  0  0  0  0  0
   -1.1116    3.9745   -0.4037 H   0  0  0  0  0  0  0  0  0  0  0  0
   -0.6646    4.3871    1.2676 H   0  0  0  0  0  0  0  0  0  0  0  0
    0.5890    4.2462    0.0120 H   0  0  0  0  0  0  0  0  0  0  0  0
  5  6  2  0  0  0  0
  5  7  1  0  0  0  0
  2  3  1  0  0  0  0
  2  4  1  0  0  0  0
  2  5  1  0  0  0  0
  1  2  1  0  0  0  0
 19 20  2  0  0  0  0
 19 21  1  0  0  0  0
 17 18  1  0  0  0  0
 13 14  1  0  0  0  0
 13 15  1  0  0  0  0
 13 16  1  0  0  0  0
 11 12  1  0  0  0  0
 11 13  1  0  0  0  0
 11 17  1  0  0  0  0
  9 10  1  0  0  0  0
  9 11  1  0  0  0  0
  9 19  1  0  0  0  0
  7  8  1  0  0  0  0
  7  9  1  0  0  0  0
 23 24  1  0  0  0  0
 23 25  1  0  0  0  0
 23 26  1  0  0  0  0
 21 22  1  0  0  0  0
 21 23  1  0  0  0  0
M  END
$$$$
default_name
  -OEChem-01062215323D

 26 25  0     1  0  0  0  0  0999 V2000
   -2.8882   -3.2497    1.2537 H   0  0  0  0  0  0  0  0  0  0  0  0
   -2.8032   -2.3157    0.7017 C   0  0  0  0  0  0  0  0  0  0  0  0
   -3.5012   -1.5857    1.1067 H   0  0  0  0  0  0  0  0  0  0  0  0
   -3.0182   -2.4907   -0.3513 H   0  0  0  0  0  0  0  0  0  0  0  0
   -1.3942   -1.7897    0.8407 C   0  0  0  0  0  0  0  0  0  0  0  0
   -0.5672   -2.4077    1.5007 O   0  0  0  0  0  0  0  0  0  0  0  0
   -1.1222   -0.6447    0.2217 N   0  0  0  0  0  0  0  0  0  0  0  0
   -1.8592   -0.1777   -0.2863 H   0  0  0  0  0  0  0  0  0  0  0  0
    0.1838    0.0363    0.2367 C   0  0  1  0  0  0  0  0  0  0  0  0
    0.5466    0.0723    1.2633 H   0  0  0  0  0  0  0  0  0  0  0  0
    1.2323   -0.7155   -0.6089 C   0  0  1  0  0  0  0  0  0  0  0  0
    2.1703   -0.1628   -0.5594 H   0  0  0  0  0  0  0  0  0  0  0  0
    1.5078   -2.1415   -0.1361 C   0  0  0  0  0  0  0  0  0  0  0  0
    0.6295   -2.7695   -0.2905 H   0  0  0  0  0  0  0  0  0  0  0  0
    2.3479   -2.5589   -0.6900 H   0  0  0  0  0  0  0  0  0  0  0  0
    1.7551   -2.1342    0.9259 H   0  0  0  0  0  0  0  0  0  0  0  0
    0.8336   -0.7931   -1.9551 O   0  0  0  0  0  0  0  0  0  0  0  0
    1.4627   -1.3486   -2.4200 H   0  0  0  0  0  0  0  0  0  0  0  0
    0.0509    1.4840   -0.2518 C   0  0  0  0  0  0  0  0  0  0  0  0
   -0.1269    1.7364   -1.4434 O   0  0  0  0  0  0  0  0  0  0  0  0
    0.1079    2.4482    0.6774 N   0  0  0  0  0  0  0  0  0  0  0  0
    0.2354    2.1769    1.6385 H   0  0  0  0  0  0  0  0  0  0  0  0
   -0.0026    3.8751    0.3784 C   0  0  0  0  0  0  0  0  0  0  0  0
   -0.9111    4.0624   -0.1975 H   0  0  0  0  0  0  0  0  0  0  0  0
   -0.0365    4.4558    1.3004 H   0  0  0  0  0  0  0  0  0  0  0  0
    0.8556    4.1933   -0.2173 H   0  0  0  0  0  0  0  0  0  0  0  0
  5  6  2  0  0  0  0
  5  7  1  0  0  0  0
  2  3  1  0  0  0  0
  2  4  1  0  0  0  0
  2  5  1  0  0  0  0
  1  2  1  0  0  0  0
 19 20  2  0  0  0  0
 19 21  1  0  0  0  0
 17 18  1  0  0  0  0
 13 14  1  0  0  0  0
 13 15  1  0  0  0  0
 13 16  1  0  0  0  0
 11 12  1  0  0  0  0
 11 13  1  0  0  0  0
 11 17  1  0  0  0  0
  9 10  1  0  0  0  0
  9 11  1  0  0  0  0
  9 19  1  0  0  0  0
  7  8  1  0  0  0  0
  7  9  1  0  0  0  0
 23 24  1  0  0  0  0
 23 25  1  0  0  0  0
 23 26  1  0  0  0  0
 21 22  1  0  0  0  0
 21 23  1  0  0  0  0
M  END
$$$$
default_name
  -OEChem-01062215323D

 26 25  0     1  0  0  0  0  0999 V2000
   -2.8882   -3.2497    1.2537 H   0  0  0  0  0  0  0  0  0  0  0  0
   -2.8032   -2.3157    0.7017 C   0  0  0  0  0  0  0  0  0  0  0  0
   -3.5012   -1.5857    1.1067 H   0  0  0  0  0  0  0  0  0  0  0  0
   -3.0182   -2.4907   -0.3513 H   0  0  0  0  0  0  0  0  0  0  0  0
   -1.3942   -1.7897    0.8407 C   0  0  0  0  0  0  0  0  0  0  0  0
   -0.5672   -2.4077    1.5007 O   0  0  0  0  0  0  0  0  0  0  0  0
   -1.1222   -0.6447    0.2217 N   0  0  0  0  0  0  0  0  0  0  0  0
   -1.8592   -0.1777   -0.2863 H   0  0  0  0  0  0  0  0  0  0  0  0
    0.1838    0.0363    0.2367 C   0  0  1  0  0  0  0  0  0  0  0  0
    0.5466    0.0723    1.2633 H   0  0  0  0  0  0  0  0  0  0  0  0
    1.2323   -0.7155   -0.6089 C   0  0  1  0  0  0  0  0  0  0  0  0
    2.1703   -0.1628   -0.5594 H   0  0  0  0  0  0  0  0  0  0  0  0
    1.5078   -2.1415   -0.1361 C   0  0  0  0  0  0  0  0  0  0  0  0
    0.6295   -2.7695   -0.2905 H   0  0  0  0  0  0  0  0  0  0  0  0
    2.3479   -2.5589   -0.6900 H   0  0  0  0  0  0  0  0  0  0  0  0
    1.7551   -2.1342    0.9259 H   0  0  0  0  0  0  0  0  0  0  0  0
    0.8336   -0.7931   -1.9551 O   0  0  0  0  0  0  0  0  0  0  0  0
    1.4627   -1.3486   -2.4200 H   0  0  0  0  0  0  0  0  0  0  0  0
    0.0509    1.4840   -0.2518 C   0  0  0  0  0  0  0  0  0  0  0  0
   -0.3931    1.7361   -1.3719 O   0  0  0  0  0  0  0  0  0  0  0  0
    0.4107    2.4511    0.6036 N   0  0  0  0  0  0  0  0  0  0  0  0
    0.7479    2.1817    1.5131 H   0  0  0  0  0  0  0  0  0  0  0  0
    0.3442    3.8785    0.2940 C   0  0  0  0  0  0  0  0  0  0  0  0
   -0.6599    4.1355   -0.0493 H   0  0  0  0  0  0  0  0  0  0  0  0
    0.5839    4.4712    1.1770 H   0  0  0  0  0  0  0  0  0  0  0  0
    1.0527    4.1151   -0.5027 H   0  0  0  0  0  0  0  0  0  0  0  0
  5  6  2  0  0  0  0
  5  7  1  0  0  0  0
  2  3  1  0  0  0  0
  2  4  1  0  0  0  0
  2  5  1  0  0  0  0
  1  2  1  0  0  0  0
 19 20  2  0  0  0  0
 19 21  1  0  0  0  0
 17 18  1  0  0  0  0
 13 14  1  0  0  0  0
 13 15  1  0  0  0  0
 13 16  1  0  0  0  0
 11 12  1  0  0  0  0
 11 13  1  0  0  0  0
 11 17  1  0  0  0  0
  9 10  1  0  0  0  0
  9 11  1  0  0  0  0
  9 19  1  0  0  0  0
  7  8  1  0  0  0  0
  7  9  1  0  0  0  0
 23 24  1  0  0  0  0
 23 25  1  0  0  0  0
 23 26  1  0  0  0  0
 21 22  1  0  0  0  0
 21 23  1  0  0  0  0
M  END
$$$$
default_name
  -OEChem-01062215323D

 26 25  0     1  0  0  0  0  0999 V2000
   -2.8882   -3.2497    1.2537 H   0  0  0  0  0  0  0  0  0  0  0  0
   -2.8032   -2.3157    0.7017 C   0  0  0  0  0  0  0  0  0  0  0  0
   -3.5012   -1.5857    1.1067 H   0  0  0  0  0  0  0  0  0  0  0  0
   -3.0182   -2.4907   -0.3513 H   0  0  0  0  0  0  0  0  0  0  0  0
   -1.3942   -1.7897    0.8407 C   0  0  0  0  0  0  0  0  0  0  0  0
   -0.5672   -2.4077    1.5007 O   0  0  0  0  0  0  0  0  0  0  0  0
   -1.1222   -0.6447    0.2217 N   0  0  0  0  0  0  0  0  0  0  0  0
   -1.8592   -0.1777   -0.2863 H   0  0  0  0  0  0  0  0  0  0  0  0
    0.1838    0.0363    0.2367 C   0  0  1  0  0  0  0  0  0  0  0  0
    0.5466    0.0723    1.2633 H   0  0  0  0  0  0  0  0  0  0  0  0
    1.2323   -0.7155   -0.6089 C   0  0  1  0  0  0  0  0  0  0  0  0
    2.1703   -0.1628   -0.5594 H   0  0  0  0  0  0  0  0  0  0  0  0
    1.5078   -2.1415   -0.1361 C   0  0  0  0  0  0  0  0  0  0  0  0
    0.6295   -2.7695   -0.2905 H   0  0  0  0  0  0  0  0  0  0  0  0
    2.3479   -2.5589   -0.6900 H   0  0  0  0  0  0  0  0  0  0  0  0
    1.7551   -2.1342    0.9259 H   0  0  0  0  0  0  0  0  0  0  0  0
    0.8336   -0.7931   -1.9551 O   0  0  0  0  0  0  0  0  0  0  0  0
    1.4627   -1.3486   -2.4200 H   0  0  0  0  0  0  0  0  0  0  0  0
    0.0509    1.4840   -0.2518 C   0  0  0  0  0  0  0  0  0  0  0  0
   -0.6327    1.7594   -1.2378 O   0  0  0  0  0  0  0  0  0  0  0  0
    0.6854    2.4273    0.4583 N   0  0  0  0  0  0  0  0  0  0  0  0
    1.2128    2.1412    1.2666 H   0  0  0  0  0  0  0  0  0  0  0  0
    0.6589    3.8512    0.1276 C   0  0  0  0  0  0  0  0  0  0  0  0
   -0.3749    4.1887    0.0309 H   0  0  0  0  0  0  0  0  0  0  0  0
    1.1543    4.4320    0.9059 H   0  0  0  0  0  0  0  0  0  0  0  0
    1.1668    4.0169   -0.8248 H   0  0  0  0  0  0  0  0  0  0  0  0
  5  6  2  0  0  0  0
  5  7  1  0  0  0  0
  2  3  1  0  0  0  0
  2  4  1  0  0  0  0
  2  5  1  0  0  0  0
  1  2  1  0  0  0  0
 19 20  2  0  0  0  0
 19 21  1  0  0  0  0
 17 18  1  0  0  0  0
 13 14  1  0  0  0  0
 13 15  1  0  0  0  0
 13 16  1  0  0  0  0
 11 12  1  0  0  0  0
 11 13  1  0  0  0  0
 11 17  1  0  0  0  0
  9 10  1  0  0  0  0
  9 11  1  0  0  0  0
  9 19  1  0  0  0  0
  7  8  1  0  0  0  0
  7  9  1  0  0  0  0
 23 24  1  0  0  0  0
 23 25  1  0  0  0  0
 23 26  1  0  0  0  0
 21 22  1  0  0  0  0
 21 23  1  0  0  0  0
M  END
$$$$
default_name
  -OEChem-01062215323D

 26 25  0     1  0  0  0  0  0999 V2000
   -2.8882   -3.2497    1.2537 H   0  0  0  0  0  0  0  0  0  0  0  0
   -2.8032   -2.3157    0.7017 C   0  0  0  0  0  0  0  0  0  0  0  0
   -3.5012   -1.5857    1.1067 H   0  0  0  0  0  0  0  0  0  0  0  0
   -3.0182   -2.4907   -0.3513 H   0  0  0  0  0  0  0  0  0  0  0  0
   -1.3942   -1.7897    0.8407 C   0  0  0  0  0  0  0  0  0  0  0  0
   -0.5672   -2.4077    1.5007 O   0  0  0  0  0  0  0  0  0  0  0  0
   -1.1222   -0.6447    0.2217 N   0  0  0  0  0  0  0  0  0  0  0  0
   -1.8592   -0.1777   -0.2863 H   0  0  0  0  0  0  0  0  0  0  0  0
    0.1838    0.0363    0.2367 C   0  0  1  0  0  0  0  0  0  0  0  0
    0.5466    0.0723    1.2633 H   0  0  0  0  0  0  0  0  0  0  0  0
    1.2323   -0.7155   -0.6089 C   0  0  1  0  0  0  0  0  0  0  0  0
    2.1703   -0.1628   -0.5594 H   0  0  0  0  0  0  0  0  0  0  0  0
    1.5078   -2.1415   -0.1361 C   0  0  0  0  0  0  0  0  0  0  0  0
    0.6295   -2.7695   -0.2905 H   0  0  0  0  0  0  0  0  0  0  0  0
    2.3479   -2.5589   -0.6900 H   0  0  0  0  0  0  0  0  0  0  0  0
    1.7551   -2.1342    0.9259 H   0  0  0  0  0  0  0  0  0  0  0  0
    0.8336   -0.7931   -1.9551 O   0  0  0  0  0  0  0  0  0  0  0  0
    1.4627   -1.3486   -2.4200 H   0  0  0  0  0  0  0  0  0  0  0  0
    0.0509    1.4840   -0.2518 C   0  0  0  0  0  0  0  0  0  0  0  0
   -0.8294    1.8046   -1.0502 O   0  0  0  0  0  0  0  0  0  0  0  0
    0.9132    2.3783    0.2513 N   0  0  0  0  0  0  0  0  0  0  0  0
    1.5983    2.0582    0.9159 H   0  0  0  0  0  0  0  0  0  0  0  0
    0.9200    3.7952   -0.1093 C   0  0  0  0  0  0  0  0  0  0  0  0
   -0.0757    4.2184    0.0375 H   0  0  0  0  0  0  0  0  0  0  0  0
    1.6357    4.3412    0.5056 H   0  0  0  0  0  0  0  0  0  0  0  0
    1.1904    3.9054   -1.1616 H   0  0  0  0  0  0  0  0  0  0  0  0
  5  6  2  0  0  0  0
  5  7  1  0  0  0  0
  2  3  1  0  0  0  0
  2  4  1  0  0  0  0
  2  5  1  0  0  0  0
  1  2  1  0  0  0  0
 19 20  2  0  0  0  0
 19 21  1  0  0  0  0
 17 18  1  0  0  0  0
 13 14  1  0  0  0  0
 13 15  1  0  0  0  0
 13 16  1  0  0  0  0
 11 12  1  0  0  0  0
 11 13  1  0  0  0  0
 11 17  1  0  0  0  0
  9 10  1  0  0  0  0
  9 11  1  0  0  0  0
  9 19  1  0  0  0  0
  7  8  1  0  0  0  0
  7  9  1  0  0  0  0
 23 24  1  0  0  0  0
 23 25  1  0  0  0  0
 23 26  1  0  0  0  0
 21 22  1  0  0  0  0
 21 23  1  0  0  0  0
M  END
$$$$
default_name
  -OEChem-01062215323D

 26 25  0     1  0  0  0  0  0999 V2000
   -2.8882   -3.2497    1.2537 H   0  0  0  0  0  0  0  0  0  0  0  0
   -2.8032   -2.3157    0.7017 C   0  0  0  0  0  0  0  0  0  0  0  0
   -3.5012   -1.5857    1.1067 H   0  0  0  0  0  0  0  0  0  0  0  0
   -3.0182   -2.4907   -0.3513 H   0  0  0  0  0  0  0  0  0  0  0  0
   -1.3942   -1.7897    0.8407 C   0  0  0  0  0  0  0  0  0  0  0  0
   -0.5672   -2.4077    1.5007 O   0  0  0  0  0  0  0  0  0  0  0  0
   -1.1222   -0.6447    0.2217 N   0  0  0  0  0  0  0  0  0  0  0  0
   -1.8592   -0.1777   -0.2863 H   0  0  0  0  0  0  0  0  0  0  0  0
    0.1838    0.0363    0.2367 C   0  0  1  0  0  0  0  0  0  0  0  0
    0.5466    0.0723    1.2633 H   0  0  0  0  0  0  0  0  0  0  0  0
    1.2323   -0.7155   -0.6089 C   0  0  1  0  0  0  0  0  0  0  0  0
    2.1703   -0.1628   -0.5594 H   0  0  0  0  0  0  0  0  0  0  0  0
    1.5078   -2.1415   -0.1361 C   0  0  0  0  0  0  0  0  0  0  0  0
    0.6295   -2.7695   -0.2905 H   0  0  0  0  0  0  0  0  0  0  0  0
    2.3479   -2.5589   -0.6900 H   0  0  0  0  0  0  0  0  0  0  0  0
    1.7551   -2.1342    0.9259 H   0  0  0  0  0  0  0  0  0  0  0  0
    0.8336   -0.7931   -1.9551 O   0  0  0  0  0  0  0  0  0  0  0  0
    1.4627   -1.3486   -2.4200 H   0  0  0  0  0  0  0  0  0  0  0  0
    0.0509    1.4840   -0.2518 C   0  0  0  0  0  0  0  0  0  0  0  0
   -0.9699    1.8687   -0.8220 O   0  0  0  0  0  0  0  0  0  0  0  0
    1.0787    2.3077   -0.0032 N   0  0  0  0  0  0  0  0  0  0  0  0
    1.8781    1.9384    0.4848 H   0  0  0  0  0  0  0  0  0  0  0  0
    1.1096    3.7143   -0.4007 C   0  0  0  0  0  0  0  0  0  0  0  0
    0.2173    4.2226   -0.0299 H   0  0  0  0  0  0  0  0  0  0  0  0
    1.9955    4.2047    0.0034 H   0  0  0  0  0  0  0  0  0  0  0  0
    1.1216    3.7882   -1.4902 H   0  0  0  0  0  0  0  0  0  0  0  0
  5  6  2  0  0  0  0
  5  7  1  0  0  0  0
  2  3  1  0  0  0  0
  2  4  1  0  0  0  0
  2  5  1  0  0  0  0
  1  2  1  0  0  0  0
 19 20  2  0  0  0  0
 19 21  1  0  0  0  0
 17 18  1  0  0  0  0
 13 14  1  0  0  0  0
 13 15  1  0  0  0  0
 13 16  1  0  0  0  0
 11 12  1  0  0  0  0
 11 13  1  0  0  0  0
 11 17  1  0  0  0  0
  9 10  1  0  0  0  0
  9 11  1  0  0  0  0
  9 19  1  0  0  0  0
  7  8  1  0  0  0  0
  7  9  1  0  0  0  0
 23 24  1  0  0  0  0
 23 25  1  0  0  0  0
 23 26  1  0  0  0  0
 21 22  1  0  0  0  0
 21 23  1  0  0  0  0
M  END
$$$$
default_name
  -OEChem-01062215323D

 26 25  0     1  0  0  0  0  0999 V2000
   -2.8882   -3.2497    1.2537 H   0  0  0  0  0  0  0  0  0  0  0  0
   -2.8032   -2.3157    0.7017 C   0  0  0  0  0  0  0  0  0  0  0  0
   -3.5012   -1.5857    1.1067 H   0  0  0  0  0  0  0  0  0  0  0  0
   -3.0182   -2.4907   -0.3513 H   0  0  0  0  0  0  0  0  0  0  0  0
   -1.3942   -1.7897    0.8407 C   0  0  0  0  0  0  0  0  0  0  0  0
   -0.5672   -2.4077    1.5007 O   0  0  0  0  0  0  0  0  0  0  0  0
   -1.1222   -0.6447    0.2217 N   0  0  0  0  0  0  0  0  0  0  0  0
   -1.8592   -0.1777   -0.2863 H   0  0  0  0  0  0  0  0  0  0  0  0
    0.1838    0.0363    0.2367 C   0  0  1  0  0  0  0  0  0  0  0  0
    0.6675   -0.1581    1.1933 H   0  0  0  0  0  0  0  0  0  0  0  0
    1.1147   -0.4840   -0.8779 C   0  0  1  0  0  0  0  0  0  0  0  0
    2.0580    0.0581   -0.8151 H   0  0  0  0  0  0  0  0  0  0  0  0
    1.4288   -1.9757   -0.7815 C   0  0  0  0  0  0  0  0  0  0  0  0
    0.5312   -2.5660   -0.9700 H   0  0  0  0  0  0  0  0  0  0  0  0
    2.1915   -2.2410   -1.5127 H   0  0  0  0  0  0  0  0  0  0  0  0
    1.8017   -2.2080    0.2164 H   0  0  0  0  0  0  0  0  0  0  0  0
    0.5565   -0.2574   -2.1484 O   0  0  0  0  0  0  0  0  0  0  0  0
    1.1190   -0.6810   -2.8002 H   0  0  0  0  0  0  0  0  0  0  0  0
    0.0097    1.5550    0.1131 C   0  0  0  0  0  0  0  0  0  0  0  0
   -1.1106    2.0604    0.0442 O   0  0  0  0  0  0  0  0  0  0  0  0
    1.1251    2.2982    0.1137 N   0  0  0  0  0  0  0  0  0  0  0  0
    2.0114    1.8273    0.1927 H   0  0  0  0  0  0  0  0  0  0  0  0
    1.1324    3.7562    0.0047 C   0  0  0  0  0  0  0  0  0  0  0  0
    0.4809    4.1869    0.7676 H   0  0  0  0  0  0  0  0  0  0  0  0
    2.1432    4.1427    0.1366 H   0  0  0  0  0  0  0  0  0  0  0  0
    0.7578    4.0531   -0.9772 H   0  0  0  0  0  0  0  0  0  0  0  0
  5  6  2  0  0  0  0
  5  7  1  0  0  0  0
  2  3  1  0  0  0  0
  2  4  1  0  0  0  0
  2  5  1  0  0  0  0
  1  2  1  0  0  0  0
 19 20  2  0  0  0  0
 19 21  1  0  0  0  0
 17 18  1  0  0  0  0
 13 14  1  0  0  0  0
 13 15  1  0  0  0  0
 13 16  1  0  0  0  0
 11 12  1  0  0  0  0
 11 13  1  0  0  0  0
 11 17  1  0  0  0  0
  9 10  1  0  0  0  0
  9 11  1  0  0  0  0
  9 19  1  0  0  0  0
  7  8  1  0  0  0  0
  7  9  1  0  0  0  0
 23 24  1  0  0  0  0
 23 25  1  0  0  0  0
 23 26  1  0  0  0  0
 21 22  1  0  0  0  0
 21 23  1  0  0  0  0
M  END
$$$$
default_name
  -OEChem-01062215323D

 26 25  0     1  0  0  0  0  0999 V2000
   -2.8882   -3.2497    1.2537 H   0  0  0  0  0  0  0  0  0  0  0  0
   -2.8032   -2.3157    0.7017 C   0  0  0  0  0  0  0  0  0  0  0  0
   -3.5012   -1.5857    1.1067 H   0  0  0  0  0  0  0  0  0  0  0  0
   -3.0182   -2.4907   -0.3513 H   0  0  0  0  0  0  0  0  0  0  0  0
   -1.3942   -1.7897    0.8407 C   0  0  0  0  0  0  0  0  0  0  0  0
   -0.5672   -2.4077    1.5007 O   0  0  0  0  0  0  0  0  0  0  0  0
   -1.1222   -0.6447    0.2217 N   0  0  0  0  0  0  0  0  0  0  0  0
   -1.8592   -0.1777   -0.2863 H   0  0  0  0  0  0  0  0  0  0  0  0
    0.1838    0.0363    0.2367 C   0  0  1  0  0  0  0  0  0  0  0  0
    0.6675   -0.1581    1.1933 H   0  0  0  0  0  0  0  0  0  0  0  0
    1.1147   -0.4840   -0.8779 C   0  0  1  0  0  0  0  0  0  0  0  0
    2.0580    0.0581   -0.8151 H   0  0  0  0  0  0  0  0  0  0  0  0
    1.4288   -1.9757   -0.7815 C   0  0  0  0  0  0  0  0  0  0  0  0
    0.5312   -2.5660   -0.9700 H   0  0  0  0  0  0  0  0  0  0  0  0
    2.1915   -2.2410   -1.5127 H   0  0  0  0  0  0  0  0  0  0  0  0
    1.8017   -2.2080    0.2164 H   0  0  0  0  0  0  0  0  0  0  0  0
    0.5565   -0.2574   -2.1484 O   0  0  0  0  0  0  0  0  0  0  0  0
    1.1190   -0.6810   -2.8002 H   0  0  0  0  0  0  0  0  0  0  0  0
    0.0097    1.5550    0.1131 C   0  0  0  0  0  0  0  0  0  0  0  0
   -1.0820    2.0859    0.3171 O   0  0  0  0  0  0  0  0  0  0  0  0
    1.1004    2.2702   -0.1957 N   0  0  0  0  0  0  0  0  0  0  0  0
    1.9692    1.7799   -0.3312 H   0  0  0  0  0  0  0  0  0  0  0  0
    1.1043    3.7241   -0.3498 C   0  0  0  0  0  0  0  0  0  0  0  0
    0.6778    4.1910    0.5403 H   0  0  0  0  0  0  0  0  0  0  0  0
    2.1215    4.0890   -0.4934 H   0  0  0  0  0  0  0  0  0  0  0  0
    0.4954    4.0039   -1.2120 H   0  0  0  0  0  0  0  0  0  0  0  0
  5  6  2  0  0  0  0
  5  7  1  0  0  0  0
  2  3  1  0  0  0  0
  2  4  1  0  0  0  0
  2  5  1  0  0  0  0
  1  2  1  0  0  0  0
 19 20  2  0  0  0  0
 19 21  1  0  0  0  0
 17 18  1  0  0  0  0
 13 14  1  0  0  0  0
 13 15  1  0  0  0  0
 13 16  1  0  0  0  0
 11 12  1  0  0  0  0
 11 13  1  0  0  0  0
 11 17  1  0  0  0  0
  9 10  1  0  0  0  0
  9 11  1  0  0  0  0
  9 19  1  0  0  0  0
  7  8  1  0  0  0  0
  7  9  1  0  0  0  0
 23 24  1  0  0  0  0
 23 25  1  0  0  0  0
 23 26  1  0  0  0  0
 21 22  1  0  0  0  0
 21 23  1  0  0  0  0
M  END
$$$$
default_name
  -OEChem-01062215323D

 26 25  0     1  0  0  0  0  0999 V2000
   -2.8882   -3.2497    1.2537 H   0  0  0  0  0  0  0  0  0  0  0  0
   -2.8032   -2.3157    0.7017 C   0  0  0  0  0  0  0  0  0  0  0  0
   -3.5012   -1.5857    1.1067 H   0  0  0  0  0  0  0  0  0  0  0  0
   -3.0182   -2.4907   -0.3513 H   0  0  0  0  0  0  0  0  0  0  0  0
   -1.3942   -1.7897    0.8407 C   0  0  0  0  0  0  0  0  0  0  0  0
   -0.5672   -2.4077    1.5007 O   0  0  0  0  0  0  0  0  0  0  0  0
   -1.1222   -0.6447    0.2217 N   0  0  0  0  0  0  0  0  0  0  0  0
   -1.8592   -0.1777   -0.2863 H   0  0  0  0  0  0  0  0  0  0  0  0
    0.1838    0.0363    0.2367 C   0  0  1  0  0  0  0  0  0  0  0  0
    0.6675   -0.1581    1.1933 H   0  0  0  0  0  0  0  0  0  0  0  0
    1.1147   -0.4840   -0.8779 C   0  0  1  0  0  0  0  0  0  0  0  0
    2.0580    0.0581   -0.8151 H   0  0  0  0  0  0  0  0  0  0  0  0
    1.4288   -1.9757   -0.7815 C   0  0  0  0  0  0  0  0  0  0  0  0
    0.5312   -2.5660   -0.9700 H   0  0  0  0  0  0  0  0  0  0  0  0
    2.1915   -2.2410   -1.5127 H   0  0  0  0  0  0  0  0  0  0  0  0
    1.8017   -2.2080    0.2164 H   0  0  0  0  0  0  0  0  0  0  0  0
    0.5565   -0.2574   -2.1484 O   0  0  0  0  0  0  0  0  0  0  0  0
    1.1190   -0.6810   -2.8002 H   0  0  0  0  0  0  0  0  0  0  0  0
    0.0097    1.5550    0.1131 C   0  0  0  0  0  0  0  0  0  0  0  0
   -0.9839    2.1180    0.5726 O   0  0  0  0  0  0  0  0  0  0  0  0
    0.9967    2.2345   -0.4874 N   0  0  0  0  0  0  0  0  0  0  0  0
    1.7931    1.7195   -0.8250 H   0  0  0  0  0  0  0  0  0  0  0  0
    0.9857    3.6833   -0.6840 C   0  0  0  0  0  0  0  0  0  0  0  0
    0.8098    4.1841    0.2701 H   0  0  0  0  0  0  0  0  0  0  0  0
    1.9380    4.0190   -1.0949 H   0  0  0  0  0  0  0  0  0  0  0  0
    0.1807    3.9550   -1.3701 H   0  0  0  0  0  0  0  0  0  0  0  0
  5  6  2  0  0  0  0
  5  7  1  0  0  0  0
  2  3  1  0  0  0  0
  2  4  1  0  0  0  0
  2  5  1  0  0  0  0
  1  2  1  0  0  0  0
 19 20  2  0  0  0  0
 19 21  1  0  0  0  0
 17 18  1  0  0  0  0
 13 14  1  0  0  0  0
 13 15  1  0  0  0  0
 13 16  1  0  0  0  0
 11 12  1  0  0  0  0
 11 13  1  0  0  0  0
 11 17  1  0  0  0  0
  9 10  1  0  0  0  0
  9 11  1  0  0  0  0
  9 19  1  0  0  0  0
  7  8  1  0  0  0  0
  7  9  1  0  0  0  0
 23 24  1  0  0  0  0
 23 25  1  0  0  0  0
 23 26  1  0  0  0  0
 21 22  1  0  0  0  0
 21 23  1  0  0  0  0
M  END
$$$$
default_name
  -OEChem-01062215323D

 26 25  0     1  0  0  0  0  0999 V2000
   -2.8882   -3.2497    1.2537 H   0  0  0  0  0  0  0  0  0  0  0  0
   -2.8032   -2.3157    0.7017 C   0  0  0  0  0  0  0  0  0  0  0  0
   -3.5012   -1.5857    1.1067 H   0  0  0  0  0  0  0  0  0  0  0  0
   -3.0182   -2.4907   -0.3513 H   0  0  0  0  0  0  0  0  0  0  0  0
   -1.3942   -1.7897    0.8407 C   0  0  0  0  0  0  0  0  0  0  0  0
   -0.5672   -2.4077    1.5007 O   0  0  0  0  0  0  0  0  0  0  0  0
   -1.1222   -0.6447    0.2217 N   0  0  0  0  0  0  0  0  0  0  0  0
   -1.8592   -0.1777   -0.2863 H   0  0  0  0  0  0  0  0  0  0  0  0
    0.1838    0.0363    0.2367 C   0  0  1  0  0  0  0  0  0  0  0  0
    0.6675   -0.1581    1.1933 H   0  0  0  0  0  0  0  0  0  0  0  0
    1.1147   -0.4840   -0.8779 C   0  0  1  0  0  0  0  0  0  0  0  0
    2.0580    0.0581   -0.8151 H   0  0  0  0  0  0  0  0  0  0  0  0
    1.4288   -1.9757   -0.7815 C   0  0  0  0  0  0  0  0  0  0  0  0
    0.5312   -2.5660   -0.9700 H   0  0  0  0  0  0  0  0  0  0  0  0
    2.1915   -2.2410   -1.5127 H   0  0  0  0  0  0  0  0  0  0  0  0
    1.8017   -2.2080    0.2164 H   0  0  0  0  0  0  0  0  0  0  0  0
    0.5565   -0.2574   -2.1484 O   0  0  0  0  0  0  0  0  0  0  0  0
    1.1190   -0.6810   -2.8002 H   0  0  0  0  0  0  0  0  0  0  0  0
    0.0097    1.5550    0.1131 C   0  0  0  0  0  0  0  0  0  0  0  0
   -0.8230    2.1544    0.7933 O   0  0  0  0  0  0  0  0  0  0  0  0
    0.8209    2.1937   -0.7416 N   0  0  0  0  0  0  0  0  0  0  0  0
    1.4952    1.6503   -1.2550 H   0  0  0  0  0  0  0  0  0  0  0  0
    0.7845    3.6365   -0.9751 C   0  0  0  0  0  0  0  0  0  0  0  0
    0.8679    4.1668   -0.0244 H   0  0  0  0  0  0  0  0  0  0  0  0
    1.6051    3.9375   -1.6267 H   0  0  0  0  0  0  0  0  0  0  0  0
   -0.1648    3.9096   -1.4408 H   0  0  0  0  0  0  0  0  0  0  0  0
  5  6  2  0  0  0  0
  5  7  1  0  0  0  0
  2  3  1  0  0  0  0
  2  4  1  0  0  0  0
  2  5  1  0  0  0  0
  1  2  1  0  0  0  0
 19 20  2  0  0  0  0
 19 21  1  0  0  0  0
 17 18  1  0  0  0  0
 13 14  1  0  0  0  0
 13 15  1  0  0  0  0
 13 16  1  0  0  0  0
 11 12  1  0  0  0  0
 11 13  1  0  0  0  0
 11 17  1  0  0  0  0
  9 10  1  0  0  0  0
  9 11  1  0  0  0  0
  9 19  1  0  0  0  0
  7  8  1  0  0  0  0
  7  9  1  0  0  0  0
 23 24  1  0  0  0  0
 23 25  1  0  0  0  0
 23 26  1  0  0  0  0
 21 22  1  0  0  0  0
 21 23  1  0  0  0  0
M  END
$$$$
default_name
  -OEChem-01062215323D

 26 25  0     1  0  0  0  0  0999 V2000
   -2.8882   -3.2497    1.2537 H   0  0  0  0  0  0  0  0  0  0  0  0
   -2.8032   -2.3157    0.7017 C   0  0  0  0  0  0  0  0  0  0  0  0
   -3.5012   -1.5857    1.1067 H   0  0  0  0  0  0  0  0  0  0  0  0
   -3.0182   -2.4907   -0.3513 H   0  0  0  0  0  0  0  0  0  0  0  0
   -1.3942   -1.7897    0.8407 C   0  0  0  0  0  0  0  0  0  0  0  0
   -0.5672   -2.4077    1.5007 O   0  0  0  0  0  0  0  0  0  0  0  0
   -1.1222   -0.6447    0.2217 N   0  0  0  0  0  0  0  0  0  0  0  0
   -1.8592   -0.1777   -0.2863 H   0  0  0  0  0  0  0  0  0  0  0  0
    0.1838    0.0363    0.2367 C   0  0  1  0  0  0  0  0  0  0  0  0
    0.6675   -0.1581    1.1933 H   0  0  0  0  0  0  0  0  0  0  0  0
    1.1147   -0.4840   -0.8779 C   0  0  1  0  0  0  0  0  0  0  0  0
    2.0580    0.0581   -0.8151 H   0  0  0  0  0  0  0  0  0  0  0  0
    1.4288   -1.9757   -0.7815 C   0  0  0  0  0  0  0  0  0  0  0  0
    0.5312   -2.5660   -0.9700 H   0  0  0  0  0  0  0  0  0  0  0  0
    2.1915   -2.2410   -1.5127 H   0  0  0  0  0  0  0  0  0  0  0  0
    1.8017   -2.2080    0.2164 H   0  0  0  0  0  0  0  0  0  0  0  0
    0.5565   -0.2574   -2.1484 O   0  0  0  0  0  0  0  0  0  0  0  0
    1.1190   -0.6810   -2.8002 H   0  0  0  0  0  0  0  0  0  0  0  0
    0.0097    1.5550    0.1131 C   0  0  0  0  0  0  0  0  0  0  0  0
   -0.6103    2.1927    0.9642 O   0  0  0  0  0  0  0  0  0  0  0  0
    0.5852    2.1505   -0.9408 N   0  0  0  0  0  0  0  0  0  0  0  0
    1.0957    1.5771   -1.5920 H   0  0  0  0  0  0  0  0  0  0  0  0
    0.5146    3.5870   -1.2035 C   0  0  0  0  0  0  0  0  0  0  0  0
    0.8482    4.1402   -0.3233 H   0  0  0  0  0  0  0  0  0  0  0  0
    1.1455    3.8502   -2.0527 H   0  0  0  0  0  0  0  0  0  0  0  0
   -0.5176    3.8709   -1.4191 H   0  0  0  0  0  0  0  0  0  0  0  0
  5  6  2  0  0  0  0
  5  7  1  0  0  0  0
  2  3  1  0  0  0  0
  2  4  1  0  0  0  0
  2  5  1  0  0  0  0
  1  2  1  0  0  0  0
 19 20  2  0  0  0  0
 19 21  1  0  0  0  0
 17 18  1  0  0  0  0
 13 14  1  0  0  0  0
 13 15  1  0  0  0  0
 13 16  1  0  0  0  0
 11 12  1  0  0  0  0
 11 13  1  0  0  0  0
 11 17  1  0  0  0  0
  9 10  1  0  0  0  0
  9 11  1  0  0  0  0
  9 19  1  0  0  0  0
  7  8  1  0  0  0  0
  7  9  1  0  0  0  0
 23 24  1  0  0  0  0
 23 25  1  0  0  0  0
 23 26  1  0  0  0  0
 21 22  1  0  0  0  0
 21 23  1  0  0  0  0
M  END
$$$$
default_name
  -OEChem-01062215323D

 26 25  0     1  0  0  0  0  0999 V2000
   -2.8882   -3.2497    1.2537 H   0  0  0  0  0  0  0  0  0  0  0  0
   -2.8032   -2.3157    0.7017 C   0  0  0  0  0  0  0  0  0  0  0  0
   -3.5012   -1.5857    1.1067 H   0  0  0  0  0  0  0  0  0  0  0  0
   -3.0182   -2.4907   -0.3513 H   0  0  0  0  0  0  0  0  0  0  0  0
   -1.3942   -1.7897    0.8407 C   0  0  0  0  0  0  0  0  0  0  0  0
   -0.5672   -2.4077    1.5007 O   0  0  0  0  0  0  0  0  0  0  0  0
   -1.1222   -0.6447    0.2217 N   0  0  0  0  0  0  0  0  0  0  0  0
   -1.8592   -0.1777   -0.2863 H   0  0  0  0  0  0  0  0  0  0  0  0
    0.1838    0.0363    0.2367 C   0  0  1  0  0  0  0  0  0  0  0  0
    0.6675   -0.1581    1.1933 H   0  0  0  0  0  0  0  0  0  0  0  0
    1.1147   -0.4840   -0.8779 C   0  0  1  0  0  0  0  0  0  0  0  0
    2.0580    0.0581   -0.8151 H   0  0  0  0  0  0  0  0  0  0  0  0
    1.4288   -1.9757   -0.7815 C   0  0  0  0  0  0  0  0  0  0  0  0
    0.5312   -2.5660   -0.9700 H   0  0  0  0  0  0  0  0  0  0  0  0
    2.1915   -2.2410   -1.5127 H   0  0  0  0  0  0  0  0  0  0  0  0
    1.8017   -2.2080    0.2164 H   0  0  0  0  0  0  0  0  0  0  0  0
    0.5565   -0.2574   -2.1484 O   0  0  0  0  0  0  0  0  0  0  0  0
    1.1190   -0.6810   -2.8002 H   0  0  0  0  0  0  0  0  0  0  0  0
    0.0097    1.5550    0.1131 C   0  0  0  0  0  0  0  0  0  0  0  0
   -0.3602    2.2303    1.0736 O   0  0  0  0  0  0  0  0  0  0  0  0
    0.3055    2.1077   -1.0716 N   0  0  0  0  0  0  0  0  0  0  0  0
    0.6220    1.5048   -1.8130 H   0  0  0  0  0  0  0  0  0  0  0  0
    0.1944    3.5381   -1.3534 C   0  0  0  0  0  0  0  0  0  0  0  0
    0.7520    4.1062   -0.6062 H   0  0  0  0  0  0  0  0  0  0  0  0
    0.5906    3.7629   -2.3439 H   0  0  0  0  0  0  0  0  0  0  0  0
   -0.8536    3.8415   -1.3066 H   0  0  0  0  0  0  0  0  0  0  0  0
  5  6  2  0  0  0  0
  5  7  1  0  0  0  0
  2  3  1  0  0  0  0
  2  4  1  0  0  0  0
  2  5  1  0  0  0  0
  1  2  1  0  0  0  0
 19 20  2  0  0  0  0
 19 21  1  0  0  0  0
 17 18  1  0  0  0  0
 13 14  1  0  0  0  0
 13 15  1  0  0  0  0
 13 16  1  0  0  0  0
 11 12  1  0  0  0  0
 11 13  1  0  0  0  0
 11 17  1  0  0  0  0
  9 10  1  0  0  0  0
  9 11  1  0  0  0  0
  9 19  1  0  0  0  0
  7  8  1  0  0  0  0
  7  9  1  0  0  0  0
 23 24  1  0  0  0  0
 23 25  1  0  0  0  0
 23 26  1  0  0  0  0
 21 22  1  0  0  0  0
 21 23  1  0  0  0  0
M  END
$$$$
default_name
  -OEChem-01062215323D

 26 25  0     1  0  0  0  0  0999 V2000
   -2.8882   -3.2497    1.2537 H   0  0  0  0  0  0  0  0  0  0  0  0
   -2.8032   -2.3157    0.7017 C   0  0  0  0  0  0  0  0  0  0  0  0
   -3.5012   -1.5857    1.1067 H   0  0  0  0  0  0  0  0  0  0  0  0
   -3.0182   -2.4907   -0.3513 H   0  0  0  0  0  0  0  0  0  0  0  0
   -1.3942   -1.7897    0.8407 C   0  0  0  0  0  0  0  0  0  0  0  0
   -0.5672   -2.4077    1.5007 O   0  0  0  0  0  0  0  0  0  0  0  0
   -1.1222   -0.6447    0.2217 N   0  0  0  0  0  0  0  0  0  0  0  0
   -1.8592   -0.1777   -0.2863 H   0  0  0  0  0  0  0  0  0  0  0  0
    0.1838    0.0363    0.2367 C   0  0  1  0  0  0  0  0  0  0  0  0
    0.6675   -0.1581    1.1933 H   0  0  0  0  0  0  0  0  0  0  0  0
    1.1147   -0.4840   -0.8779 C   0  0  1  0  0  0  0  0  0  0  0  0
    2.0580    0.0581   -0.8151 H   0  0  0  0  0  0  0  0  0  0  0  0
    1.4288   -1.9757   -0.7815 C   0  0  0  0  0  0  0  0  0  0  0  0
    0.5312   -2.5660   -0.9700 H   0  0  0  0  0  0  0  0  0  0  0  0
    2.1915   -2.2410   -1.5127 H   0  0  0  0  0  0  0  0  0  0  0  0
    1.8017   -2.2080    0.2164 H   0  0  0  0  0  0  0  0  0  0  0  0
    0.5565   -0.2574   -2.1484 O   0  0  0  0  0  0  0  0  0  0  0  0
    1.1190   -0.6810   -2.8002 H   0  0  0  0  0  0  0  0  0  0  0  0
    0.0097    1.5550    0.1131 C   0  0  0  0  0  0  0  0  0  0  0  0
   -0.0898    2.2646    1.1141 O   0  0  0  0  0  0  0  0  0  0  0  0
    0.0010    2.0685   -1.1249 N   0  0  0  0  0  0  0  0  0  0  0  0
    0.1063    1.4383   -1.9030 H   0  0  0  0  0  0  0  0  0  0  0  0
   -0.1544    3.4931   -1.4148 C   0  0  0  0  0  0  0  0  0  0  0  0
    0.5859    4.0670   -0.8538 H   0  0  0  0  0  0  0  0  0  0  0  0
   -0.0218    3.6815   -2.4803 H   0  0  0  0  0  0  0  0  0  0  0  0
   -1.1500    3.8235   -1.1110 H   0  0  0  0  0  0  0  0  0  0  0  0
  5  6  2  0  0  0  0
  5  7  1  0  0  0  0
  2  3  1  0  0  0  0
  2  4  1  0  0  0  0
  2  5  1  0  0  0  0
  1  2  1  0  0  0  0
 19 20  2  0  0  0  0
 19 21  1  0  0  0  0
 17 18  1  0  0  0  0
 13 14  1  0  0  0  0
 13 15  1  0  0  0  0
 13 16  1  0  0  0  0
 11 12  1  0  0  0  0
 11 13  1  0  0  0  0
 11 17  1  0  0  0  0
  9 10  1  0  0  0  0
  9 11  1  0  0  0  0
  9 19  1  0  0  0  0
  7  8  1  0  0  0  0
  7  9  1  0  0  0  0
 23 24  1  0  0  0  0
 23 25  1  0  0  0  0
 23 26  1  0  0  0  0
 21 22  1  0  0  0  0
 21 23  1  0  0  0  0
M  END
$$$$
default_name
  -OEChem-01062215323D

 26 25  0     1  0  0  0  0  0999 V2000
   -2.8882   -3.2497    1.2537 H   0  0  0  0  0  0  0  0  0  0  0  0
   -2.8032   -2.3157    0.7017 C   0  0  0  0  0  0  0  0  0  0  0  0
   -3.5012   -1.5857    1.1067 H   0  0  0  0  0  0  0  0  0  0  0  0
   -3.0182   -2.4907   -0.3513 H   0  0  0  0  0  0  0  0  0  0  0  0
   -1.3942   -1.7897    0.8407 C   0  0  0  0  0  0  0  0  0  0  0  0
   -0.5672   -2.4077    1.5007 O   0  0  0  0  0  0  0  0  0  0  0  0
   -1.1222   -0.6447    0.2217 N   0  0  0  0  0  0  0  0  0  0  0  0
   -1.8592   -0.1777   -0.2863 H   0  0  0  0  0  0  0  0  0  0  0  0
    0.1838    0.0363    0.2367 C   0  0  1  0  0  0  0  0  0  0  0  0
    0.6675   -0.1581    1.1933 H   0  0  0  0  0  0  0  0  0  0  0  0
    1.1147   -0.4840   -0.8779 C   0  0  1  0  0  0  0  0  0  0  0  0
    2.0580    0.0581   -0.8151 H   0  0  0  0  0  0  0  0  0  0  0  0
    1.4288   -1.9757   -0.7815 C   0  0  0  0  0  0  0  0  0  0  0  0
    0.5312   -2.5660   -0.9700 H   0  0  0  0  0  0  0  0  0  0  0  0
    2.1915   -2.2410   -1.5127 H   0  0  0  0  0  0  0  0  0  0  0  0
    1.8017   -2.2080    0.2164 H   0  0  0  0  0  0  0  0  0  0  0  0
    0.5565   -0.2574   -2.1484 O   0  0  0  0  0  0  0  0  0  0  0  0
    1.1190   -0.6810   -2.8002 H   0  0  0  0  0  0  0  0  0  0  0  0
    0.0097    1.5550    0.1131 C   0  0  0  0  0  0  0  0  0  0  0  0
    0.1825    2.2933    1.0829 O   0  0  0  0  0  0  0  0  0  0  0  0
   -0.3077    2.0353   -1.0973 N   0  0  0  0  0  0  0  0  0  0  0  0
   -0.4163    1.3823   -1.8557 H   0  0  0  0  0  0  0  0  0  0  0  0
   -0.5079    3.4551   -1.3833 C   0  0  0  0  0  0  0  0  0  0  0  0
    0.3612    4.0253   -1.0492 H   0  0  0  0  0  0  0  0  0  0  0  0
   -0.6500    3.6117   -2.4527 H   0  0  0  0  0  0  0  0  0  0  0  0
   -1.3865    3.8180   -0.8455 H   0  0  0  0  0  0  0  0  0  0  0  0
  5  6  2  0  0  0  0
  5  7  1  0  0  0  0
  2  3  1  0  0  0  0
  2  4  1  0  0  0  0
  2  5  1  0  0  0  0
  1  2  1  0  0  0  0
 19 20  2  0  0  0  0
 19 21  1  0  0  0  0
 17 18  1  0  0  0  0
 13 14  1  0  0  0  0
 13 15  1  0  0  0  0
 13 16  1  0  0  0  0
 11 12  1  0  0  0  0
 11 13  1  0  0  0  0
 11 17  1  0  0  0  0
  9 10  1  0  0  0  0
  9 11  1  0  0  0  0
  9 19  1  0  0  0  0
  7  8  1  0  0  0  0
  7  9  1  0  0  0  0
 23 24  1  0  0  0  0
 23 25  1  0  0  0  0
 23 26  1  0  0  0  0
 21 22  1  0  0  0  0
 21 23  1  0  0  0  0
M  END
$$$$
default_name
  -OEChem-01062215323D

 26 25  0     1  0  0  0  0  0999 V2000
   -2.8882   -3.2497    1.2537 H   0  0  0  0  0  0  0  0  0  0  0  0
   -2.8032   -2.3157    0.7017 C   0  0  0  0  0  0  0  0  0  0  0  0
   -3.5012   -1.5857    1.1067 H   0  0  0  0  0  0  0  0  0  0  0  0
   -3.0182   -2.4907   -0.3513 H   0  0  0  0  0  0  0  0  0  0  0  0
   -1.3942   -1.7897    0.8407 C   0  0  0  0  0  0  0  0  0  0  0  0
   -0.5672   -2.4077    1.5007 O   0  0  0  0  0  0  0  0  0  0  0  0
   -1.1222   -0.6447    0.2217 N   0  0  0  0  0  0  0  0  0  0  0  0
   -1.8592   -0.1777   -0.2863 H   0  0  0  0  0  0  0  0  0  0  0  0
    0.1838    0.0363    0.2367 C   0  0  1  0  0  0  0  0  0  0  0  0
    0.6675   -0.1581    1.1933 H   0  0  0  0  0  0  0  0  0  0  0  0
    1.1147   -0.4840   -0.8779 C   0  0  1  0  0  0  0  0  0  0  0  0
    2.0580    0.0581   -0.8151 H   0  0  0  0  0  0  0  0  0  0  0  0
    1.4288   -1.9757   -0.7815 C   0  0  0  0  0  0  0  0  0  0  0  0
    0.5312   -2.5660   -0.9700 H   0  0  0  0  0  0  0  0  0  0  0  0
    2.1915   -2.2410   -1.5127 H   0  0  0  0  0  0  0  0  0  0  0  0
    1.8017   -2.2080    0.2164 H   0  0  0  0  0  0  0  0  0  0  0  0
    0.5565   -0.2574   -2.1484 O   0  0  0  0  0  0  0  0  0  0  0  0
    1.1190   -0.6810   -2.8002 H   0  0  0  0  0  0  0  0  0  0  0  0
    0.0097    1.5550    0.1131 C   0  0  0  0  0  0  0  0  0  0  0  0
    0.4381    2.3144    0.9821 O   0  0  0  0  0  0  0  0  0  0  0  0
   -0.5994    2.0106   -0.9905 N   0  0  0  0  0  0  0  0  0  0  0  0
   -0.9101    1.3404   -1.6745 H   0  0  0  0  0  0  0  0  0  0  0  0
   -0.8422    3.4267   -1.2611 C   0  0  0  0  0  0  0  0  0  0  0  0
    0.0931    3.9840   -1.1792 H   0  0  0  0  0  0  0  0  0  0  0  0
   -1.2512    3.5582   -2.2630 H   0  0  0  0  0  0  0  0  0  0  0  0
   -1.5470    3.8254   -0.5284 H   0  0  0  0  0  0  0  0  0  0  0  0
  5  6  2  0  0  0  0
  5  7  1  0  0  0  0
  2  3  1  0  0  0  0
  2  4  1  0  0  0  0
  2  5  1  0  0  0  0
  1  2  1  0  0  0  0
 19 20  2  0  0  0  0
 19 21  1  0  0  0  0
 17 18  1  0  0  0  0
 13 14  1  0  0  0  0
 13 15  1  0  0  0  0
 13 16  1  0  0  0  0
 11 12  1  0  0  0  0
 11 13  1  0  0  0  0
 11 17  1  0  0  0  0
  9 10  1  0  0  0  0
  9 11  1  0  0  0  0
  9 19  1  0  0  0  0
  7  8  1  0  0  0  0
  7  9  1  0  0  0  0
 23 24  1  0  0  0  0
 23 25  1  0  0  0  0
 23 26  1  0  0  0  0
 21 22  1  0  0  0  0
 21 23  1  0  0  0  0
M  END
$$$$
default_name
  -OEChem-01062215323D

 26 25  0     1  0  0  0  0  0999 V2000
   -2.8882   -3.2497    1.2537 H   0  0  0  0  0  0  0  0  0  0  0  0
   -2.8032   -2.3157    0.7017 C   0  0  0  0  0  0  0  0  0  0  0  0
   -3.5012   -1.5857    1.1067 H   0  0  0  0  0  0  0  0  0  0  0  0
   -3.0182   -2.4907   -0.3513 H   0  0  0  0  0  0  0  0  0  0  0  0
   -1.3942   -1.7897    0.8407 C   0  0  0  0  0  0  0  0  0  0  0  0
   -0.5672   -2.4077    1.5007 O   0  0  0  0  0  0  0  0  0  0  0  0
   -1.1222   -0.6447    0.2217 N   0  0  0  0  0  0  0  0  0  0  0  0
   -1.8592   -0.1777   -0.2863 H   0  0  0  0  0  0  0  0  0  0  0  0
    0.1838    0.0363    0.2367 C   0  0  1  0  0  0  0  0  0  0  0  0
    0.6675   -0.1581    1.1933 H   0  0  0  0  0  0  0  0  0  0  0  0
    1.1147   -0.4840   -0.8779 C   0  0  1  0  0  0  0  0  0  0  0  0
    2.0580    0.0581   -0.8151 H   0  0  0  0  0  0  0  0  0  0  0  0
    1.4288   -1.9757   -0.7815 C   0  0  0  0  0  0  0  0  0  0  0  0
    0.5312   -2.5660   -0.9700 H   0  0  0  0  0  0  0  0  0  0  0  0
    2.1915   -2.2410   -1.5127 H   0  0  0  0  0  0  0  0  0  0  0  0
    1.8017   -2.2080    0.2164 H   0  0  0  0  0  0  0  0  0  0  0  0
    0.5565   -0.2574   -2.1484 O   0  0  0  0  0  0  0  0  0  0  0  0
    1.1190   -0.6810   -2.8002 H   0  0  0  0  0  0  0  0  0  0  0  0
    0.0097    1.5550    0.1131 C   0  0  0  0  0  0  0  0  0  0  0  0
    0.6596    2.3265    0.8186 O   0  0  0  0  0  0  0  0  0  0  0  0
   -0.8544    1.9959   -0.8118 N   0  0  0  0  0  0  0  0  0  0  0  0
   -1.3416    1.3156   -1.3716 H   0  0  0  0  0  0  0  0  0  0  0  0
   -1.1343    3.4099   -1.0566 C   0  0  0  0  0  0  0  0  0  0  0  0
   -0.1999    3.9458   -1.2348 H   0  0  0  0  0  0  0  0  0  0  0  0
   -1.7845    3.5247   -1.9241 H   0  0  0  0  0  0  0  0  0  0  0  0
   -1.6206    3.8452   -0.1811 H   0  0  0  0  0  0  0  0  0  0  0  0
  5  6  2  0  0  0  0
  5  7  1  0  0  0  0
  2  3  1  0  0  0  0
  2  4  1  0  0  0  0
  2  5  1  0  0  0  0
  1  2  1  0  0  0  0
 19 20  2  0  0  0  0
 19 21  1  0  0  0  0
 17 18  1  0  0  0  0
 13 14  1  0  0  0  0
 13 15  1  0  0  0  0
 13 16  1  0  0  0  0
 11 12  1  0  0  0  0
 11 13  1  0  0  0  0
 11 17  1  0  0  0  0
  9 10  1  0  0  0  0
  9 11  1  0  0  0  0
  9 19  1  0  0  0  0
  7  8  1  0  0  0  0
  7  9  1  0  0  0  0
 23 24  1  0  0  0  0
 23 25  1  0  0  0  0
 23 26  1  0  0  0  0
 21 22  1  0  0  0  0
 21 23  1  0  0  0  0
M  END
$$$$
default_name
  -OEChem-01062215323D

 26 25  0     1  0  0  0  0  0999 V2000
   -2.8882   -3.2497    1.2537 H   0  0  0  0  0  0  0  0  0  0  0  0
   -2.8032   -2.3157    0.7017 C   0  0  0  0  0  0  0  0  0  0  0  0
   -3.5012   -1.5857    1.1067 H   0  0  0  0  0  0  0  0  0  0  0  0
   -3.0182   -2.4907   -0.3513 H   0  0  0  0  0  0  0  0  0  0  0  0
   -1.3942   -1.7897    0.8407 C   0  0  0  0  0  0  0  0  0  0  0  0
   -0.5672   -2.4077    1.5007 O   0  0  0  0  0  0  0  0  0  0  0  0
   -1.1222   -0.6447    0.2217 N   0  0  0  0  0  0  0  0  0  0  0  0
   -1.8592   -0.1777   -0.2863 H   0  0  0  0  0  0  0  0  0  0  0  0
    0.1838    0.0363    0.2367 C   0  0  1  0  0  0  0  0  0  0  0  0
    0.6675   -0.1581    1.1933 H   0  0  0  0  0  0  0  0  0  0  0  0
    1.1147   -0.4840   -0.8779 C   0  0  1  0  0  0  0  0  0  0  0  0
    2.0580    0.0581   -0.8151 H   0  0  0  0  0  0  0  0  0  0  0  0
    1.4288   -1.9757   -0.7815 C   0  0  0  0  0  0  0  0  0  0  0  0
    0.5312   -2.5660   -0.9700 H   0  0  0  0  0  0  0  0  0  0  0  0
    2.1915   -2.2410   -1.5127 H   0  0  0  0  0  0  0  0  0  0  0  0
    1.8017   -2.2080    0.2164 H   0  0  0  0  0  0  0  0  0  0  0  0
    0.5565   -0.2574   -2.1484 O   0  0  0  0  0  0  0  0  0  0  0  0
    1.1190   -0.6810   -2.8002 H   0  0  0  0  0  0  0  0  0  0  0  0
    0.0097    1.5550    0.1131 C   0  0  0  0  0  0  0  0  0  0  0  0
    0.8319    2.3287    0.6036 O   0  0  0  0  0  0  0  0  0  0  0  0
   -1.0552    1.9923   -0.5735 N   0  0  0  0  0  0  0  0  0  0  0  0
   -1.6812    1.3095   -0.9678 H   0  0  0  0  0  0  0  0  0  0  0  0
   -1.3644    3.4057   -0.7838 C   0  0  0  0  0  0  0  0  0  0  0  0
   -0.4981    3.9135   -1.2123 H   0  0  0  0  0  0  0  0  0  0  0  0
   -2.2134    3.5133   -1.4591 H   0  0  0  0  0  0  0  0  0  0  0  0
   -1.6023    3.8761    0.1727 H   0  0  0  0  0  0  0  0  0  0  0  0
  5  6  2  0  0  0  0
  5  7  1  0  0  0  0
  2  3  1  0  0  0  0
  2  4  1  0  0  0  0
  2  5  1  0  0  0  0
  1  2  1  0  0  0  0
 19 20  2  0  0  0  0
 19 21  1  0  0  0  0
 17 18  1  0  0  0  0
 13 14  1  0  0  0  0
 13 15  1  0  0  0  0
 13 16  1  0  0  0  0
 11 12  1  0  0  0  0
 11 13  1  0  0  0  0
 11 17  1  0  0  0  0
  9 10  1  0  0  0  0
  9 11  1  0  0  0  0
  9 19  1  0  0  0  0
  7  8  1  0  0  0  0
  7  9  1  0  0  0  0
 23 24  1  0  0  0  0
 23 25  1  0  0  0  0
 23 26  1  0  0  0  0
 21 22  1  0  0  0  0
 21 23  1  0  0  0  0
M  END
$$$$
default_name
  -OEChem-01062215323D

 26 25  0     1  0  0  0  0  0999 V2000
   -2.8882   -3.2497    1.2537 H   0  0  0  0  0  0  0  0  0  0  0  0
   -2.8032   -2.3157    0.7017 C   0  0  0  0  0  0  0  0  0  0  0  0
   -3.5012   -1.5857    1.1067 H   0  0  0  0  0  0  0  0  0  0  0  0
   -3.0182   -2.4907   -0.3513 H   0  0  0  0  0  0  0  0  0  0  0  0
   -1.3942   -1.7897    0.8407 C   0  0  0  0  0  0  0  0  0  0  0  0
   -0.5672   -2.4077    1.5007 O   0  0  0  0  0  0  0  0  0  0  0  0
   -1.1222   -0.6447    0.2217 N   0  0  0  0  0  0  0  0  0  0  0  0
   -1.8592   -0.1777   -0.2863 H   0  0  0  0  0  0  0  0  0  0  0  0
    0.1838    0.0363    0.2367 C   0  0  1  0  0  0  0  0  0  0  0  0
    0.6675   -0.1581    1.1933 H   0  0  0  0  0  0  0  0  0  0  0  0
    1.1147   -0.4840   -0.8779 C   0  0  1  0  0  0  0  0  0  0  0  0
    2.0580    0.0581   -0.8151 H   0  0  0  0  0  0  0  0  0  0  0  0
    1.4288   -1.9757   -0.7815 C   0  0  0  0  0  0  0  0  0  0  0  0
    0.5312   -2.5660   -0.9700 H   0  0  0  0  0  0  0  0  0  0  0  0
    2.1915   -2.2410   -1.5127 H   0  0  0  0  0  0  0  0  0  0  0  0
    1.8017   -2.2080    0.2164 H   0  0  0  0  0  0  0  0  0  0  0  0
    0.5565   -0.2574   -2.1484 O   0  0  0  0  0  0  0  0  0  0  0  0
    1.1190   -0.6810   -2.8002 H   0  0  0  0  0  0  0  0  0  0  0  0
    0.0097    1.5550    0.1131 C   0  0  0  0  0  0  0  0  0  0  0  0
    0.9433    2.3210    0.3517 O   0  0  0  0  0  0  0  0  0  0  0  0
   -1.1881    1.9999   -0.2917 N   0  0  0  0  0  0  0  0  0  0  0  0
   -1.9059    1.3226   -0.4905 H   0  0  0  0  0  0  0  0  0  0  0  0
   -1.5168    3.4145   -0.4611 C   0  0  0  0  0  0  0  0  0  0  0  0
   -0.7810    3.8891   -1.1132 H   0  0  0  0  0  0  0  0  0  0  0  0
   -2.5087    3.5250   -0.8997 H   0  0  0  0  0  0  0  0  0  0  0  0
   -1.4932    3.9159    0.5088 H   0  0  0  0  0  0  0  0  0  0  0  0
  5  6  2  0  0  0  0
  5  7  1  0  0  0  0
  2  3  1  0  0  0  0
  2  4  1  0  0  0  0
  2  5  1  0  0  0  0
  1  2  1  0  0  0  0
 19 20  2  0  0  0  0
 19 21  1  0  0  0  0
 17 18  1  0  0  0  0
 13 14  1  0  0  0  0
 13 15  1  0  0  0  0
 13 16  1  0  0  0  0
 11 12  1  0  0  0  0
 11 13  1  0  0  0  0
 11 17  1  0  0  0  0
  9 10  1  0  0  0  0
  9 11  1  0  0  0  0
  9 19  1  0  0  0  0
  7  8  1  0  0  0  0
  7  9  1  0  0  0  0
 23 24  1  0  0  0  0
 23 25  1  0  0  0  0
 23 26  1  0  0  0  0
 21 22  1  0  0  0  0
 21 23  1  0  0  0  0
M  END
$$$$
default_name
  -OEChem-01062215323D

 26 25  0     1  0  0  0  0  0999 V2000
   -2.8882   -3.2497    1.2537 H   0  0  0  0  0  0  0  0  0  0  0  0
   -2.8032   -2.3157    0.7017 C   0  0  0  0  0  0  0  0  0  0  0  0
   -3.5012   -1.5857    1.1067 H   0  0  0  0  0  0  0  0  0  0  0  0
   -3.0182   -2.4907   -0.3513 H   0  0  0  0  0  0  0  0  0  0  0  0
   -1.3942   -1.7897    0.8407 C   0  0  0  0  0  0  0  0  0  0  0  0
   -0.5672   -2.4077    1.5007 O   0  0  0  0  0  0  0  0  0  0  0  0
   -1.1222   -0.6447    0.2217 N   0  0  0  0  0  0  0  0  0  0  0  0
   -1.8592   -0.1777   -0.2863 H   0  0  0  0  0  0  0  0  0  0  0  0
    0.1838    0.0363    0.2367 C   0  0  1  0  0  0  0  0  0  0  0  0
    0.6675   -0.1581    1.1933 H   0  0  0  0  0  0  0  0  0  0  0  0
    1.1147   -0.4840   -0.8779 C   0  0  1  0  0  0  0  0  0  0  0  0
    2.0580    0.0581   -0.8151 H   0  0  0  0  0  0  0  0  0  0  0  0
    1.4288   -1.9757   -0.7815 C   0  0  0  0  0  0  0  0  0  0  0  0
    0.5312   -2.5660   -0.9700 H   0  0  0  0  0  0  0  0  0  0  0  0
    2.1915   -2.2410   -1.5127 H   0  0  0  0  0  0  0  0  0  0  0  0
    1.8017   -2.2080    0.2164 H   0  0  0  0  0  0  0  0  0  0  0  0
    0.5565   -0.2574   -2.1484 O   0  0  0  0  0  0  0  0  0  0  0  0
    1.1190   -0.6810   -2.8002 H   0  0  0  0  0  0  0  0  0  0  0  0
    0.0097    1.5550    0.1131 C   0  0  0  0  0  0  0  0  0  0  0  0
    0.9861    2.3038    0.0800 O   0  0  0  0  0  0  0  0  0  0  0  0
   -1.2442    2.0184    0.0143 N   0  0  0  0  0  0  0  0  0  0  0  0
   -2.0003    1.3539    0.0278 H   0  0  0  0  0  0  0  0  0  0  0  0
   -1.5812    3.4356   -0.1106 C   0  0  0  0  0  0  0  0  0  0  0  0
   -1.0293    3.8744   -0.9442 H   0  0  0  0  0  0  0  0  0  0  0  0
   -2.6504    3.5588   -0.2840 H   0  0  0  0  0  0  0  0  0  0  0  0
   -1.3010    3.9620    0.8043 H   0  0  0  0  0  0  0  0  0  0  0  0
  5  6  2  0  0  0  0
  5  7  1  0  0  0  0
  2  3  1  0  0  0  0
  2  4  1  0  0  0  0
  2  5  1  0  0  0  0
  1  2  1  0  0  0  0
 19 20  2  0  0  0  0
 19 21  1  0  0  0  0
 17 18  1  0  0  0  0
 13 14  1  0  0  0  0
 13 15  1  0  0  0  0
 13 16  1  0  0  0  0
 11 12  1  0  0  0  0
 11 13  1  0  0  0  0
 11 17  1  0  0  0  0
  9 10  1  0  0  0  0
  9 11  1  0  0  0  0
  9 19  1  0  0  0  0
  7  8  1  0  0  0  0
  7  9  1  0  0  0  0
 23 24  1  0  0  0  0
 23 25  1  0  0  0  0
 23 26  1  0  0  0  0
 21 22  1  0  0  0  0
 21 23  1  0  0  0  0
M  END
$$$$
default_name
  -OEChem-01062215323D

 26 25  0     1  0  0  0  0  0999 V2000
   -2.8882   -3.2497    1.2537 H   0  0  0  0  0  0  0  0  0  0  0  0
   -2.8032   -2.3157    0.7017 C   0  0  0  0  0  0  0  0  0  0  0  0
   -3.5012   -1.5857    1.1067 H   0  0  0  0  0  0  0  0  0  0  0  0
   -3.0182   -2.4907   -0.3513 H   0  0  0  0  0  0  0  0  0  0  0  0
   -1.3942   -1.7897    0.8407 C   0  0  0  0  0  0  0  0  0  0  0  0
   -0.5672   -2.4077    1.5007 O   0  0  0  0  0  0  0  0  0  0  0  0
   -1.1222   -0.6447    0.2217 N   0  0  0  0  0  0  0  0  0  0  0  0
   -1.8592   -0.1777   -0.2863 H   0  0  0  0  0  0  0  0  0  0  0  0
    0.1838    0.0363    0.2367 C   0  0  1  0  0  0  0  0  0  0  0  0
    0.6675   -0.1581    1.1933 H   0  0  0  0  0  0  0  0  0  0  0  0
    1.1147   -0.4840   -0.8779 C   0  0  1  0  0  0  0  0  0  0  0  0
    2.0580    0.0581   -0.8151 H   0  0  0  0  0  0  0  0  0  0  0  0
    1.4288   -1.9757   -0.7815 C   0  0  0  0  0  0  0  0  0  0  0  0
    0.5312   -2.5660   -0.9700 H   0  0  0  0  0  0  0  0  0  0  0  0
    2.1915   -2.2410   -1.5127 H   0  0  0  0  0  0  0  0  0  0  0  0
    1.8017   -2.2080    0.2164 H   0  0  0  0  0  0  0  0  0  0  0  0
    0.5565   -0.2574   -2.1484 O   0  0  0  0  0  0  0  0  0  0  0  0
    1.1190   -0.6810   -2.8002 H   0  0  0  0  0  0  0  0  0  0  0  0
    0.0097    1.5550    0.1131 C   0  0  0  0  0  0  0  0  0  0  0  0
    0.9575    2.2783   -0.1929 O   0  0  0  0  0  0  0  0  0  0  0  0
   -1.2194    2.0464    0.3238 N   0  0  0  0  0  0  0  0  0  0  0  0
   -1.9580    1.4014    0.5516 H   0  0  0  0  0  0  0  0  0  0  0  0
   -1.5531    3.4677    0.2438 C   0  0  0  0  0  0  0  0  0  0  0  0
   -1.2262    3.8703   -0.7169 H   0  0  0  0  0  0  0  0  0  0  0  0
   -2.6287    3.6126    0.3460 H   0  0  0  0  0  0  0  0  0  0  0  0
   -1.0385    4.0112    1.0391 H   0  0  0  0  0  0  0  0  0  0  0  0
  5  6  2  0  0  0  0
  5  7  1  0  0  0  0
  2  3  1  0  0  0  0
  2  4  1  0  0  0  0
  2  5  1  0  0  0  0
  1  2  1  0  0  0  0
 19 20  2  0  0  0  0
 19 21  1  0  0  0  0
 17 18  1  0  0  0  0
 13 14  1  0  0  0  0
 13 15  1  0  0  0  0
 13 16  1  0  0  0  0
 11 12  1  0  0  0  0
 11 13  1  0  0  0  0
 11 17  1  0  0  0  0
  9 10  1  0  0  0  0
  9 11  1  0  0  0  0
  9 19  1  0  0  0  0
  7  8  1  0  0  0  0
  7  9  1  0  0  0  0
 23 24  1  0  0  0  0
 23 25  1  0  0  0  0
 23 26  1  0  0  0  0
 21 22  1  0  0  0  0
 21 23  1  0  0  0  0
M  END
$$$$
default_name
  -OEChem-01062215323D

 26 25  0     1  0  0  0  0  0999 V2000
   -2.8882   -3.2497    1.2537 H   0  0  0  0  0  0  0  0  0  0  0  0
   -2.8032   -2.3157    0.7017 C   0  0  0  0  0  0  0  0  0  0  0  0
   -3.5012   -1.5857    1.1067 H   0  0  0  0  0  0  0  0  0  0  0  0
   -3.0182   -2.4907   -0.3513 H   0  0  0  0  0  0  0  0  0  0  0  0
   -1.3942   -1.7897    0.8407 C   0  0  0  0  0  0  0  0  0  0  0  0
   -0.5672   -2.4077    1.5007 O   0  0  0  0  0  0  0  0  0  0  0  0
   -1.1222   -0.6447    0.2217 N   0  0  0  0  0  0  0  0  0  0  0  0
   -1.8592   -0.1777   -0.2863 H   0  0  0  0  0  0  0  0  0  0  0  0
    0.1838    0.0363    0.2367 C   0  0  1  0  0  0  0  0  0  0  0  0
    0.6675   -0.1581    1.1933 H   0  0  0  0  0  0  0  0  0  0  0  0
    1.1147   -0.4840   -0.8779 C   0  0  1  0  0  0  0  0  0  0  0  0
    2.0580    0.0581   -0.8151 H   0  0  0  0  0  0  0  0  0  0  0  0
    1.4288   -1.9757   -0.7815 C   0  0  0  0  0  0  0  0  0  0  0  0
    0.5312   -2.5660   -0.9700 H   0  0  0  0  0  0  0  0  0  0  0  0
    2.1915   -2.2410   -1.5127 H   0  0  0  0  0  0  0  0  0  0  0  0
    1.8017   -2.2080    0.2164 H   0  0  0  0  0  0  0  0  0  0  0  0
    0.5565   -0.2574   -2.1484 O   0  0  0  0  0  0  0  0  0  0  0  0
    1.1190   -0.6810   -2.8002 H   0  0  0  0  0  0  0  0  0  0  0  0
    0.0097    1.5550    0.1131 C   0  0  0  0  0  0  0  0  0  0  0  0
    0.8594    2.2463   -0.4484 O   0  0  0  0  0  0  0  0  0  0  0  0
   -1.1157    2.0821    0.6155 N   0  0  0  0  0  0  0  0  0  0  0  0
   -1.7819    1.4618    1.0454 H   0  0  0  0  0  0  0  0  0  0  0  0
   -1.4344    3.5085    0.5780 C   0  0  0  0  0  0  0  0  0  0  0  0
   -1.3582    3.8772   -0.4468 H   0  0  0  0  0  0  0  0  0  0  0  0
   -2.4452    3.6826    0.9474 H   0  0  0  0  0  0  0  0  0  0  0  0
   -0.7239    4.0602    1.1972 H   0  0  0  0  0  0  0  0  0  0  0  0
  5  6  2  0  0  0  0
  5  7  1  0  0  0  0
  2  3  1  0  0  0  0
  2  4  1  0  0  0  0
  2  5  1  0  0  0  0
  1  2  1  0  0  0  0
 19 20  2  0  0  0  0
 19 21  1  0  0  0  0
 17 18  1  0  0  0  0
 13 14  1  0  0  0  0
 13 15  1  0  0  0  0
 13 16  1  0  0  0  0
 11 12  1  0  0  0  0
 11 13  1  0  0  0  0
 11 17  1  0  0  0  0
  9 10  1  0  0  0  0
  9 11  1  0  0  0  0
  9 19  1  0  0  0  0
  7  8  1  0  0  0  0
  7  9  1  0  0  0  0
 23 24  1  0  0  0  0
 23 25  1  0  0  0  0
 23 26  1  0  0  0  0
 21 22  1  0  0  0  0
 21 23  1  0  0  0  0
M  END
$$$$
default_name
  -OEChem-01062215323D

 26 25  0     1  0  0  0  0  0999 V2000
   -2.8882   -3.2497    1.2537 H   0  0  0  0  0  0  0  0  0  0  0  0
   -2.8032   -2.3157    0.7017 C   0  0  0  0  0  0  0  0  0  0  0  0
   -3.5012   -1.5857    1.1067 H   0  0  0  0  0  0  0  0  0  0  0  0
   -3.0182   -2.4907   -0.3513 H   0  0  0  0  0  0  0  0  0  0  0  0
   -1.3942   -1.7897    0.8407 C   0  0  0  0  0  0  0  0  0  0  0  0
   -0.5672   -2.4077    1.5007 O   0  0  0  0  0  0  0  0  0  0  0  0
   -1.1222   -0.6447    0.2217 N   0  0  0  0  0  0  0  0  0  0  0  0
   -1.8592   -0.1777   -0.2863 H   0  0  0  0  0  0  0  0  0  0  0  0
    0.1838    0.0363    0.2367 C   0  0  1  0  0  0  0  0  0  0  0  0
    0.6675   -0.1581    1.1933 H   0  0  0  0  0  0  0  0  0  0  0  0
    1.1147   -0.4840   -0.8779 C   0  0  1  0  0  0  0  0  0  0  0  0
    2.0580    0.0581   -0.8151 H   0  0  0  0  0  0  0  0  0  0  0  0
    1.4288   -1.9757   -0.7815 C   0  0  0  0  0  0  0  0  0  0  0  0
    0.5312   -2.5660   -0.9700 H   0  0  0  0  0  0  0  0  0  0  0  0
    2.1915   -2.2410   -1.5127 H   0  0  0  0  0  0  0  0  0  0  0  0
    1.8017   -2.2080    0.2164 H   0  0  0  0  0  0  0  0  0  0  0  0
    0.5565   -0.2574   -2.1484 O   0  0  0  0  0  0  0  0  0  0  0  0
    1.1190   -0.6810   -2.8002 H   0  0  0  0  0  0  0  0  0  0  0  0
    0.0097    1.5550    0.1131 C   0  0  0  0  0  0  0  0  0  0  0  0
    0.6985    2.2098   -0.6691 O   0  0  0  0  0  0  0  0  0  0  0  0
   -0.9400    2.1229    0.8696 N   0  0  0  0  0  0  0  0  0  0  0  0
   -1.4840    1.5309    1.4755 H   0  0  0  0  0  0  0  0  0  0  0  0
   -1.2333    3.5553    0.8692 C   0  0  0  0  0  0  0  0  0  0  0  0
   -1.4164    3.8945   -0.1523 H   0  0  0  0  0  0  0  0  0  0  0  0
   -2.1123    3.7640    1.4793 H   0  0  0  0  0  0  0  0  0  0  0  0
   -0.3783    4.1056    1.2679 H   0  0  0  0  0  0  0  0  0  0  0  0
  5  6  2  0  0  0  0
  5  7  1  0  0  0  0
  2  3  1  0  0  0  0
  2  4  1  0  0  0  0
  2  5  1  0  0  0  0
  1  2  1  0  0  0  0
 19 20  2  0  0  0  0
 19 21  1  0  0  0  0
 17 18  1  0  0  0  0
 13 14  1  0  0  0  0
 13 15  1  0  0  0  0
 13 16  1  0  0  0  0
 11 12  1  0  0  0  0
 11 13  1  0  0  0  0
 11 17  1  0  0  0  0
  9 10  1  0  0  0  0
  9 11  1  0  0  0  0
  9 19  1  0  0  0  0
  7  8  1  0  0  0  0
  7  9  1  0  0  0  0
 23 24  1  0  0  0  0
 23 25  1  0  0  0  0
 23 26  1  0  0  0  0
 21 22  1  0  0  0  0
 21 23  1  0  0  0  0
M  END
$$$$
default_name
  -OEChem-01062215323D

 26 25  0     1  0  0  0  0  0999 V2000
   -2.8882   -3.2497    1.2537 H   0  0  0  0  0  0  0  0  0  0  0  0
   -2.8032   -2.3157    0.7017 C   0  0  0  0  0  0  0  0  0  0  0  0
   -3.5012   -1.5857    1.1067 H   0  0  0  0  0  0  0  0  0  0  0  0
   -3.0182   -2.4907   -0.3513 H   0  0  0  0  0  0  0  0  0  0  0  0
   -1.3942   -1.7897    0.8407 C   0  0  0  0  0  0  0  0  0  0  0  0
   -0.5672   -2.4077    1.5007 O   0  0  0  0  0  0  0  0  0  0  0  0
   -1.1222   -0.6447    0.2217 N   0  0  0  0  0  0  0  0  0  0  0  0
   -1.8592   -0.1777   -0.2863 H   0  0  0  0  0  0  0  0  0  0  0  0
    0.1838    0.0363    0.2367 C   0  0  1  0  0  0  0  0  0  0  0  0
    0.6675   -0.1581    1.1933 H   0  0  0  0  0  0  0  0  0  0  0  0
    1.1147   -0.4840   -0.8779 C   0  0  1  0  0  0  0  0  0  0  0  0
    2.0580    0.0581   -0.8151 H   0  0  0  0  0  0  0  0  0  0  0  0
    1.4288   -1.9757   -0.7815 C   0  0  0  0  0  0  0  0  0  0  0  0
    0.5312   -2.5660   -0.9700 H   0  0  0  0  0  0  0  0  0  0  0  0
    2.1915   -2.2410   -1.5127 H   0  0  0  0  0  0  0  0  0  0  0  0
    1.8017   -2.2080    0.2164 H   0  0  0  0  0  0  0  0  0  0  0  0
    0.5565   -0.2574   -2.1484 O   0  0  0  0  0  0  0  0  0  0  0  0
    1.1190   -0.6810   -2.8002 H   0  0  0  0  0  0  0  0  0  0  0  0
    0.0097    1.5550    0.1131 C   0  0  0  0  0  0  0  0  0  0  0  0
    0.4858    2.1715   -0.8400 O   0  0  0  0  0  0  0  0  0  0  0  0
   -0.7042    2.1662    1.0689 N   0  0  0  0  0  0  0  0  0  0  0  0
   -1.0846    1.6042    1.8125 H   0  0  0  0  0  0  0  0  0  0  0  0
   -0.9634    3.6048    1.0976 C   0  0  0  0  0  0  0  0  0  0  0  0
   -1.3967    3.9210    0.1466 H   0  0  0  0  0  0  0  0  0  0  0  0
   -1.6527    3.8514    1.9053 H   0  0  0  0  0  0  0  0  0  0  0  0
   -0.0255    4.1443    1.2462 H   0  0  0  0  0  0  0  0  0  0  0  0
  5  6  2  0  0  0  0
  5  7  1  0  0  0  0
  2  3  1  0  0  0  0
  2  4  1  0  0  0  0
  2  5  1  0  0  0  0
  1  2  1  0  0  0  0
 19 20  2  0  0  0  0
 19 21  1  0  0  0  0
 17 18  1  0  0  0  0
 13 14  1  0  0  0  0
 13 15  1  0  0  0  0
 13 16  1  0  0  0  0
 11 12  1  0  0  0  0
 11 13  1  0  0  0  0
 11 17  1  0  0  0  0
  9 10  1  0  0  0  0
  9 11  1  0  0  0  0
  9 19  1  0  0  0  0
  7  8  1  0  0  0  0
  7  9  1  0  0  0  0
 23 24  1  0  0  0  0
 23 25  1  0  0  0  0
 23 26  1  0  0  0  0
 21 22  1  0  0  0  0
 21 23  1  0  0  0  0
M  END
$$$$
default_name
  -OEChem-01062215323D

 26 25  0     1  0  0  0  0  0999 V2000
   -2.8882   -3.2497    1.2537 H   0  0  0  0  0  0  0  0  0  0  0  0
   -2.8032   -2.3157    0.7017 C   0  0  0  0  0  0  0  0  0  0  0  0
   -3.5012   -1.5857    1.1067 H   0  0  0  0  0  0  0  0  0  0  0  0
   -3.0182   -2.4907   -0.3513 H   0  0  0  0  0  0  0  0  0  0  0  0
   -1.3942   -1.7897    0.8407 C   0  0  0  0  0  0  0  0  0  0  0  0
   -0.5672   -2.4077    1.5007 O   0  0  0  0  0  0  0  0  0  0  0  0
   -1.1222   -0.6447    0.2217 N   0  0  0  0  0  0  0  0  0  0  0  0
   -1.8592   -0.1777   -0.2863 H   0  0  0  0  0  0  0  0  0  0  0  0
    0.1838    0.0363    0.2367 C   0  0  1  0  0  0  0  0  0  0  0  0
    0.6675   -0.1581    1.1933 H   0  0  0  0  0  0  0  0  0  0  0  0
    1.1147   -0.4840   -0.8779 C   0  0  1  0  0  0  0  0  0  0  0  0
    2.0580    0.0581   -0.8151 H   0  0  0  0  0  0  0  0  0  0  0  0
    1.4288   -1.9757   -0.7815 C   0  0  0  0  0  0  0  0  0  0  0  0
    0.5312   -2.5660   -0.9700 H   0  0  0  0  0  0  0  0  0  0  0  0
    2.1915   -2.2410   -1.5127 H   0  0  0  0  0  0  0  0  0  0  0  0
    1.8017   -2.2080    0.2164 H   0  0  0  0  0  0  0  0  0  0  0  0
    0.5565   -0.2574   -2.1484 O   0  0  0  0  0  0  0  0  0  0  0  0
    1.1190   -0.6810   -2.8002 H   0  0  0  0  0  0  0  0  0  0  0  0
    0.0097    1.5550    0.1131 C   0  0  0  0  0  0  0  0  0  0  0  0
    0.2357    2.1340   -0.9494 O   0  0  0  0  0  0  0  0  0  0  0  0
   -0.4246    2.2089    1.1996 N   0  0  0  0  0  0  0  0  0  0  0  0
   -0.6109    1.6765    2.0335 H   0  0  0  0  0  0  0  0  0  0  0  0
   -0.6431    3.6537    1.2475 C   0  0  0  0  0  0  0  0  0  0  0  0
   -1.3005    3.9551    0.4295 H   0  0  0  0  0  0  0  0  0  0  0  0
   -1.0978    3.9387    2.1964 H   0  0  0  0  0  0  0  0  0  0  0  0
    0.3105    4.1736    1.1337 H   0  0  0  0  0  0  0  0  0  0  0  0
  5  6  2  0  0  0  0
  5  7  1  0  0  0  0
  2  3  1  0  0  0  0
  2  4  1  0  0  0  0
  2  5  1  0  0  0  0
  1  2  1  0  0  0  0
 19 20  2  0  0  0  0
 19 21  1  0  0  0  0
 17 18  1  0  0  0  0
 13 14  1  0  0  0  0
 13 15  1  0  0  0  0
 13 16  1  0  0  0  0
 11 12  1  0  0  0  0
 11 13  1  0  0  0  0
 11 17  1  0  0  0  0
  9 10  1  0  0  0  0
  9 11  1  0  0  0  0
  9 19  1  0  0  0  0
  7  8  1  0  0  0  0
  7  9  1  0  0  0  0
 23 24  1  0  0  0  0
 23 25  1  0  0  0  0
 23 26  1  0  0  0  0
 21 22  1  0  0  0  0
 21 23  1  0  0  0  0
M  END
$$$$
default_name
  -OEChem-01062215323D

 26 25  0     1  0  0  0  0  0999 V2000
   -2.8882   -3.2497    1.2537 H   0  0  0  0  0  0  0  0  0  0  0  0
   -2.8032   -2.3157    0.7017 C   0  0  0  0  0  0  0  0  0  0  0  0
   -3.5012   -1.5857    1.1067 H   0  0  0  0  0  0  0  0  0  0  0  0
   -3.0182   -2.4907   -0.3513 H   0  0  0  0  0  0  0  0  0  0  0  0
   -1.3942   -1.7897    0.8407 C   0  0  0  0  0  0  0  0  0  0  0  0
   -0.5672   -2.4077    1.5007 O   0  0  0  0  0  0  0  0  0  0  0  0
   -1.1222   -0.6447    0.2217 N   0  0  0  0  0  0  0  0  0  0  0  0
   -1.8592   -0.1777   -0.2863 H   0  0  0  0  0  0  0  0  0  0  0  0
    0.1838    0.0363    0.2367 C   0  0  1  0  0  0  0  0  0  0  0  0
    0.6675   -0.1581    1.1933 H   0  0  0  0  0  0  0  0  0  0  0  0
    1.1147   -0.4840   -0.8779 C   0  0  1  0  0  0  0  0  0  0  0  0
    2.0580    0.0581   -0.8151 H   0  0  0  0  0  0  0  0  0  0  0  0
    1.4288   -1.9757   -0.7815 C   0  0  0  0  0  0  0  0  0  0  0  0
    0.5312   -2.5660   -0.9700 H   0  0  0  0  0  0  0  0  0  0  0  0
    2.1915   -2.2410   -1.5127 H   0  0  0  0  0  0  0  0  0  0  0  0
    1.8017   -2.2080    0.2164 H   0  0  0  0  0  0  0  0  0  0  0  0
    0.5565   -0.2574   -2.1484 O   0  0  0  0  0  0  0  0  0  0  0  0
    1.1190   -0.6810   -2.8002 H   0  0  0  0  0  0  0  0  0  0  0  0
    0.0097    1.5550    0.1131 C   0  0  0  0  0  0  0  0  0  0  0  0
   -0.0347    2.0997   -0.9899 O   0  0  0  0  0  0  0  0  0  0  0  0
   -0.1200    2.2481    1.2530 N   0  0  0  0  0  0  0  0  0  0  0  0
   -0.0952    1.7429    2.1234 H   0  0  0  0  0  0  0  0  0  0  0  0
   -0.2944    3.6987    1.3088 C   0  0  0  0  0  0  0  0  0  0  0  0
   -1.1344    3.9943    0.6771 H   0  0  0  0  0  0  0  0  0  0  0  0
   -0.4854    4.0201    2.3329 H   0  0  0  0  0  0  0  0  0  0  0  0
    0.6068    4.1917    0.9381 H   0  0  0  0  0  0  0  0  0  0  0  0
  5  6  2  0  0  0  0
  5  7  1  0  0  0  0
  2  3  1  0  0  0  0
  2  4  1  0  0  0  0
  2  5  1  0  0  0  0
  1  2  1  0  0  0  0
 19 20  2  0  0  0  0
 19 21  1  0  0  0  0
 17 18  1  0  0  0  0
 13 14  1  0  0  0  0
 13 15  1  0  0  0  0
 13 16  1  0  0  0  0
 11 12  1  0  0  0  0
 11 13  1  0  0  0  0
 11 17  1  0  0  0  0
  9 10  1  0  0  0  0
  9 11  1  0  0  0  0
  9 19  1  0  0  0  0
  7  8  1  0  0  0  0
  7  9  1  0  0  0  0
 23 24  1  0  0  0  0
 23 25  1  0  0  0  0
 23 26  1  0  0  0  0
 21 22  1  0  0  0  0
 21 23  1  0  0  0  0
M  END
$$$$
default_name
  -OEChem-01062215323D

 26 25  0     1  0  0  0  0  0999 V2000
   -2.8882   -3.2497    1.2537 H   0  0  0  0  0  0  0  0  0  0  0  0
   -2.8032   -2.3157    0.7017 C   0  0  0  0  0  0  0  0  0  0  0  0
   -3.5012   -1.5857    1.1067 H   0  0  0  0  0  0  0  0  0  0  0  0
   -3.0182   -2.4907   -0.3513 H   0  0  0  0  0  0  0  0  0  0  0  0
   -1.3942   -1.7897    0.8407 C   0  0  0  0  0  0  0  0  0  0  0  0
   -0.5672   -2.4077    1.5007 O   0  0  0  0  0  0  0  0  0  0  0  0
   -1.1222   -0.6447    0.2217 N   0  0  0  0  0  0  0  0  0  0  0  0
   -1.8592   -0.1777   -0.2863 H   0  0  0  0  0  0  0  0  0  0  0  0
    0.1838    0.0363    0.2367 C   0  0  1  0  0  0  0  0  0  0  0  0
    0.6675   -0.1581    1.1933 H   0  0  0  0  0  0  0  0  0  0  0  0
    1.1147   -0.4840   -0.8779 C   0  0  1  0  0  0  0  0  0  0  0  0
    2.0580    0.0581   -0.8151 H   0  0  0  0  0  0  0  0  0  0  0  0
    1.4288   -1.9757   -0.7815 C   0  0  0  0  0  0  0  0  0  0  0  0
    0.5312   -2.5660   -0.9700 H   0  0  0  0  0  0  0  0  0  0  0  0
    2.1915   -2.2410   -1.5127 H   0  0  0  0  0  0  0  0  0  0  0  0
    1.8017   -2.2080    0.2164 H   0  0  0  0  0  0  0  0  0  0  0  0
    0.5565   -0.2574   -2.1484 O   0  0  0  0  0  0  0  0  0  0  0  0
    1.1190   -0.6810   -2.8002 H   0  0  0  0  0  0  0  0  0  0  0  0
    0.0097    1.5550    0.1131 C   0  0  0  0  0  0  0  0  0  0  0  0
   -0.3070    2.0710   -0.9587 O   0  0  0  0  0  0  0  0  0  0  0  0
    0.1887    2.2813    1.2254 N   0  0  0  0  0  0  0  0  0  0  0  0
    0.4274    1.7990    2.0762 H   0  0  0  0  0  0  0  0  0  0  0  0
    0.0592    3.7367    1.2774 C   0  0  0  0  0  0  0  0  0  0  0  0
   -0.9096    4.0360    0.8726 H   0  0  0  0  0  0  0  0  0  0  0  0
    0.1428    4.0899    2.3053 H   0  0  0  0  0  0  0  0  0  0  0  0
    0.8433    4.1972    0.6726 H   0  0  0  0  0  0  0  0  0  0  0  0
  5  6  2  0  0  0  0
  5  7  1  0  0  0  0
  2  3  1  0  0  0  0
  2  4  1  0  0  0  0
  2  5  1  0  0  0  0
  1  2  1  0  0  0  0
 19 20  2  0  0  0  0
 19 21  1  0  0  0  0
 17 18  1  0  0  0  0
 13 14  1  0  0  0  0
 13 15  1  0  0  0  0
 13 16  1  0  0  0  0
 11 12  1  0  0  0  0
 11 13  1  0  0  0  0
 11 17  1  0  0  0  0
  9 10  1  0  0  0  0
  9 11  1  0  0  0  0
  9 19  1  0  0  0  0
  7  8  1  0  0  0  0
  7  9  1  0  0  0  0
 23 24  1  0  0  0  0
 23 25  1  0  0  0  0
 23 26  1  0  0  0  0
 21 22  1  0  0  0  0
 21 23  1  0  0  0  0
M  END
$$$$
default_name
  -OEChem-01062215323D

 26 25  0     1  0  0  0  0  0999 V2000
   -2.8882   -3.2497    1.2537 H   0  0  0  0  0  0  0  0  0  0  0  0
   -2.8032   -2.3157    0.7017 C   0  0  0  0  0  0  0  0  0  0  0  0
   -3.5012   -1.5857    1.1067 H   0  0  0  0  0  0  0  0  0  0  0  0
   -3.0182   -2.4907   -0.3513 H   0  0  0  0  0  0  0  0  0  0  0  0
   -1.3942   -1.7897    0.8407 C   0  0  0  0  0  0  0  0  0  0  0  0
   -0.5672   -2.4077    1.5007 O   0  0  0  0  0  0  0  0  0  0  0  0
   -1.1222   -0.6447    0.2217 N   0  0  0  0  0  0  0  0  0  0  0  0
   -1.8592   -0.1777   -0.2863 H   0  0  0  0  0  0  0  0  0  0  0  0
    0.1838    0.0363    0.2367 C   0  0  1  0  0  0  0  0  0  0  0  0
    0.6675   -0.1581    1.1933 H   0  0  0  0  0  0  0  0  0  0  0  0
    1.1147   -0.4840   -0.8779 C   0  0  1  0  0  0  0  0  0  0  0  0
    2.0580    0.0581   -0.8151 H   0  0  0  0  0  0  0  0  0  0  0  0
    1.4288   -1.9757   -0.7815 C   0  0  0  0  0  0  0  0  0  0  0  0
    0.5312   -2.5660   -0.9700 H   0  0  0  0  0  0  0  0  0  0  0  0
    2.1915   -2.2410   -1.5127 H   0  0  0  0  0  0  0  0  0  0  0  0
    1.8017   -2.2080    0.2164 H   0  0  0  0  0  0  0  0  0  0  0  0
    0.5565   -0.2574   -2.1484 O   0  0  0  0  0  0  0  0  0  0  0  0
    1.1190   -0.6810   -2.8002 H   0  0  0  0  0  0  0  0  0  0  0  0
    0.0097    1.5550    0.1131 C   0  0  0  0  0  0  0  0  0  0  0  0
   -0.5626    2.0499   -0.8579 O   0  0  0  0  0  0  0  0  0  0  0  0
    0.4804    2.3060    1.1186 N   0  0  0  0  0  0  0  0  0  0  0  0
    0.9213    1.8409    1.8949 H   0  0  0  0  0  0  0  0  0  0  0  0
    0.3934    3.7651    1.1552 C   0  0  0  0  0  0  0  0  0  0  0  0
   -0.6416    4.0773    1.0025 H   0  0  0  0  0  0  0  0  0  0  0  0
    0.7440    4.1434    2.1156 H   0  0  0  0  0  0  0  0  0  0  0  0
    1.0038    4.1898    0.3554 H   0  0  0  0  0  0  0  0  0  0  0  0
  5  6  2  0  0  0  0
  5  7  1  0  0  0  0
  2  3  1  0  0  0  0
  2  4  1  0  0  0  0
  2  5  1  0  0  0  0
  1  2  1  0  0  0  0
 19 20  2  0  0  0  0
 19 21  1  0  0  0  0
 17 18  1  0  0  0  0
 13 14  1  0  0  0  0
 13 15  1  0  0  0  0
 13 16  1  0  0  0  0
 11 12  1  0  0  0  0
 11 13  1  0  0  0  0
 11 17  1  0  0  0  0
  9 10  1  0  0  0  0
  9 11  1  0  0  0  0
  9 19  1  0  0  0  0
  7  8  1  0  0  0  0
  7  9  1  0  0  0  0
 23 24  1  0  0  0  0
 23 25  1  0  0  0  0
 23 26  1  0  0  0  0
 21 22  1  0  0  0  0
 21 23  1  0  0  0  0
M  END
$$$$
default_name
  -OEChem-01062215323D

 26 25  0     1  0  0  0  0  0999 V2000
   -2.8882   -3.2497    1.2537 H   0  0  0  0  0  0  0  0  0  0  0  0
   -2.8032   -2.3157    0.7017 C   0  0  0  0  0  0  0  0  0  0  0  0
   -3.5012   -1.5857    1.1067 H   0  0  0  0  0  0  0  0  0  0  0  0
   -3.0182   -2.4907   -0.3513 H   0  0  0  0  0  0  0  0  0  0  0  0
   -1.3942   -1.7897    0.8407 C   0  0  0  0  0  0  0  0  0  0  0  0
   -0.5672   -2.4077    1.5007 O   0  0  0  0  0  0  0  0  0  0  0  0
   -1.1222   -0.6447    0.2217 N   0  0  0  0  0  0  0  0  0  0  0  0
   -1.8592   -0.1777   -0.2863 H   0  0  0  0  0  0  0  0  0  0  0  0
    0.1838    0.0363    0.2367 C   0  0  1  0  0  0  0  0  0  0  0  0
    0.6675   -0.1581    1.1933 H   0  0  0  0  0  0  0  0  0  0  0  0
    1.1147   -0.4840   -0.8779 C   0  0  1  0  0  0  0  0  0  0  0  0
    2.0580    0.0581   -0.8151 H   0  0  0  0  0  0  0  0  0  0  0  0
    1.4288   -1.9757   -0.7815 C   0  0  0  0  0  0  0  0  0  0  0  0
    0.5312   -2.5660   -0.9700 H   0  0  0  0  0  0  0  0  0  0  0  0
    2.1915   -2.2410   -1.5127 H   0  0  0  0  0  0  0  0  0  0  0  0
    1.8017   -2.2080    0.2164 H   0  0  0  0  0  0  0  0  0  0  0  0
    0.5565   -0.2574   -2.1484 O   0  0  0  0  0  0  0  0  0  0  0  0
    1.1190   -0.6810   -2.8002 H   0  0  0  0  0  0  0  0  0  0  0  0
    0.0097    1.5550    0.1131 C   0  0  0  0  0  0  0  0  0  0  0  0
   -0.7841    2.0378   -0.6944 O   0  0  0  0  0  0  0  0  0  0  0  0
    0.7354    2.3207    0.9399 N   0  0  0  0  0  0  0  0  0  0  0  0
    1.3527    1.8657    1.5921 H   0  0  0  0  0  0  0  0  0  0  0  0
    0.6856    3.7819    0.9507 C   0  0  0  0  0  0  0  0  0  0  0  0
   -0.3485    4.1154    1.0581 H   0  0  0  0  0  0  0  0  0  0  0  0
    1.2773    4.1769    1.7767 H   0  0  0  0  0  0  0  0  0  0  0  0
    1.0774    4.1700    0.0081 H   0  0  0  0  0  0  0  0  0  0  0  0
  5  6  2  0  0  0  0
  5  7  1  0  0  0  0
  2  3  1  0  0  0  0
  2  4  1  0  0  0  0
  2  5  1  0  0  0  0
  1  2  1  0  0  0  0
 19 20  2  0  0  0  0
 19 21  1  0  0  0  0
 17 18  1  0  0  0  0
 13 14  1  0  0  0  0
 13 15  1  0  0  0  0
 13 16  1  0  0  0  0
 11 12  1  0  0  0  0
 11 13  1  0  0  0  0
 11 17  1  0  0  0  0
  9 10  1  0  0  0  0
  9 11  1  0  0  0  0
  9 19  1  0  0  0  0
  7  8  1  0  0  0  0
  7  9  1  0  0  0  0
 23 24  1  0  0  0  0
 23 25  1  0  0  0  0
 23 26  1  0  0  0  0
 21 22  1  0  0  0  0
 21 23  1  0  0  0  0
M  END
$$$$
default_name
  -OEChem-01062215323D

 26 25  0     1  0  0  0  0  0999 V2000
   -2.8882   -3.2497    1.2537 H   0  0  0  0  0  0  0  0  0  0  0  0
   -2.8032   -2.3157    0.7017 C   0  0  0  0  0  0  0  0  0  0  0  0
   -3.5012   -1.5857    1.1067 H   0  0  0  0  0  0  0  0  0  0  0  0
   -3.0182   -2.4907   -0.3513 H   0  0  0  0  0  0  0  0  0  0  0  0
   -1.3942   -1.7897    0.8407 C   0  0  0  0  0  0  0  0  0  0  0  0
   -0.5672   -2.4077    1.5007 O   0  0  0  0  0  0  0  0  0  0  0  0
   -1.1222   -0.6447    0.2217 N   0  0  0  0  0  0  0  0  0  0  0  0
   -1.8592   -0.1777   -0.2863 H   0  0  0  0  0  0  0  0  0  0  0  0
    0.1838    0.0363    0.2367 C   0  0  1  0  0  0  0  0  0  0  0  0
    0.6675   -0.1581    1.1933 H   0  0  0  0  0  0  0  0  0  0  0  0
    1.1147   -0.4840   -0.8779 C   0  0  1  0  0  0  0  0  0  0  0  0
    2.0580    0.0581   -0.8151 H   0  0  0  0  0  0  0  0  0  0  0  0
    1.4288   -1.9757   -0.7815 C   0  0  0  0  0  0  0  0  0  0  0  0
    0.5312   -2.5660   -0.9700 H   0  0  0  0  0  0  0  0  0  0  0  0
    2.1915   -2.2410   -1.5127 H   0  0  0  0  0  0  0  0  0  0  0  0
    1.8017   -2.2080    0.2164 H   0  0  0  0  0  0  0  0  0  0  0  0
    0.5565   -0.2574   -2.1484 O   0  0  0  0  0  0  0  0  0  0  0  0
    1.1190   -0.6810   -2.8002 H   0  0  0  0  0  0  0  0  0  0  0  0
    0.0097    1.5550    0.1131 C   0  0  0  0  0  0  0  0  0  0  0  0
   -0.9564    2.0355   -0.4794 O   0  0  0  0  0  0  0  0  0  0  0  0
    0.9362    2.3244    0.7016 N   0  0  0  0  0  0  0  0  0  0  0  0
    1.6923    1.8718    1.1882 H   0  0  0  0  0  0  0  0  0  0  0  0
    0.9157    3.7861    0.6778 C   0  0  0  0  0  0  0  0  0  0  0  0
   -0.0504    4.1478    1.0356 H   0  0  0  0  0  0  0  0  0  0  0  0
    1.7062    4.1883    1.3117 H   0  0  0  0  0  0  0  0  0  0  0  0
    1.0591    4.1391   -0.3456 H   0  0  0  0  0  0  0  0  0  0  0  0
  5  6  2  0  0  0  0
  5  7  1  0  0  0  0
  2  3  1  0  0  0  0
  2  4  1  0  0  0  0
  2  5  1  0  0  0  0
  1  2  1  0  0  0  0
 19 20  2  0  0  0  0
 19 21  1  0  0  0  0
 17 18  1  0  0  0  0
 13 14  1  0  0  0  0
 13 15  1  0  0  0  0
 13 16  1  0  0  0  0
 11 12  1  0  0  0  0
 11 13  1  0  0  0  0
 11 17  1  0  0  0  0
  9 10  1  0  0  0  0
  9 11  1  0  0  0  0
  9 19  1  0  0  0  0
  7  8  1  0  0  0  0
  7  9  1  0  0  0  0
 23 24  1  0  0  0  0
 23 25  1  0  0  0  0
 23 26  1  0  0  0  0
 21 22  1  0  0  0  0
 21 23  1  0  0  0  0
M  END
$$$$
default_name
  -OEChem-01062215323D

 26 25  0     1  0  0  0  0  0999 V2000
   -2.8882   -3.2497    1.2537 H   0  0  0  0  0  0  0  0  0  0  0  0
   -2.8032   -2.3157    0.7017 C   0  0  0  0  0  0  0  0  0  0  0  0
   -3.5012   -1.5857    1.1067 H   0  0  0  0  0  0  0  0  0  0  0  0
   -3.0182   -2.4907   -0.3513 H   0  0  0  0  0  0  0  0  0  0  0  0
   -1.3942   -1.7897    0.8407 C   0  0  0  0  0  0  0  0  0  0  0  0
   -0.5672   -2.4077    1.5007 O   0  0  0  0  0  0  0  0  0  0  0  0
   -1.1222   -0.6447    0.2217 N   0  0  0  0  0  0  0  0  0  0  0  0
   -1.8592   -0.1777   -0.2863 H   0  0  0  0  0  0  0  0  0  0  0  0
    0.1838    0.0363    0.2367 C   0  0  1  0  0  0  0  0  0  0  0  0
    0.6675   -0.1581    1.1933 H   0  0  0  0  0  0  0  0  0  0  0  0
    1.1147   -0.4840   -0.8779 C   0  0  1  0  0  0  0  0  0  0  0  0
    2.0580    0.0581   -0.8151 H   0  0  0  0  0  0  0  0  0  0  0  0
    1.4288   -1.9757   -0.7815 C   0  0  0  0  0  0  0  0  0  0  0  0
    0.5312   -2.5660   -0.9700 H   0  0  0  0  0  0  0  0  0  0  0  0
    2.1915   -2.2410   -1.5127 H   0  0  0  0  0  0  0  0  0  0  0  0
    1.8017   -2.2080    0.2164 H   0  0  0  0  0  0  0  0  0  0  0  0
    0.5565   -0.2574   -2.1484 O   0  0  0  0  0  0  0  0  0  0  0  0
    1.1190   -0.6810   -2.8002 H   0  0  0  0  0  0  0  0  0  0  0  0
    0.0097    1.5550    0.1131 C   0  0  0  0  0  0  0  0  0  0  0  0
   -1.0678    2.0432   -0.2275 O   0  0  0  0  0  0  0  0  0  0  0  0
    1.0691    2.3167    0.4198 N   0  0  0  0  0  0  0  0  0  0  0  0
    1.9170    1.8587    0.7109 H   0  0  0  0  0  0  0  0  0  0  0  0
    1.0681    3.7773    0.3552 C   0  0  0  0  0  0  0  0  0  0  0  0
    0.2325    4.1721    0.9365 H   0  0  0  0  0  0  0  0  0  0  0  0
    2.0015    4.1766    0.7523 H   0  0  0  0  0  0  0  0  0  0  0  0
    0.9501    4.0992   -0.6817 H   0  0  0  0  0  0  0  0  0  0  0  0
  5  6  2  0  0  0  0
  5  7  1  0  0  0  0
  2  3  1  0  0  0  0
  2  4  1  0  0  0  0
  2  5  1  0  0  0  0
  1  2  1  0  0  0  0
 19 20  2  0  0  0  0
 19 21  1  0  0  0  0
 17 18  1  0  0  0  0
 13 14  1  0  0  0  0
 13 15  1  0  0  0  0
 13 16  1  0  0  0  0
 11 12  1  0  0  0  0
 11 13  1  0  0  0  0
 11 17  1  0  0  0  0
  9 10  1  0  0  0  0
  9 11  1  0  0  0  0
  9 19  1  0  0  0  0
  7  8  1  0  0  0  0
  7  9  1  0  0  0  0
 23 24  1  0  0  0  0
 23 25  1  0  0  0  0
 23 26  1  0  0  0  0
 21 22  1  0  0  0  0
 21 23  1  0  0  0  0
M  END
$$$$
default_name
  -OEChem-01062215323D

 26 25  0     1  0  0  0  0  0999 V2000
   -2.8882   -3.2497    1.2537 H   0  0  0  0  0  0  0  0  0  0  0  0
   -2.8032   -2.3157    0.7017 C   0  0  0  0  0  0  0  0  0  0  0  0
   -3.5012   -1.5857    1.1067 H   0  0  0  0  0  0  0  0  0  0  0  0
   -3.0182   -2.4907   -0.3513 H   0  0  0  0  0  0  0  0  0  0  0  0
   -1.3942   -1.7897    0.8407 C   0  0  0  0  0  0  0  0  0  0  0  0
   -0.5672   -2.4077    1.5007 O   0  0  0  0  0  0  0  0  0  0  0  0
   -1.1222   -0.6447    0.2217 N   0  0  0  0  0  0  0  0  0  0  0  0
   -1.8592   -0.1777   -0.2863 H   0  0  0  0  0  0  0  0  0  0  0  0
    0.1838    0.0363    0.2367 C   0  0  1  0  0  0  0  0  0  0  0  0
    0.7766   -0.3642    1.0583 H   0  0  0  0  0  0  0  0  0  0  0  0
    0.9683   -0.1991   -1.0705 C   0  0  1  0  0  0  0  0  0  0  0  0
    1.9184    0.3298   -0.9980 H   0  0  0  0  0  0  0  0  0  0  0  0
    1.2748   -1.6676   -1.3575 C   0  0  0  0  0  0  0  0  0  0  0  0
    0.3544   -2.2138   -1.5680 H   0  0  0  0  0  0  0  0  0  0  0  0
    1.9412   -1.7454   -2.2156 H   0  0  0  0  0  0  0  0  0  0  0  0
    1.7621   -2.1163   -0.4914 H   0  0  0  0  0  0  0  0  0  0  0  0
    0.2643    0.3036   -2.1791 O   0  0  0  0  0  0  0  0  0  0  0  0
    0.7397    0.0502   -2.9730 H   0  0  0  0  0  0  0  0  0  0  0  0
    0.0133    1.5398    0.4869 C   0  0  0  0  0  0  0  0  0  0  0  0
   -1.1013    2.0289    0.6701 O   0  0  0  0  0  0  0  0  0  0  0  0
    1.1291    2.2814    0.5250 N   0  0  0  0  0  0  0  0  0  0  0  0
    2.0131    1.8198    0.3874 H   0  0  0  0  0  0  0  0  0  0  0  0
    1.1398    3.7255    0.7536 C   0  0  0  0  0  0  0  0  0  0  0  0
    0.5894    3.9589    1.6672 H   0  0  0  0  0  0  0  0  0  0  0  0
    2.1634    4.0882    0.8492 H   0  0  0  0  0  0  0  0  0  0  0  0
    0.6535    4.2334   -0.0819 H   0  0  0  0  0  0  0  0  0  0  0  0
  5  6  2  0  0  0  0
  5  7  1  0  0  0  0
  2  3  1  0  0  0  0
  2  4  1  0  0  0  0
  2  5  1  0  0  0  0
  1  2  1  0  0  0  0
 19 20  2  0  0  0  0
 19 21  1  0  0  0  0
 17 18  1  0  0  0  0
 13 14  1  0  0  0  0
 13 15  1  0  0  0  0
 13 16  1  0  0  0  0
 11 12  1  0  0  0  0
 11 13  1  0  0  0  0
 11 17  1  0  0  0  0
  9 10  1  0  0  0  0
  9 11  1  0  0  0  0
  9 19  1  0  0  0  0
  7  8  1  0  0  0  0
  7  9  1  0  0  0  0
 23 24  1  0  0  0  0
 23 25  1  0  0  0  0
 23 26  1  0  0  0  0
 21 22  1  0  0  0  0
 21 23  1  0  0  0  0
M  END
$$$$
default_name
  -OEChem-01062215323D

 26 25  0     1  0  0  0  0  0999 V2000
   -2.8882   -3.2497    1.2537 H   0  0  0  0  0  0  0  0  0  0  0  0
   -2.8032   -2.3157    0.7017 C   0  0  0  0  0  0  0  0  0  0  0  0
   -3.5012   -1.5857    1.1067 H   0  0  0  0  0  0  0  0  0  0  0  0
   -3.0182   -2.4907   -0.3513 H   0  0  0  0  0  0  0  0  0  0  0  0
   -1.3942   -1.7897    0.8407 C   0  0  0  0  0  0  0  0  0  0  0  0
   -0.5672   -2.4077    1.5007 O   0  0  0  0  0  0  0  0  0  0  0  0
   -1.1222   -0.6447    0.2217 N   0  0  0  0  0  0  0  0  0  0  0  0
   -1.8592   -0.1777   -0.2863 H   0  0  0  0  0  0  0  0  0  0  0  0
    0.1838    0.0363    0.2367 C   0  0  1  0  0  0  0  0  0  0  0  0
    0.7766   -0.3642    1.0583 H   0  0  0  0  0  0  0  0  0  0  0  0
    0.9683   -0.1991   -1.0705 C   0  0  1  0  0  0  0  0  0  0  0  0
    1.9184    0.3298   -0.9980 H   0  0  0  0  0  0  0  0  0  0  0  0
    1.2748   -1.6676   -1.3575 C   0  0  0  0  0  0  0  0  0  0  0  0
    0.3544   -2.2138   -1.5680 H   0  0  0  0  0  0  0  0  0  0  0  0
    1.9412   -1.7454   -2.2156 H   0  0  0  0  0  0  0  0  0  0  0  0
    1.7621   -2.1163   -0.4914 H   0  0  0  0  0  0  0  0  0  0  0  0
    0.2643    0.3036   -2.1791 O   0  0  0  0  0  0  0  0  0  0  0  0
    0.7397    0.0502   -2.9730 H   0  0  0  0  0  0  0  0  0  0  0  0
    0.0133    1.5398    0.4869 C   0  0  0  0  0  0  0  0  0  0  0  0
   -1.0399    1.9916    0.9361 O   0  0  0  0  0  0  0  0  0  0  0  0
    1.0672    2.3247    0.2226 N   0  0  0  0  0  0  0  0  0  0  0  0
    1.9078    1.8930   -0.1245 H   0  0  0  0  0  0  0  0  0  0  0  0
    1.0691    3.7751    0.4072 C   0  0  0  0  0  0  0  0  0  0  0  0
    0.7577    4.0182    1.4251 H   0  0  0  0  0  0  0  0  0  0  0  0
    2.0657    4.1800    0.2309 H   0  0  0  0  0  0  0  0  0  0  0  0
    0.3643    4.2350   -0.2887 H   0  0  0  0  0  0  0  0  0  0  0  0
  5  6  2  0  0  0  0
  5  7  1  0  0  0  0
  2  3  1  0  0  0  0
  2  4  1  0  0  0  0
  2  5  1  0  0  0  0
  1  2  1  0  0  0  0
 19 20  2  0  0  0  0
 19 21  1  0  0  0  0
 17 18  1  0  0  0  0
 13 14  1  0  0  0  0
 13 15  1  0  0  0  0
 13 16  1  0  0  0  0
 11 12  1  0  0  0  0
 11 13  1  0  0  0  0
 11 17  1  0  0  0  0
  9 10  1  0  0  0  0
  9 11  1  0  0  0  0
  9 19  1  0  0  0  0
  7  8  1  0  0  0  0
  7  9  1  0  0  0  0
 23 24  1  0  0  0  0
 23 25  1  0  0  0  0
 23 26  1  0  0  0  0
 21 22  1  0  0  0  0
 21 23  1  0  0  0  0
M  END
$$$$
default_name
  -OEChem-01062215323D

 26 25  0     1  0  0  0  0  0999 V2000
   -2.8882   -3.2497    1.2537 H   0  0  0  0  0  0  0  0  0  0  0  0
   -2.8032   -2.3157    0.7017 C   0  0  0  0  0  0  0  0  0  0  0  0
   -3.5012   -1.5857    1.1067 H   0  0  0  0  0  0  0  0  0  0  0  0
   -3.0182   -2.4907   -0.3513 H   0  0  0  0  0  0  0  0  0  0  0  0
   -1.3942   -1.7897    0.8407 C   0  0  0  0  0  0  0  0  0  0  0  0
   -0.5672   -2.4077    1.5007 O   0  0  0  0  0  0  0  0  0  0  0  0
   -1.1222   -0.6447    0.2217 N   0  0  0  0  0  0  0  0  0  0  0  0
   -1.8592   -0.1777   -0.2863 H   0  0  0  0  0  0  0  0  0  0  0  0
    0.1838    0.0363    0.2367 C   0  0  1  0  0  0  0  0  0  0  0  0
    0.7766   -0.3642    1.0583 H   0  0  0  0  0  0  0  0  0  0  0  0
    0.9683   -0.1991   -1.0705 C   0  0  1  0  0  0  0  0  0  0  0  0
    1.9184    0.3298   -0.9980 H   0  0  0  0  0  0  0  0  0  0  0  0
    1.2748   -1.6676   -1.3575 C   0  0  0  0  0  0  0  0  0  0  0  0
    0.3544   -2.2138   -1.5680 H   0  0  0  0  0  0  0  0  0  0  0  0
    1.9412   -1.7454   -2.2156 H   0  0  0  0  0  0  0  0  0  0  0  0
    1.7621   -2.1163   -0.4914 H   0  0  0  0  0  0  0  0  0  0  0  0
    0.2643    0.3036   -2.1791 O   0  0  0  0  0  0  0  0  0  0  0  0
    0.7397    0.0502   -2.9730 H   0  0  0  0  0  0  0  0  0  0  0  0
    0.0133    1.5398    0.4869 C   0  0  0  0  0  0  0  0  0  0  0  0
   -0.9115    1.9658    1.1785 O   0  0  0  0  0  0  0  0  0  0  0  0
    0.9288    2.3552   -0.0549 N   0  0  0  0  0  0  0  0  0  0  0  0
    1.6730    1.9446   -0.5943 H   0  0  0  0  0  0  0  0  0  0  0  0
    0.9107    3.8100    0.0892 C   0  0  0  0  0  0  0  0  0  0  0  0
    0.8562    4.0757    1.1468 H   0  0  0  0  0  0  0  0  0  0  0  0
    1.8106    4.2468   -0.3443 H   0  0  0  0  0  0  0  0  0  0  0  0
    0.0324    4.2184   -0.4151 H   0  0  0  0  0  0  0  0  0  0  0  0
  5  6  2  0  0  0  0
  5  7  1  0  0  0  0
  2  3  1  0  0  0  0
  2  4  1  0  0  0  0
  2  5  1  0  0  0  0
  1  2  1  0  0  0  0
 19 20  2  0  0  0  0
 19 21  1  0  0  0  0
 17 18  1  0  0  0  0
 13 14  1  0  0  0  0
 13 15  1  0  0  0  0
 13 16  1  0  0  0  0
 11 12  1  0  0  0  0
 11 13  1  0  0  0  0
 11 17  1  0  0  0  0
  9 10  1  0  0  0  0
  9 11  1  0  0  0  0
  9 19  1  0  0  0  0
  7  8  1  0  0  0  0
  7  9  1  0  0  0  0
 23 24  1  0  0  0  0
 23 25  1  0  0  0  0
 23 26  1  0  0  0  0
 21 22  1  0  0  0  0
 21 23  1  0  0  0  0
M  END
$$$$
default_name
  -OEChem-01062215323D

 26 25  0     1  0  0  0  0  0999 V2000
   -2.8882   -3.2497    1.2537 H   0  0  0  0  0  0  0  0  0  0  0  0
   -2.8032   -2.3157    0.7017 C   0  0  0  0  0  0  0  0  0  0  0  0
   -3.5012   -1.5857    1.1067 H   0  0  0  0  0  0  0  0  0  0  0  0
   -3.0182   -2.4907   -0.3513 H   0  0  0  0  0  0  0  0  0  0  0  0
   -1.3942   -1.7897    0.8407 C   0  0  0  0  0  0  0  0  0  0  0  0
   -0.5672   -2.4077    1.5007 O   0  0  0  0  0  0  0  0  0  0  0  0
   -1.1222   -0.6447    0.2217 N   0  0  0  0  0  0  0  0  0  0  0  0
   -1.8592   -0.1777   -0.2863 H   0  0  0  0  0  0  0  0  0  0  0  0
    0.1838    0.0363    0.2367 C   0  0  1  0  0  0  0  0  0  0  0  0
    0.7766   -0.3642    1.0583 H   0  0  0  0  0  0  0  0  0  0  0  0
    0.9683   -0.1991   -1.0705 C   0  0  1  0  0  0  0  0  0  0  0  0
    1.9184    0.3298   -0.9980 H   0  0  0  0  0  0  0  0  0  0  0  0
    1.2748   -1.6676   -1.3575 C   0  0  0  0  0  0  0  0  0  0  0  0
    0.3544   -2.2138   -1.5680 H   0  0  0  0  0  0  0  0  0  0  0  0
    1.9412   -1.7454   -2.2156 H   0  0  0  0  0  0  0  0  0  0  0  0
    1.7621   -2.1163   -0.4914 H   0  0  0  0  0  0  0  0  0  0  0  0
    0.2643    0.3036   -2.1791 O   0  0  0  0  0  0  0  0  0  0  0  0
    0.7397    0.0502   -2.9730 H   0  0  0  0  0  0  0  0  0  0  0  0
    0.0133    1.5398    0.4869 C   0  0  0  0  0  0  0  0  0  0  0  0
   -0.7249    1.9533    1.3809 O   0  0  0  0  0  0  0  0  0  0  0  0
    0.7234    2.3708   -0.2888 N   0  0  0  0  0  0  0  0  0  0  0  0
    1.3249    1.9710   -0.9901 H   0  0  0  0  0  0  0  0  0  0  0  0
    0.6756    3.8280   -0.1788 C   0  0  0  0  0  0  0  0  0  0  0  0
    0.8784    4.1274    0.8514 H   0  0  0  0  0  0  0  0  0  0  0  0
    1.4154    4.2839   -0.8370 H   0  0  0  0  0  0  0  0  0  0  0  0
   -0.3196    4.1847   -0.4525 H   0  0  0  0  0  0  0  0  0  0  0  0
  5  6  2  0  0  0  0
  5  7  1  0  0  0  0
  2  3  1  0  0  0  0
  2  4  1  0  0  0  0
  2  5  1  0  0  0  0
  1  2  1  0  0  0  0
 19 20  2  0  0  0  0
 19 21  1  0  0  0  0
 17 18  1  0  0  0  0
 13 14  1  0  0  0  0
 13 15  1  0  0  0  0
 13 16  1  0  0  0  0
 11 12  1  0  0  0  0
 11 13  1  0  0  0  0
 11 17  1  0  0  0  0
  9 10  1  0  0  0  0
  9 11  1  0  0  0  0
  9 19  1  0  0  0  0
  7  8  1  0  0  0  0
  7  9  1  0  0  0  0
 23 24  1  0  0  0  0
 23 25  1  0  0  0  0
 23 26  1  0  0  0  0
 21 22  1  0  0  0  0
 21 23  1  0  0  0  0
M  END
$$$$
default_name
  -OEChem-01062215323D

 26 25  0     1  0  0  0  0  0999 V2000
   -2.8882   -3.2497    1.2537 H   0  0  0  0  0  0  0  0  0  0  0  0
   -2.8032   -2.3157    0.7017 C   0  0  0  0  0  0  0  0  0  0  0  0
   -3.5012   -1.5857    1.1067 H   0  0  0  0  0  0  0  0  0  0  0  0
   -3.0182   -2.4907   -0.3513 H   0  0  0  0  0  0  0  0  0  0  0  0
   -1.3942   -1.7897    0.8407 C   0  0  0  0  0  0  0  0  0  0  0  0
   -0.5672   -2.4077    1.5007 O   0  0  0  0  0  0  0  0  0  0  0  0
   -1.1222   -0.6447    0.2217 N   0  0  0  0  0  0  0  0  0  0  0  0
   -1.8592   -0.1777   -0.2863 H   0  0  0  0  0  0  0  0  0  0  0  0
    0.1838    0.0363    0.2367 C   0  0  1  0  0  0  0  0  0  0  0  0
    0.7766   -0.3642    1.0583 H   0  0  0  0  0  0  0  0  0  0  0  0
    0.9683   -0.1991   -1.0705 C   0  0  1  0  0  0  0  0  0  0  0  0
    1.9184    0.3298   -0.9980 H   0  0  0  0  0  0  0  0  0  0  0  0
    1.2748   -1.6676   -1.3575 C   0  0  0  0  0  0  0  0  0  0  0  0
    0.3544   -2.2138   -1.5680 H   0  0  0  0  0  0  0  0  0  0  0  0
    1.9412   -1.7454   -2.2156 H   0  0  0  0  0  0  0  0  0  0  0  0
    1.7621   -2.1163   -0.4914 H   0  0  0  0  0  0  0  0  0  0  0  0
    0.2643    0.3036   -2.1791 O   0  0  0  0  0  0  0  0  0  0  0  0
    0.7397    0.0502   -2.9730 H   0  0  0  0  0  0  0  0  0  0  0  0
    0.0133    1.5398    0.4869 C   0  0  0  0  0  0  0  0  0  0  0  0
   -0.4928    1.9549    1.5294 O   0  0  0  0  0  0  0  0  0  0  0  0
    0.4650    2.3705   -0.4631 N   0  0  0  0  0  0  0  0  0  0  0  0
    0.8872    1.9703   -1.2847 H   0  0  0  0  0  0  0  0  0  0  0  0
    0.3797    3.8276   -0.3785 C   0  0  0  0  0  0  0  0  0  0  0  0
    0.8227    4.1697    0.5589 H   0  0  0  0  0  0  0  0  0  0  0  0
    0.9071    4.2890   -1.2137 H   0  0  0  0  0  0  0  0  0  0  0  0
   -0.6677    4.1363   -0.3984 H   0  0  0  0  0  0  0  0  0  0  0  0
  5  6  2  0  0  0  0
  5  7  1  0  0  0  0
  2  3  1  0  0  0  0
  2  4  1  0  0  0  0
  2  5  1  0  0  0  0
  1  2  1  0  0  0  0
 19 20  2  0  0  0  0
 19 21  1  0  0  0  0
 17 18  1  0  0  0  0
 13 14  1  0  0  0  0
 13 15  1  0  0  0  0
 13 16  1  0  0  0  0
 11 12  1  0  0  0  0
 11 13  1  0  0  0  0
 11 17  1  0  0  0  0
  9 10  1  0  0  0  0
  9 11  1  0  0  0  0
  9 19  1  0  0  0  0
  7  8  1  0  0  0  0
  7  9  1  0  0  0  0
 23 24  1  0  0  0  0
 23 25  1  0  0  0  0
 23 26  1  0  0  0  0
 21 22  1  0  0  0  0
 21 23  1  0  0  0  0
M  END
$$$$
default_name
  -OEChem-01062215323D

 26 25  0     1  0  0  0  0  0999 V2000
   -2.8882   -3.2497    1.2537 H   0  0  0  0  0  0  0  0  0  0  0  0
   -2.8032   -2.3157    0.7017 C   0  0  0  0  0  0  0  0  0  0  0  0
   -3.5012   -1.5857    1.1067 H   0  0  0  0  0  0  0  0  0  0  0  0
   -3.0182   -2.4907   -0.3513 H   0  0  0  0  0  0  0  0  0  0  0  0
   -1.3942   -1.7897    0.8407 C   0  0  0  0  0  0  0  0  0  0  0  0
   -0.5672   -2.4077    1.5007 O   0  0  0  0  0  0  0  0  0  0  0  0
   -1.1222   -0.6447    0.2217 N   0  0  0  0  0  0  0  0  0  0  0  0
   -1.8592   -0.1777   -0.2863 H   0  0  0  0  0  0  0  0  0  0  0  0
    0.1838    0.0363    0.2367 C   0  0  1  0  0  0  0  0  0  0  0  0
    0.7766   -0.3642    1.0583 H   0  0  0  0  0  0  0  0  0  0  0  0
    0.9683   -0.1991   -1.0705 C   0  0  1  0  0  0  0  0  0  0  0  0
    1.9184    0.3298   -0.9980 H   0  0  0  0  0  0  0  0  0  0  0  0
    1.2748   -1.6676   -1.3575 C   0  0  0  0  0  0  0  0  0  0  0  0
    0.3544   -2.2138   -1.5680 H   0  0  0  0  0  0  0  0  0  0  0  0
    1.9412   -1.7454   -2.2156 H   0  0  0  0  0  0  0  0  0  0  0  0
    1.7621   -2.1163   -0.4914 H   0  0  0  0  0  0  0  0  0  0  0  0
    0.2643    0.3036   -2.1791 O   0  0  0  0  0  0  0  0  0  0  0  0
    0.7397    0.0502   -2.9730 H   0  0  0  0  0  0  0  0  0  0  0  0
    0.0133    1.5398    0.4869 C   0  0  0  0  0  0  0  0  0  0  0  0
   -0.2310    1.9705    1.6138 O   0  0  0  0  0  0  0  0  0  0  0  0
    0.1712    2.3543   -0.5658 N   0  0  0  0  0  0  0  0  0  0  0  0
    0.3896    1.9428   -1.4583 H   0  0  0  0  0  0  0  0  0  0  0  0
    0.0432    3.8091   -0.4964 C   0  0  0  0  0  0  0  0  0  0  0  0
    0.6929    4.1999    0.2893 H   0  0  0  0  0  0  0  0  0  0  0  0
    0.3203    4.2616   -1.4487 H   0  0  0  0  0  0  0  0  0  0  0  0
   -0.9881    4.0763   -0.2564 H   0  0  0  0  0  0  0  0  0  0  0  0
  5  6  2  0  0  0  0
  5  7  1  0  0  0  0
  2  3  1  0  0  0  0
  2  4  1  0  0  0  0
  2  5  1  0  0  0  0
  1  2  1  0  0  0  0
 19 20  2  0  0  0  0
 19 21  1  0  0  0  0
 17 18  1  0  0  0  0
 13 14  1  0  0  0  0
 13 15  1  0  0  0  0
 13 16  1  0  0  0  0
 11 12  1  0  0  0  0
 11 13  1  0  0  0  0
 11 17  1  0  0  0  0
  9 10  1  0  0  0  0
  9 11  1  0  0  0  0
  9 19  1  0  0  0  0
  7  8  1  0  0  0  0
  7  9  1  0  0  0  0
 23 24  1  0  0  0  0
 23 25  1  0  0  0  0
 23 26  1  0  0  0  0
 21 22  1  0  0  0  0
 21 23  1  0  0  0  0
M  END
$$$$
default_name
  -OEChem-01062215323D

 26 25  0     1  0  0  0  0  0999 V2000
   -2.8882   -3.2497    1.2537 H   0  0  0  0  0  0  0  0  0  0  0  0
   -2.8032   -2.3157    0.7017 C   0  0  0  0  0  0  0  0  0  0  0  0
   -3.5012   -1.5857    1.1067 H   0  0  0  0  0  0  0  0  0  0  0  0
   -3.0182   -2.4907   -0.3513 H   0  0  0  0  0  0  0  0  0  0  0  0
   -1.3942   -1.7897    0.8407 C   0  0  0  0  0  0  0  0  0  0  0  0
   -0.5672   -2.4077    1.5007 O   0  0  0  0  0  0  0  0  0  0  0  0
   -1.1222   -0.6447    0.2217 N   0  0  0  0  0  0  0  0  0  0  0  0
   -1.8592   -0.1777   -0.2863 H   0  0  0  0  0  0  0  0  0  0  0  0
    0.1838    0.0363    0.2367 C   0  0  1  0  0  0  0  0  0  0  0  0
    0.7766   -0.3642    1.0583 H   0  0  0  0  0  0  0  0  0  0  0  0
    0.9683   -0.1991   -1.0705 C   0  0  1  0  0  0  0  0  0  0  0  0
    1.9184    0.3298   -0.9980 H   0  0  0  0  0  0  0  0  0  0  0  0
    1.2748   -1.6676   -1.3575 C   0  0  0  0  0  0  0  0  0  0  0  0
    0.3544   -2.2138   -1.5680 H   0  0  0  0  0  0  0  0  0  0  0  0
    1.9412   -1.7454   -2.2156 H   0  0  0  0  0  0  0  0  0  0  0  0
    1.7621   -2.1163   -0.4914 H   0  0  0  0  0  0  0  0  0  0  0  0
    0.2643    0.3036   -2.1791 O   0  0  0  0  0  0  0  0  0  0  0  0
    0.7397    0.0502   -2.9730 H   0  0  0  0  0  0  0  0  0  0  0  0
    0.0133    1.5398    0.4869 C   0  0  0  0  0  0  0  0  0  0  0  0
    0.0427    1.9991    1.6285 O   0  0  0  0  0  0  0  0  0  0  0  0
   -0.1380    2.3233   -0.5901 N   0  0  0  0  0  0  0  0  0  0  0  0
   -0.1339    1.8902   -1.4988 H   0  0  0  0  0  0  0  0  0  0  0  0
   -0.3109    3.7736   -0.5243 C   0  0  0  0  0  0  0  0  0  0  0  0
    0.4978    4.2157    0.0610 H   0  0  0  0  0  0  0  0  0  0  0  0
   -0.3049    4.2035   -1.5261 H   0  0  0  0  0  0  0  0  0  0  0  0
   -1.2590    4.0089   -0.0362 H   0  0  0  0  0  0  0  0  0  0  0  0
  5  6  2  0  0  0  0
  5  7  1  0  0  0  0
  2  3  1  0  0  0  0
  2  4  1  0  0  0  0
  2  5  1  0  0  0  0
  1  2  1  0  0  0  0
 19 20  2  0  0  0  0
 19 21  1  0  0  0  0
 17 18  1  0  0  0  0
 13 14  1  0  0  0  0
 13 15  1  0  0  0  0
 13 16  1  0  0  0  0
 11 12  1  0  0  0  0
 11 13  1  0  0  0  0
 11 17  1  0  0  0  0
  9 10  1  0  0  0  0
  9 11  1  0  0  0  0
  9 19  1  0  0  0  0
  7  8  1  0  0  0  0
  7  9  1  0  0  0  0
 23 24  1  0  0  0  0
 23 25  1  0  0  0  0
 23 26  1  0  0  0  0
 21 22  1  0  0  0  0
 21 23  1  0  0  0  0
M  END
$$$$
default_name
  -OEChem-01062215323D

 26 25  0     1  0  0  0  0  0999 V2000
   -2.8882   -3.2497    1.2537 H   0  0  0  0  0  0  0  0  0  0  0  0
   -2.8032   -2.3157    0.7017 C   0  0  0  0  0  0  0  0  0  0  0  0
   -3.5012   -1.5857    1.1067 H   0  0  0  0  0  0  0  0  0  0  0  0
   -3.0182   -2.4907   -0.3513 H   0  0  0  0  0  0  0  0  0  0  0  0
   -1.3942   -1.7897    0.8407 C   0  0  0  0  0  0  0  0  0  0  0  0
   -0.5672   -2.4077    1.5007 O   0  0  0  0  0  0  0  0  0  0  0  0
   -1.1222   -0.6447    0.2217 N   0  0  0  0  0  0  0  0  0  0  0  0
   -1.8592   -0.1777   -0.2863 H   0  0  0  0  0  0  0  0  0  0  0  0
    0.1838    0.0363    0.2367 C   0  0  1  0  0  0  0  0  0  0  0  0
    0.7766   -0.3642    1.0583 H   0  0  0  0  0  0  0  0  0  0  0  0
    0.9683   -0.1991   -1.0705 C   0  0  1  0  0  0  0  0  0  0  0  0
    1.9184    0.3298   -0.9980 H   0  0  0  0  0  0  0  0  0  0  0  0
    1.2748   -1.6676   -1.3575 C   0  0  0  0  0  0  0  0  0  0  0  0
    0.3544   -2.2138   -1.5680 H   0  0  0  0  0  0  0  0  0  0  0  0
    1.9412   -1.7454   -2.2156 H   0  0  0  0  0  0  0  0  0  0  0  0
    1.7621   -2.1163   -0.4914 H   0  0  0  0  0  0  0  0  0  0  0  0
    0.2643    0.3036   -2.1791 O   0  0  0  0  0  0  0  0  0  0  0  0
    0.7397    0.0502   -2.9730 H   0  0  0  0  0  0  0  0  0  0  0  0
    0.0133    1.5398    0.4869 C   0  0  0  0  0  0  0  0  0  0  0  0
    0.3096    2.0387    1.5725 O   0  0  0  0  0  0  0  0  0  0  0  0
   -0.4415    2.2795   -0.5341 N   0  0  0  0  0  0  0  0  0  0  0  0
   -0.6477    1.8161   -1.4037 H   0  0  0  0  0  0  0  0  0  0  0  0
   -0.6585    3.7235   -0.4604 C   0  0  0  0  0  0  0  0  0  0  0  0
    0.2508    4.2163   -0.1106 H   0  0  0  0  0  0  0  0  0  0  0  0
   -0.9261    4.1188   -1.4405 H   0  0  0  0  0  0  0  0  0  0  0  0
   -1.4620    3.9388    0.2472 H   0  0  0  0  0  0  0  0  0  0  0  0
  5  6  2  0  0  0  0
  5  7  1  0  0  0  0
  2  3  1  0  0  0  0
  2  4  1  0  0  0  0
  2  5  1  0  0  0  0
  1  2  1  0  0  0  0
 19 20  2  0  0  0  0
 19 21  1  0  0  0  0
 17 18  1  0  0  0  0
 13 14  1  0  0  0  0
 13 15  1  0  0  0  0
 13 16  1  0  0  0  0
 11 12  1  0  0  0  0
 11 13  1  0  0  0  0
 11 17  1  0  0  0  0
  9 10  1  0  0  0  0
  9 11  1  0  0  0  0
  9 19  1  0  0  0  0
  7  8  1  0  0  0  0
  7  9  1  0  0  0  0
 23 24  1  0  0  0  0
 23 25  1  0  0  0  0
 23 26  1  0  0  0  0
 21 22  1  0  0  0  0
 21 23  1  0  0  0  0
M  END
$$$$
default_name
  -OEChem-01062215323D

 26 25  0     1  0  0  0  0  0999 V2000
   -2.8882   -3.2497    1.2537 H   0  0  0  0  0  0  0  0  0  0  0  0
   -2.8032   -2.3157    0.7017 C   0  0  0  0  0  0  0  0  0  0  0  0
   -3.5012   -1.5857    1.1067 H   0  0  0  0  0  0  0  0  0  0  0  0
   -3.0182   -2.4907   -0.3513 H   0  0  0  0  0  0  0  0  0  0  0  0
   -1.3942   -1.7897    0.8407 C   0  0  0  0  0  0  0  0  0  0  0  0
   -0.5672   -2.4077    1.5007 O   0  0  0  0  0  0  0  0  0  0  0  0
   -1.1222   -0.6447    0.2217 N   0  0  0  0  0  0  0  0  0  0  0  0
   -1.8592   -0.1777   -0.2863 H   0  0  0  0  0  0  0  0  0  0  0  0
    0.1838    0.0363    0.2367 C   0  0  1  0  0  0  0  0  0  0  0  0
    0.7766   -0.3642    1.0583 H   0  0  0  0  0  0  0  0  0  0  0  0
    0.9683   -0.1991   -1.0705 C   0  0  1  0  0  0  0  0  0  0  0  0
    1.9184    0.3298   -0.9980 H   0  0  0  0  0  0  0  0  0  0  0  0
    1.2748   -1.6676   -1.3575 C   0  0  0  0  0  0  0  0  0  0  0  0
    0.3544   -2.2138   -1.5680 H   0  0  0  0  0  0  0  0  0  0  0  0
    1.9412   -1.7454   -2.2156 H   0  0  0  0  0  0  0  0  0  0  0  0
    1.7621   -2.1163   -0.4914 H   0  0  0  0  0  0  0  0  0  0  0  0
    0.2643    0.3036   -2.1791 O   0  0  0  0  0  0  0  0  0  0  0  0
    0.7397    0.0502   -2.9730 H   0  0  0  0  0  0  0  0  0  0  0  0
    0.0133    1.5398    0.4869 C   0  0  0  0  0  0  0  0  0  0  0  0
    0.5515    2.0866    1.4495 O   0  0  0  0  0  0  0  0  0  0  0  0
   -0.7186    2.2261   -0.4018 N   0  0  0  0  0  0  0  0  0  0  0  0
   -1.1167    1.7256   -1.1793 H   0  0  0  0  0  0  0  0  0  0  0  0
   -0.9760    3.6624   -0.3091 C   0  0  0  0  0  0  0  0  0  0  0  0
   -0.0313    4.2014   -0.2136 H   0  0  0  0  0  0  0  0  0  0  0  0
   -1.5008    4.0133   -1.1978 H   0  0  0  0  0  0  0  0  0  0  0  0
   -1.5832    3.8706    0.5744 H   0  0  0  0  0  0  0  0  0  0  0  0
  5  6  2  0  0  0  0
  5  7  1  0  0  0  0
  2  3  1  0  0  0  0
  2  4  1  0  0  0  0
  2  5  1  0  0  0  0
  1  2  1  0  0  0  0
 19 20  2  0  0  0  0
 19 21  1  0  0  0  0
 17 18  1  0  0  0  0
 13 14  1  0  0  0  0
 13 15  1  0  0  0  0
 13 16  1  0  0  0  0
 11 12  1  0  0  0  0
 11 13  1  0  0  0  0
 11 17  1  0  0  0  0
  9 10  1  0  0  0  0
  9 11  1  0  0  0  0
  9 19  1  0  0  0  0
  7  8  1  0  0  0  0
  7  9  1  0  0  0  0
 23 24  1  0  0  0  0
 23 25  1  0  0  0  0
 23 26  1  0  0  0  0
 21 22  1  0  0  0  0
 21 23  1  0  0  0  0
M  END
$$$$
default_name
  -OEChem-01062215323D

 26 25  0     1  0  0  0  0  0999 V2000
   -2.8882   -3.2497    1.2537 H   0  0  0  0  0  0  0  0  0  0  0  0
   -2.8032   -2.3157    0.7017 C   0  0  0  0  0  0  0  0  0  0  0  0
   -3.5012   -1.5857    1.1067 H   0  0  0  0  0  0  0  0  0  0  0  0
   -3.0182   -2.4907   -0.3513 H   0  0  0  0  0  0  0  0  0  0  0  0
   -1.3942   -1.7897    0.8407 C   0  0  0  0  0  0  0  0  0  0  0  0
   -0.5672   -2.4077    1.5007 O   0  0  0  0  0  0  0  0  0  0  0  0
   -1.1222   -0.6447    0.2217 N   0  0  0  0  0  0  0  0  0  0  0  0
   -1.8592   -0.1777   -0.2863 H   0  0  0  0  0  0  0  0  0  0  0  0
    0.1838    0.0363    0.2367 C   0  0  1  0  0  0  0  0  0  0  0  0
    0.7766   -0.3642    1.0583 H   0  0  0  0  0  0  0  0  0  0  0  0
    0.9683   -0.1991   -1.0705 C   0  0  1  0  0  0  0  0  0  0  0  0
    1.9184    0.3298   -0.9980 H   0  0  0  0  0  0  0  0  0  0  0  0
    1.2748   -1.6676   -1.3575 C   0  0  0  0  0  0  0  0  0  0  0  0
    0.3544   -2.2138   -1.5680 H   0  0  0  0  0  0  0  0  0  0  0  0
    1.9412   -1.7454   -2.2156 H   0  0  0  0  0  0  0  0  0  0  0  0
    1.7621   -2.1163   -0.4914 H   0  0  0  0  0  0  0  0  0  0  0  0
    0.2643    0.3036   -2.1791 O   0  0  0  0  0  0  0  0  0  0  0  0
    0.7397    0.0502   -2.9730 H   0  0  0  0  0  0  0  0  0  0  0  0
    0.0133    1.5398    0.4869 C   0  0  0  0  0  0  0  0  0  0  0  0
    0.7519    2.1396    1.2679 O   0  0  0  0  0  0  0  0  0  0  0  0
   -0.9504    2.1666   -0.2022 N   0  0  0  0  0  0  0  0  0  0  0  0
   -1.5089    1.6248   -0.8410 H   0  0  0  0  0  0  0  0  0  0  0  0
   -1.2416    3.5942   -0.0805 C   0  0  0  0  0  0  0  0  0  0  0  0
   -0.3294    4.1722   -0.2411 H   0  0  0  0  0  0  0  0  0  0  0  0
   -1.9898    3.8941   -0.8145 H   0  0  0  0  0  0  0  0  0  0  0  0
   -1.6144    3.8090    0.9232 H   0  0  0  0  0  0  0  0  0  0  0  0
  5  6  2  0  0  0  0
  5  7  1  0  0  0  0
  2  3  1  0  0  0  0
  2  4  1  0  0  0  0
  2  5  1  0  0  0  0
  1  2  1  0  0  0  0
 19 20  2  0  0  0  0
 19 21  1  0  0  0  0
 17 18  1  0  0  0  0
 13 14  1  0  0  0  0
 13 15  1  0  0  0  0
 13 16  1  0  0  0  0
 11 12  1  0  0  0  0
 11 13  1  0  0  0  0
 11 17  1  0  0  0  0
  9 10  1  0  0  0  0
  9 11  1  0  0  0  0
  9 19  1  0  0  0  0
  7  8  1  0  0  0  0
  7  9  1  0  0  0  0
 23 24  1  0  0  0  0
 23 25  1  0  0  0  0
 23 26  1  0  0  0  0
 21 22  1  0  0  0  0
 21 23  1  0  0  0  0
M  END
$$$$
default_name
  -OEChem-01062215323D

 26 25  0     1  0  0  0  0  0999 V2000
   -2.8882   -3.2497    1.2537 H   0  0  0  0  0  0  0  0  0  0  0  0
   -2.8032   -2.3157    0.7017 C   0  0  0  0  0  0  0  0  0  0  0  0
   -3.5012   -1.5857    1.1067 H   0  0  0  0  0  0  0  0  0  0  0  0
   -3.0182   -2.4907   -0.3513 H   0  0  0  0  0  0  0  0  0  0  0  0
   -1.3942   -1.7897    0.8407 C   0  0  0  0  0  0  0  0  0  0  0  0
   -0.5672   -2.4077    1.5007 O   0  0  0  0  0  0  0  0  0  0  0  0
   -1.1222   -0.6447    0.2217 N   0  0  0  0  0  0  0  0  0  0  0  0
   -1.8592   -0.1777   -0.2863 H   0  0  0  0  0  0  0  0  0  0  0  0
    0.1838    0.0363    0.2367 C   0  0  1  0  0  0  0  0  0  0  0  0
    0.7766   -0.3642    1.0583 H   0  0  0  0  0  0  0  0  0  0  0  0
    0.9683   -0.1991   -1.0705 C   0  0  1  0  0  0  0  0  0  0  0  0
    1.9184    0.3298   -0.9980 H   0  0  0  0  0  0  0  0  0  0  0  0
    1.2748   -1.6676   -1.3575 C   0  0  0  0  0  0  0  0  0  0  0  0
    0.3544   -2.2138   -1.5680 H   0  0  0  0  0  0  0  0  0  0  0  0
    1.9412   -1.7454   -2.2156 H   0  0  0  0  0  0  0  0  0  0  0  0
    1.7621   -2.1163   -0.4914 H   0  0  0  0  0  0  0  0  0  0  0  0
    0.2643    0.3036   -2.1791 O   0  0  0  0  0  0  0  0  0  0  0  0
    0.7397    0.0502   -2.9730 H   0  0  0  0  0  0  0  0  0  0  0  0
    0.0133    1.5398    0.4869 C   0  0  0  0  0  0  0  0  0  0  0  0
    0.8972    2.1939    1.0402 O   0  0  0  0  0  0  0  0  0  0  0  0
   -1.1212    2.1051    0.0511 N   0  0  0  0  0  0  0  0  0  0  0  0
   -1.7977    1.5206   -0.4118 H   0  0  0  0  0  0  0  0  0  0  0  0
   -1.4374    3.5237    0.2095 C   0  0  0  0  0  0  0  0  0  0  0  0
   -0.6230    4.1306   -0.1912 H   0  0  0  0  0  0  0  0  0  0  0  0
   -2.3600    3.7693   -0.3168 H   0  0  0  0  0  0  0  0  0  0  0  0
   -1.5534    3.7582    1.2698 H   0  0  0  0  0  0  0  0  0  0  0  0
  5  6  2  0  0  0  0
  5  7  1  0  0  0  0
  2  3  1  0  0  0  0
  2  4  1  0  0  0  0
  2  5  1  0  0  0  0
  1  2  1  0  0  0  0
 19 20  2  0  0  0  0
 19 21  1  0  0  0  0
 17 18  1  0  0  0  0
 13 14  1  0  0  0  0
 13 15  1  0  0  0  0
 13 16  1  0  0  0  0
 11 12  1  0  0  0  0
 11 13  1  0  0  0  0
 11 17  1  0  0  0  0
  9 10  1  0  0  0  0
  9 11  1  0  0  0  0
  9 19  1  0  0  0  0
  7  8  1  0  0  0  0
  7  9  1  0  0  0  0
 23 24  1  0  0  0  0
 23 25  1  0  0  0  0
 23 26  1  0  0  0  0
 21 22  1  0  0  0  0
 21 23  1  0  0  0  0
M  END
$$$$
default_name
  -OEChem-01062215323D

 26 25  0     1  0  0  0  0  0999 V2000
   -2.8882   -3.2497    1.2537 H   0  0  0  0  0  0  0  0  0  0  0  0
   -2.8032   -2.3157    0.7017 C   0  0  0  0  0  0  0  0  0  0  0  0
   -3.5012   -1.5857    1.1067 H   0  0  0  0  0  0  0  0  0  0  0  0
   -3.0182   -2.4907   -0.3513 H   0  0  0  0  0  0  0  0  0  0  0  0
   -1.3942   -1.7897    0.8407 C   0  0  0  0  0  0  0  0  0  0  0  0
   -0.5672   -2.4077    1.5007 O   0  0  0  0  0  0  0  0  0  0  0  0
   -1.1222   -0.6447    0.2217 N   0  0  0  0  0  0  0  0  0  0  0  0
   -1.8592   -0.1777   -0.2863 H   0  0  0  0  0  0  0  0  0  0  0  0
    0.1838    0.0363    0.2367 C   0  0  1  0  0  0  0  0  0  0  0  0
    0.7766   -0.3642    1.0583 H   0  0  0  0  0  0  0  0  0  0  0  0
    0.9683   -0.1991   -1.0705 C   0  0  1  0  0  0  0  0  0  0  0  0
    1.9184    0.3298   -0.9980 H   0  0  0  0  0  0  0  0  0  0  0  0
    1.2748   -1.6676   -1.3575 C   0  0  0  0  0  0  0  0  0  0  0  0
    0.3544   -2.2138   -1.5680 H   0  0  0  0  0  0  0  0  0  0  0  0
    1.9412   -1.7454   -2.2156 H   0  0  0  0  0  0  0  0  0  0  0  0
    1.7621   -2.1163   -0.4914 H   0  0  0  0  0  0  0  0  0  0  0  0
    0.2643    0.3036   -2.1791 O   0  0  0  0  0  0  0  0  0  0  0  0
    0.7397    0.0502   -2.9730 H   0  0  0  0  0  0  0  0  0  0  0  0
    0.0133    1.5398    0.4869 C   0  0  0  0  0  0  0  0  0  0  0  0
    0.9774    2.2460    0.7818 O   0  0  0  0  0  0  0  0  0  0  0  0
   -1.2193    2.0457    0.3410 N   0  0  0  0  0  0  0  0  0  0  0  0
   -1.9633    1.4202    0.0791 H   0  0  0  0  0  0  0  0  0  0  0  0
   -1.5499    3.4558    0.5414 C   0  0  0  0  0  0  0  0  0  0  0  0
   -0.8922    4.0794   -0.0673 H   0  0  0  0  0  0  0  0  0  0  0  0
   -2.5859    3.6474    0.2615 H   0  0  0  0  0  0  0  0  0  0  0  0
   -1.4044    3.7218    1.5906 H   0  0  0  0  0  0  0  0  0  0  0  0
  5  6  2  0  0  0  0
  5  7  1  0  0  0  0
  2  3  1  0  0  0  0
  2  4  1  0  0  0  0
  2  5  1  0  0  0  0
  1  2  1  0  0  0  0
 19 20  2  0  0  0  0
 19 21  1  0  0  0  0
 17 18  1  0  0  0  0
 13 14  1  0  0  0  0
 13 15  1  0  0  0  0
 13 16  1  0  0  0  0
 11 12  1  0  0  0  0
 11 13  1  0  0  0  0
 11 17  1  0  0  0  0
  9 10  1  0  0  0  0
  9 11  1  0  0  0  0
  9 19  1  0  0  0  0
  7  8  1  0  0  0  0
  7  9  1  0  0  0  0
 23 24  1  0  0  0  0
 23 25  1  0  0  0  0
 23 26  1  0  0  0  0
 21 22  1  0  0  0  0
 21 23  1  0  0  0  0
M  END
$$$$
default_name
  -OEChem-01062215323D

 26 25  0     1  0  0  0  0  0999 V2000
   -2.8882   -3.2497    1.2537 H   0  0  0  0  0  0  0  0  0  0  0  0
   -2.8032   -2.3157    0.7017 C   0  0  0  0  0  0  0  0  0  0  0  0
   -3.5012   -1.5857    1.1067 H   0  0  0  0  0  0  0  0  0  0  0  0
   -3.0182   -2.4907   -0.3513 H   0  0  0  0  0  0  0  0  0  0  0  0
   -1.3942   -1.7897    0.8407 C   0  0  0  0  0  0  0  0  0  0  0  0
   -0.5672   -2.4077    1.5007 O   0  0  0  0  0  0  0  0  0  0  0  0
   -1.1222   -0.6447    0.2217 N   0  0  0  0  0  0  0  0  0  0  0  0
   -1.8592   -0.1777   -0.2863 H   0  0  0  0  0  0  0  0  0  0  0  0
    0.1838    0.0363    0.2367 C   0  0  1  0  0  0  0  0  0  0  0  0
    0.7766   -0.3642    1.0583 H   0  0  0  0  0  0  0  0  0  0  0  0
    0.9683   -0.1991   -1.0705 C   0  0  1  0  0  0  0  0  0  0  0  0
    1.9184    0.3298   -0.9980 H   0  0  0  0  0  0  0  0  0  0  0  0
    1.2748   -1.6676   -1.3575 C   0  0  0  0  0  0  0  0  0  0  0  0
    0.3544   -2.2138   -1.5680 H   0  0  0  0  0  0  0  0  0  0  0  0
    1.9412   -1.7454   -2.2156 H   0  0  0  0  0  0  0  0  0  0  0  0
    1.7621   -2.1163   -0.4914 H   0  0  0  0  0  0  0  0  0  0  0  0
    0.2643    0.3036   -2.1791 O   0  0  0  0  0  0  0  0  0  0  0  0
    0.7397    0.0502   -2.9730 H   0  0  0  0  0  0  0  0  0  0  0  0
    0.0133    1.5398    0.4869 C   0  0  0  0  0  0  0  0  0  0  0  0
    0.9872    2.2923    0.5103 O   0  0  0  0  0  0  0  0  0  0  0  0
   -1.2380    1.9926    0.6475 N   0  0  0  0  0  0  0  0  0  0  0  0
   -1.9945    1.3303    0.5982 H   0  0  0  0  0  0  0  0  0  0  0  0
   -1.5715    3.3949    0.8925 C   0  0  0  0  0  0  0  0  0  0  0  0
   -1.1187    4.0222    0.1222 H   0  0  0  0  0  0  0  0  0  0  0  0
   -2.6523    3.5368    0.8809 H   0  0  0  0  0  0  0  0  0  0  0  0
   -1.1776    3.7021    1.8637 H   0  0  0  0  0  0  0  0  0  0  0  0
  5  6  2  0  0  0  0
  5  7  1  0  0  0  0
  2  3  1  0  0  0  0
  2  4  1  0  0  0  0
  2  5  1  0  0  0  0
  1  2  1  0  0  0  0
 19 20  2  0  0  0  0
 19 21  1  0  0  0  0
 17 18  1  0  0  0  0
 13 14  1  0  0  0  0
 13 15  1  0  0  0  0
 13 16  1  0  0  0  0
 11 12  1  0  0  0  0
 11 13  1  0  0  0  0
 11 17  1  0  0  0  0
  9 10  1  0  0  0  0
  9 11  1  0  0  0  0
  9 19  1  0  0  0  0
  7  8  1  0  0  0  0
  7  9  1  0  0  0  0
 23 24  1  0  0  0  0
 23 25  1  0  0  0  0
 23 26  1  0  0  0  0
 21 22  1  0  0  0  0
 21 23  1  0  0  0  0
M  END
$$$$
default_name
  -OEChem-01062215323D

 26 25  0     1  0  0  0  0  0999 V2000
   -2.8882   -3.2497    1.2537 H   0  0  0  0  0  0  0  0  0  0  0  0
   -2.8032   -2.3157    0.7017 C   0  0  0  0  0  0  0  0  0  0  0  0
   -3.5012   -1.5857    1.1067 H   0  0  0  0  0  0  0  0  0  0  0  0
   -3.0182   -2.4907   -0.3513 H   0  0  0  0  0  0  0  0  0  0  0  0
   -1.3942   -1.7897    0.8407 C   0  0  0  0  0  0  0  0  0  0  0  0
   -0.5672   -2.4077    1.5007 O   0  0  0  0  0  0  0  0  0  0  0  0
   -1.1222   -0.6447    0.2217 N   0  0  0  0  0  0  0  0  0  0  0  0
   -1.8592   -0.1777   -0.2863 H   0  0  0  0  0  0  0  0  0  0  0  0
    0.1838    0.0363    0.2367 C   0  0  1  0  0  0  0  0  0  0  0  0
    0.7766   -0.3642    1.0583 H   0  0  0  0  0  0  0  0  0  0  0  0
    0.9683   -0.1991   -1.0705 C   0  0  1  0  0  0  0  0  0  0  0  0
    1.9184    0.3298   -0.9980 H   0  0  0  0  0  0  0  0  0  0  0  0
    1.2748   -1.6676   -1.3575 C   0  0  0  0  0  0  0  0  0  0  0  0
    0.3544   -2.2138   -1.5680 H   0  0  0  0  0  0  0  0  0  0  0  0
    1.9412   -1.7454   -2.2156 H   0  0  0  0  0  0  0  0  0  0  0  0
    1.7621   -2.1163   -0.4914 H   0  0  0  0  0  0  0  0  0  0  0  0
    0.2643    0.3036   -2.1791 O   0  0  0  0  0  0  0  0  0  0  0  0
    0.7397    0.0502   -2.9730 H   0  0  0  0  0  0  0  0  0  0  0  0
    0.0133    1.5398    0.4869 C   0  0  0  0  0  0  0  0  0  0  0  0
    0.9258    2.3296    0.2443 O   0  0  0  0  0  0  0  0  0  0  0  0
   -1.1760    1.9493    0.9499 N   0  0  0  0  0  0  0  0  0  0  0  0
   -1.8892    1.2570    1.1100 H   0  0  0  0  0  0  0  0  0  0  0  0
   -1.5007    3.3453    1.2389 C   0  0  0  0  0  0  0  0  0  0  0  0
   -1.2869    3.9629    0.3643 H   0  0  0  0  0  0  0  0  0  0  0  0
   -2.5546    3.4450    1.4992 H   0  0  0  0  0  0  0  0  0  0  0  0
   -0.8883    3.7005    2.0705 H   0  0  0  0  0  0  0  0  0  0  0  0
  5  6  2  0  0  0  0
  5  7  1  0  0  0  0
  2  3  1  0  0  0  0
  2  4  1  0  0  0  0
  2  5  1  0  0  0  0
  1  2  1  0  0  0  0
 19 20  2  0  0  0  0
 19 21  1  0  0  0  0
 17 18  1  0  0  0  0
 13 14  1  0  0  0  0
 13 15  1  0  0  0  0
 13 16  1  0  0  0  0
 11 12  1  0  0  0  0
 11 13  1  0  0  0  0
 11 17  1  0  0  0  0
  9 10  1  0  0  0  0
  9 11  1  0  0  0  0
  9 19  1  0  0  0  0
  7  8  1  0  0  0  0
  7  9  1  0  0  0  0
 23 24  1  0  0  0  0
 23 25  1  0  0  0  0
 23 26  1  0  0  0  0
 21 22  1  0  0  0  0
 21 23  1  0  0  0  0
M  END
$$$$
default_name
  -OEChem-01062215323D

 26 25  0     1  0  0  0  0  0999 V2000
   -2.8882   -3.2497    1.2537 H   0  0  0  0  0  0  0  0  0  0  0  0
   -2.8032   -2.3157    0.7017 C   0  0  0  0  0  0  0  0  0  0  0  0
   -3.5012   -1.5857    1.1067 H   0  0  0  0  0  0  0  0  0  0  0  0
   -3.0182   -2.4907   -0.3513 H   0  0  0  0  0  0  0  0  0  0  0  0
   -1.3942   -1.7897    0.8407 C   0  0  0  0  0  0  0  0  0  0  0  0
   -0.5672   -2.4077    1.5007 O   0  0  0  0  0  0  0  0  0  0  0  0
   -1.1222   -0.6447    0.2217 N   0  0  0  0  0  0  0  0  0  0  0  0
   -1.8592   -0.1777   -0.2863 H   0  0  0  0  0  0  0  0  0  0  0  0
    0.1838    0.0363    0.2367 C   0  0  1  0  0  0  0  0  0  0  0  0
    0.7766   -0.3642    1.0583 H   0  0  0  0  0  0  0  0  0  0  0  0
    0.9683   -0.1991   -1.0705 C   0  0  1  0  0  0  0  0  0  0  0  0
    1.9184    0.3298   -0.9980 H   0  0  0  0  0  0  0  0  0  0  0  0
    1.2748   -1.6676   -1.3575 C   0  0  0  0  0  0  0  0  0  0  0  0
    0.3544   -2.2138   -1.5680 H   0  0  0  0  0  0  0  0  0  0  0  0
    1.9412   -1.7454   -2.2156 H   0  0  0  0  0  0  0  0  0  0  0  0
    1.7621   -2.1163   -0.4914 H   0  0  0  0  0  0  0  0  0  0  0  0
    0.2643    0.3036   -2.1791 O   0  0  0  0  0  0  0  0  0  0  0  0
    0.7397    0.0502   -2.9730 H   0  0  0  0  0  0  0  0  0  0  0  0
    0.0133    1.5398    0.4869 C   0  0  0  0  0  0  0  0  0  0  0  0
    0.7974    2.3554    0.0018 O   0  0  0  0  0  0  0  0  0  0  0  0
   -1.0376    1.9188    1.2275 N   0  0  0  0  0  0  0  0  0  0  0  0
   -1.6544    1.2055    1.5798 H   0  0  0  0  0  0  0  0  0  0  0  0
   -1.3423    3.3103    1.5569 C   0  0  0  0  0  0  0  0  0  0  0  0
   -1.3855    3.9054    0.6425 H   0  0  0  0  0  0  0  0  0  0  0  0
   -2.2994    3.3783    2.0743 H   0  0  0  0  0  0  0  0  0  0  0  0
   -0.5564    3.7171    2.1969 H   0  0  0  0  0  0  0  0  0  0  0  0
  5  6  2  0  0  0  0
  5  7  1  0  0  0  0
  2  3  1  0  0  0  0
  2  4  1  0  0  0  0
  2  5  1  0  0  0  0
  1  2  1  0  0  0  0
 19 20  2  0  0  0  0
 19 21  1  0  0  0  0
 17 18  1  0  0  0  0
 13 14  1  0  0  0  0
 13 15  1  0  0  0  0
 13 16  1  0  0  0  0
 11 12  1  0  0  0  0
 11 13  1  0  0  0  0
 11 17  1  0  0  0  0
  9 10  1  0  0  0  0
  9 11  1  0  0  0  0
  9 19  1  0  0  0  0
  7  8  1  0  0  0  0
  7  9  1  0  0  0  0
 23 24  1  0  0  0  0
 23 25  1  0  0  0  0
 23 26  1  0  0  0  0
 21 22  1  0  0  0  0
 21 23  1  0  0  0  0
M  END
$$$$
default_name
  -OEChem-01062215323D

 26 25  0     1  0  0  0  0  0999 V2000
   -2.8882   -3.2497    1.2537 H   0  0  0  0  0  0  0  0  0  0  0  0
   -2.8032   -2.3157    0.7017 C   0  0  0  0  0  0  0  0  0  0  0  0
   -3.5012   -1.5857    1.1067 H   0  0  0  0  0  0  0  0  0  0  0  0
   -3.0182   -2.4907   -0.3513 H   0  0  0  0  0  0  0  0  0  0  0  0
   -1.3942   -1.7897    0.8407 C   0  0  0  0  0  0  0  0  0  0  0  0
   -0.5672   -2.4077    1.5007 O   0  0  0  0  0  0  0  0  0  0  0  0
   -1.1222   -0.6447    0.2217 N   0  0  0  0  0  0  0  0  0  0  0  0
   -1.8592   -0.1777   -0.2863 H   0  0  0  0  0  0  0  0  0  0  0  0
    0.1838    0.0363    0.2367 C   0  0  1  0  0  0  0  0  0  0  0  0
    0.7766   -0.3642    1.0583 H   0  0  0  0  0  0  0  0  0  0  0  0
    0.9683   -0.1991   -1.0705 C   0  0  1  0  0  0  0  0  0  0  0  0
    1.9184    0.3298   -0.9980 H   0  0  0  0  0  0  0  0  0  0  0  0
    1.2748   -1.6676   -1.3575 C   0  0  0  0  0  0  0  0  0  0  0  0
    0.3544   -2.2138   -1.5680 H   0  0  0  0  0  0  0  0  0  0  0  0
    1.9412   -1.7454   -2.2156 H   0  0  0  0  0  0  0  0  0  0  0  0
    1.7621   -2.1163   -0.4914 H   0  0  0  0  0  0  0  0  0  0  0  0
    0.2643    0.3036   -2.1791 O   0  0  0  0  0  0  0  0  0  0  0  0
    0.7397    0.0502   -2.9730 H   0  0  0  0  0  0  0  0  0  0  0  0
    0.0133    1.5398    0.4869 C   0  0  0  0  0  0  0  0  0  0  0  0
    0.6107    2.3679   -0.2005 O   0  0  0  0  0  0  0  0  0  0  0  0
   -0.8322    1.9032    1.4614 N   0  0  0  0  0  0  0  0  0  0  0  0
   -1.3063    1.1791    1.9756 H   0  0  0  0  0  0  0  0  0  0  0  0
   -1.1072    3.2924    1.8249 C   0  0  0  0  0  0  0  0  0  0  0  0
   -1.4076    3.8537    0.9380 H   0  0  0  0  0  0  0  0  0  0  0  0
   -1.9042    3.3411    2.5670 H   0  0  0  0  0  0  0  0  0  0  0  0
   -0.2044    3.7508    2.2343 H   0  0  0  0  0  0  0  0  0  0  0  0
  5  6  2  0  0  0  0
  5  7  1  0  0  0  0
  2  3  1  0  0  0  0
  2  4  1  0  0  0  0
  2  5  1  0  0  0  0
  1  2  1  0  0  0  0
 19 20  2  0  0  0  0
 19 21  1  0  0  0  0
 17 18  1  0  0  0  0
 13 14  1  0  0  0  0
 13 15  1  0  0  0  0
 13 16  1  0  0  0  0
 11 12  1  0  0  0  0
 11 13  1  0  0  0  0
 11 17  1  0  0  0  0
  9 10  1  0  0  0  0
  9 11  1  0  0  0  0
  9 19  1  0  0  0  0
  7  8  1  0  0  0  0
  7  9  1  0  0  0  0
 23 24  1  0  0  0  0
 23 25  1  0  0  0  0
 23 26  1  0  0  0  0
 21 22  1  0  0  0  0
 21 23  1  0  0  0  0
M  END
$$$$
default_name
  -OEChem-01062215323D

 26 25  0     1  0  0  0  0  0999 V2000
   -2.8882   -3.2497    1.2537 H   0  0  0  0  0  0  0  0  0  0  0  0
   -2.8032   -2.3157    0.7017 C   0  0  0  0  0  0  0  0  0  0  0  0
   -3.5012   -1.5857    1.1067 H   0  0  0  0  0  0  0  0  0  0  0  0
   -3.0182   -2.4907   -0.3513 H   0  0  0  0  0  0  0  0  0  0  0  0
   -1.3942   -1.7897    0.8407 C   0  0  0  0  0  0  0  0  0  0  0  0
   -0.5672   -2.4077    1.5007 O   0  0  0  0  0  0  0  0  0  0  0  0
   -1.1222   -0.6447    0.2217 N   0  0  0  0  0  0  0  0  0  0  0  0
   -1.8592   -0.1777   -0.2863 H   0  0  0  0  0  0  0  0  0  0  0  0
    0.1838    0.0363    0.2367 C   0  0  1  0  0  0  0  0  0  0  0  0
    0.7766   -0.3642    1.0583 H   0  0  0  0  0  0  0  0  0  0  0  0
    0.9683   -0.1991   -1.0705 C   0  0  1  0  0  0  0  0  0  0  0  0
    1.9184    0.3298   -0.9980 H   0  0  0  0  0  0  0  0  0  0  0  0
    1.2748   -1.6676   -1.3575 C   0  0  0  0  0  0  0  0  0  0  0  0
    0.3544   -2.2138   -1.5680 H   0  0  0  0  0  0  0  0  0  0  0  0
    1.9412   -1.7454   -2.2156 H   0  0  0  0  0  0  0  0  0  0  0  0
    1.7621   -2.1163   -0.4914 H   0  0  0  0  0  0  0  0  0  0  0  0
    0.2643    0.3036   -2.1791 O   0  0  0  0  0  0  0  0  0  0  0  0
    0.7397    0.0502   -2.9730 H   0  0  0  0  0  0  0  0  0  0  0  0
    0.0133    1.5398    0.4869 C   0  0  0  0  0  0  0  0  0  0  0  0
    0.3786    2.3663   -0.3490 O   0  0  0  0  0  0  0  0  0  0  0  0
   -0.5738    1.9035    1.6356 N   0  0  0  0  0  0  0  0  0  0  0  0
   -0.8685    1.1797    2.2702 H   0  0  0  0  0  0  0  0  0  0  0  0
   -0.8113    3.2927    2.0246 C   0  0  0  0  0  0  0  0  0  0  0  0
   -1.3519    3.8114    1.2304 H   0  0  0  0  0  0  0  0  0  0  0  0
   -1.3959    3.3361    2.9438 H   0  0  0  0  0  0  0  0  0  0  0  0
    0.1436    3.7992    2.1801 H   0  0  0  0  0  0  0  0  0  0  0  0
  5  6  2  0  0  0  0
  5  7  1  0  0  0  0
  2  3  1  0  0  0  0
  2  4  1  0  0  0  0
  2  5  1  0  0  0  0
  1  2  1  0  0  0  0
 19 20  2  0  0  0  0
 19 21  1  0  0  0  0
 17 18  1  0  0  0  0
 13 14  1  0  0  0  0
 13 15  1  0  0  0  0
 13 16  1  0  0  0  0
 11 12  1  0  0  0  0
 11 13  1  0  0  0  0
 11 17  1  0  0  0  0
  9 10  1  0  0  0  0
  9 11  1  0  0  0  0
  9 19  1  0  0  0  0
  7  8  1  0  0  0  0
  7  9  1  0  0  0  0
 23 24  1  0  0  0  0
 23 25  1  0  0  0  0
 23 26  1  0  0  0  0
 21 22  1  0  0  0  0
 21 23  1  0  0  0  0
M  END
$$$$
default_name
  -OEChem-01062215323D

 26 25  0     1  0  0  0  0  0999 V2000
   -2.8882   -3.2497    1.2537 H   0  0  0  0  0  0  0  0  0  0  0  0
   -2.8032   -2.3157    0.7017 C   0  0  0  0  0  0  0  0  0  0  0  0
   -3.5012   -1.5857    1.1067 H   0  0  0  0  0  0  0  0  0  0  0  0
   -3.0182   -2.4907   -0.3513 H   0  0  0  0  0  0  0  0  0  0  0  0
   -1.3942   -1.7897    0.8407 C   0  0  0  0  0  0  0  0  0  0  0  0
   -0.5672   -2.4077    1.5007 O   0  0  0  0  0  0  0  0  0  0  0  0
   -1.1222   -0.6447    0.2217 N   0  0  0  0  0  0  0  0  0  0  0  0
   -1.8592   -0.1777   -0.2863 H   0  0  0  0  0  0  0  0  0  0  0  0
    0.1838    0.0363    0.2367 C   0  0  1  0  0  0  0  0  0  0  0  0
    0.7766   -0.3642    1.0583 H   0  0  0  0  0  0  0  0  0  0  0  0
    0.9683   -0.1991   -1.0705 C   0  0  1  0  0  0  0  0  0  0  0  0
    1.9184    0.3298   -0.9980 H   0  0  0  0  0  0  0  0  0  0  0  0
    1.2748   -1.6676   -1.3575 C   0  0  0  0  0  0  0  0  0  0  0  0
    0.3544   -2.2138   -1.5680 H   0  0  0  0  0  0  0  0  0  0  0  0
    1.9412   -1.7454   -2.2156 H   0  0  0  0  0  0  0  0  0  0  0  0
    1.7621   -2.1163   -0.4914 H   0  0  0  0  0  0  0  0  0  0  0  0
    0.2643    0.3036   -2.1791 O   0  0  0  0  0  0  0  0  0  0  0  0
    0.7397    0.0502   -2.9730 H   0  0  0  0  0  0  0  0  0  0  0  0
    0.0133    1.5398    0.4869 C   0  0  0  0  0  0  0  0  0  0  0  0
    0.1168    2.3506   -0.4335 O   0  0  0  0  0  0  0  0  0  0  0  0
   -0.2800    1.9197    1.7384 N   0  0  0  0  0  0  0  0  0  0  0  0
   -0.3709    1.2073    2.4438 H   0  0  0  0  0  0  0  0  0  0  0  0
   -0.4749    3.3113    2.1425 C   0  0  0  0  0  0  0  0  0  0  0  0
   -1.2221    3.7813    1.5000 H   0  0  0  0  0  0  0  0  0  0  0  0
   -0.8092    3.3635    3.1788 H   0  0  0  0  0  0  0  0  0  0  0  0
    0.4640    3.8592    2.0381 H   0  0  0  0  0  0  0  0  0  0  0  0
  5  6  2  0  0  0  0
  5  7  1  0  0  0  0
  2  3  1  0  0  0  0
  2  4  1  0  0  0  0
  2  5  1  0  0  0  0
  1  2  1  0  0  0  0
 19 20  2  0  0  0  0
 19 21  1  0  0  0  0
 17 18  1  0  0  0  0
 13 14  1  0  0  0  0
 13 15  1  0  0  0  0
 13 16  1  0  0  0  0
 11 12  1  0  0  0  0
 11 13  1  0  0  0  0
 11 17  1  0  0  0  0
  9 10  1  0  0  0  0
  9 11  1  0  0  0  0
  9 19  1  0  0  0  0
  7  8  1  0  0  0  0
  7  9  1  0  0  0  0
 23 24  1  0  0  0  0
 23 25  1  0  0  0  0
 23 26  1  0  0  0  0
 21 22  1  0  0  0  0
 21 23  1  0  0  0  0
M  END
$$$$
default_name
  -OEChem-01062215323D

 26 25  0     1  0  0  0  0  0999 V2000
   -2.8882   -3.2497    1.2537 H   0  0  0  0  0  0  0  0  0  0  0  0
   -2.8032   -2.3157    0.7017 C   0  0  0  0  0  0  0  0  0  0  0  0
   -3.5012   -1.5857    1.1067 H   0  0  0  0  0  0  0  0  0  0  0  0
   -3.0182   -2.4907   -0.3513 H   0  0  0  0  0  0  0  0  0  0  0  0
   -1.3942   -1.7897    0.8407 C   0  0  0  0  0  0  0  0  0  0  0  0
   -0.5672   -2.4077    1.5007 O   0  0  0  0  0  0  0  0  0  0  0  0
   -1.1222   -0.6447    0.2217 N   0  0  0  0  0  0  0  0  0  0  0  0
   -1.8592   -0.1777   -0.2863 H   0  0  0  0  0  0  0  0  0  0  0  0
    0.1838    0.0363    0.2367 C   0  0  1  0  0  0  0  0  0  0  0  0
    0.7766   -0.3642    1.0583 H   0  0  0  0  0  0  0  0  0  0  0  0
    0.9683   -0.1991   -1.0705 C   0  0  1  0  0  0  0  0  0  0  0  0
    1.9184    0.3298   -0.9980 H   0  0  0  0  0  0  0  0  0  0  0  0
    1.2748   -1.6676   -1.3575 C   0  0  0  0  0  0  0  0  0  0  0  0
    0.3544   -2.2138   -1.5680 H   0  0  0  0  0  0  0  0  0  0  0  0
    1.9412   -1.7454   -2.2156 H   0  0  0  0  0  0  0  0  0  0  0  0
    1.7621   -2.1163   -0.4914 H   0  0  0  0  0  0  0  0  0  0  0  0
    0.2643    0.3036   -2.1791 O   0  0  0  0  0  0  0  0  0  0  0  0
    0.7397    0.0502   -2.9730 H   0  0  0  0  0  0  0  0  0  0  0  0
    0.0133    1.5398    0.4869 C   0  0  0  0  0  0  0  0  0  0  0  0
   -0.1569    2.3220   -0.4482 O   0  0  0  0  0  0  0  0  0  0  0  0
    0.0292    1.9508    1.7626 N   0  0  0  0  0  0  0  0  0  0  0  0
    0.1526    1.2599    2.4844 H   0  0  0  0  0  0  0  0  0  0  0  0
   -0.1207    3.3468    2.1704 C   0  0  0  0  0  0  0  0  0  0  0  0
   -1.0271    3.7654    1.7284 H   0  0  0  0  0  0  0  0  0  0  0  0
   -0.1839    3.4215    3.2562 H   0  0  0  0  0  0  0  0  0  0  0  0
    0.7350    3.9266    1.8179 H   0  0  0  0  0  0  0  0  0  0  0  0
  5  6  2  0  0  0  0
  5  7  1  0  0  0  0
  2  3  1  0  0  0  0
  2  4  1  0  0  0  0
  2  5  1  0  0  0  0
  1  2  1  0  0  0  0
 19 20  2  0  0  0  0
 19 21  1  0  0  0  0
 17 18  1  0  0  0  0
 13 14  1  0  0  0  0
 13 15  1  0  0  0  0
 13 16  1  0  0  0  0
 11 12  1  0  0  0  0
 11 13  1  0  0  0  0
 11 17  1  0  0  0  0
  9 10  1  0  0  0  0
  9 11  1  0  0  0  0
  9 19  1  0  0  0  0
  7  8  1  0  0  0  0
  7  9  1  0  0  0  0
 23 24  1  0  0  0  0
 23 25  1  0  0  0  0
 23 26  1  0  0  0  0
 21 22  1  0  0  0  0
 21 23  1  0  0  0  0
M  END
$$$$
default_name
  -OEChem-01062215323D

 26 25  0     1  0  0  0  0  0999 V2000
   -2.8882   -3.2497    1.2537 H   0  0  0  0  0  0  0  0  0  0  0  0
   -2.8032   -2.3157    0.7017 C   0  0  0  0  0  0  0  0  0  0  0  0
   -3.5012   -1.5857    1.1067 H   0  0  0  0  0  0  0  0  0  0  0  0
   -3.0182   -2.4907   -0.3513 H   0  0  0  0  0  0  0  0  0  0  0  0
   -1.3942   -1.7897    0.8407 C   0  0  0  0  0  0  0  0  0  0  0  0
   -0.5672   -2.4077    1.5007 O   0  0  0  0  0  0  0  0  0  0  0  0
   -1.1222   -0.6447    0.2217 N   0  0  0  0  0  0  0  0  0  0  0  0
   -1.8592   -0.1777   -0.2863 H   0  0  0  0  0  0  0  0  0  0  0  0
    0.1838    0.0363    0.2367 C   0  0  1  0  0  0  0  0  0  0  0  0
    0.7766   -0.3642    1.0583 H   0  0  0  0  0  0  0  0  0  0  0  0
    0.9683   -0.1991   -1.0705 C   0  0  1  0  0  0  0  0  0  0  0  0
    1.9184    0.3298   -0.9980 H   0  0  0  0  0  0  0  0  0  0  0  0
    1.2748   -1.6676   -1.3575 C   0  0  0  0  0  0  0  0  0  0  0  0
    0.3544   -2.2138   -1.5680 H   0  0  0  0  0  0  0  0  0  0  0  0
    1.9412   -1.7454   -2.2156 H   0  0  0  0  0  0  0  0  0  0  0  0
    1.7621   -2.1163   -0.4914 H   0  0  0  0  0  0  0  0  0  0  0  0
    0.2643    0.3036   -2.1791 O   0  0  0  0  0  0  0  0  0  0  0  0
    0.7397    0.0502   -2.9730 H   0  0  0  0  0  0  0  0  0  0  0  0
    0.0133    1.5398    0.4869 C   0  0  0  0  0  0  0  0  0  0  0  0
   -0.4238    2.2824   -0.3921 O   0  0  0  0  0  0  0  0  0  0  0  0
    0.3327    1.9945    1.7066 N   0  0  0  0  0  0  0  0  0  0  0  0
    0.6663    1.3340    2.3892 H   0  0  0  0  0  0  0  0  0  0  0  0
    0.2269    3.3968    2.1065 C   0  0  0  0  0  0  0  0  0  0  0  0
   -0.7801    3.7649    1.8999 H   0  0  0  0  0  0  0  0  0  0  0  0
    0.4372    3.5062    3.1706 H   0  0  0  0  0  0  0  0  0  0  0  0
    0.9380    3.9967    1.5346 H   0  0  0  0  0  0  0  0  0  0  0  0
  5  6  2  0  0  0  0
  5  7  1  0  0  0  0
  2  3  1  0  0  0  0
  2  4  1  0  0  0  0
  2  5  1  0  0  0  0
  1  2  1  0  0  0  0
 19 20  2  0  0  0  0
 19 21  1  0  0  0  0
 17 18  1  0  0  0  0
 13 14  1  0  0  0  0
 13 15  1  0  0  0  0
 13 16  1  0  0  0  0
 11 12  1  0  0  0  0
 11 13  1  0  0  0  0
 11 17  1  0  0  0  0
  9 10  1  0  0  0  0
  9 11  1  0  0  0  0
  9 19  1  0  0  0  0
  7  8  1  0  0  0  0
  7  9  1  0  0  0  0
 23 24  1  0  0  0  0
 23 25  1  0  0  0  0
 23 26  1  0  0  0  0
 21 22  1  0  0  0  0
 21 23  1  0  0  0  0
M  END
$$$$
default_name
  -OEChem-01062215323D

 26 25  0     1  0  0  0  0  0999 V2000
   -2.8882   -3.2497    1.2537 H   0  0  0  0  0  0  0  0  0  0  0  0
   -2.8032   -2.3157    0.7017 C   0  0  0  0  0  0  0  0  0  0  0  0
   -3.5012   -1.5857    1.1067 H   0  0  0  0  0  0  0  0  0  0  0  0
   -3.0182   -2.4907   -0.3513 H   0  0  0  0  0  0  0  0  0  0  0  0
   -1.3942   -1.7897    0.8407 C   0  0  0  0  0  0  0  0  0  0  0  0
   -0.5672   -2.4077    1.5007 O   0  0  0  0  0  0  0  0  0  0  0  0
   -1.1222   -0.6447    0.2217 N   0  0  0  0  0  0  0  0  0  0  0  0
   -1.8592   -0.1777   -0.2863 H   0  0  0  0  0  0  0  0  0  0  0  0
    0.1838    0.0363    0.2367 C   0  0  1  0  0  0  0  0  0  0  0  0
    0.7766   -0.3642    1.0583 H   0  0  0  0  0  0  0  0  0  0  0  0
    0.9683   -0.1991   -1.0705 C   0  0  1  0  0  0  0  0  0  0  0  0
    1.9184    0.3298   -0.9980 H   0  0  0  0  0  0  0  0  0  0  0  0
    1.2748   -1.6676   -1.3575 C   0  0  0  0  0  0  0  0  0  0  0  0
    0.3544   -2.2138   -1.5680 H   0  0  0  0  0  0  0  0  0  0  0  0
    1.9412   -1.7454   -2.2156 H   0  0  0  0  0  0  0  0  0  0  0  0
    1.7621   -2.1163   -0.4914 H   0  0  0  0  0  0  0  0  0  0  0  0
    0.2643    0.3036   -2.1791 O   0  0  0  0  0  0  0  0  0  0  0  0
    0.7397    0.0502   -2.9730 H   0  0  0  0  0  0  0  0  0  0  0  0
    0.0133    1.5398    0.4869 C   0  0  0  0  0  0  0  0  0  0  0  0
   -0.6656    2.2346   -0.2691 O   0  0  0  0  0  0  0  0  0  0  0  0
    0.6098    2.0479    1.5744 N   0  0  0  0  0  0  0  0  0  0  0  0
    1.1353    1.4245    2.1648 H   0  0  0  0  0  0  0  0  0  0  0  0
    0.5443    3.4580    1.9552 C   0  0  0  0  0  0  0  0  0  0  0  0
   -0.4979    3.7797    2.0029 H   0  0  0  0  0  0  0  0  0  0  0  0
    1.0119    3.6118    2.9279 H   0  0  0  0  0  0  0  0  0  0  0  0
    1.0592    4.0649    1.2073 H   0  0  0  0  0  0  0  0  0  0  0  0
  5  6  2  0  0  0  0
  5  7  1  0  0  0  0
  2  3  1  0  0  0  0
  2  4  1  0  0  0  0
  2  5  1  0  0  0  0
  1  2  1  0  0  0  0
 19 20  2  0  0  0  0
 19 21  1  0  0  0  0
 17 18  1  0  0  0  0
 13 14  1  0  0  0  0
 13 15  1  0  0  0  0
 13 16  1  0  0  0  0
 11 12  1  0  0  0  0
 11 13  1  0  0  0  0
 11 17  1  0  0  0  0
  9 10  1  0  0  0  0
  9 11  1  0  0  0  0
  9 19  1  0  0  0  0
  7  8  1  0  0  0  0
  7  9  1  0  0  0  0
 23 24  1  0  0  0  0
 23 25  1  0  0  0  0
 23 26  1  0  0  0  0
 21 22  1  0  0  0  0
 21 23  1  0  0  0  0
M  END
$$$$
default_name
  -OEChem-01062215323D

 26 25  0     1  0  0  0  0  0999 V2000
   -2.8882   -3.2497    1.2537 H   0  0  0  0  0  0  0  0  0  0  0  0
   -2.8032   -2.3157    0.7017 C   0  0  0  0  0  0  0  0  0  0  0  0
   -3.5012   -1.5857    1.1067 H   0  0  0  0  0  0  0  0  0  0  0  0
   -3.0182   -2.4907   -0.3513 H   0  0  0  0  0  0  0  0  0  0  0  0
   -1.3942   -1.7897    0.8407 C   0  0  0  0  0  0  0  0  0  0  0  0
   -0.5672   -2.4077    1.5007 O   0  0  0  0  0  0  0  0  0  0  0  0
   -1.1222   -0.6447    0.2217 N   0  0  0  0  0  0  0  0  0  0  0  0
   -1.8592   -0.1777   -0.2863 H   0  0  0  0  0  0  0  0  0  0  0  0
    0.1838    0.0363    0.2367 C   0  0  1  0  0  0  0  0  0  0  0  0
    0.7766   -0.3642    1.0583 H   0  0  0  0  0  0  0  0  0  0  0  0
    0.9683   -0.1991   -1.0705 C   0  0  1  0  0  0  0  0  0  0  0  0
    1.9184    0.3298   -0.9980 H   0  0  0  0  0  0  0  0  0  0  0  0
    1.2748   -1.6676   -1.3575 C   0  0  0  0  0  0  0  0  0  0  0  0
    0.3544   -2.2138   -1.5680 H   0  0  0  0  0  0  0  0  0  0  0  0
    1.9412   -1.7454   -2.2156 H   0  0  0  0  0  0  0  0  0  0  0  0
    1.7621   -2.1163   -0.4914 H   0  0  0  0  0  0  0  0  0  0  0  0
    0.2643    0.3036   -2.1791 O   0  0  0  0  0  0  0  0  0  0  0  0
    0.7397    0.0502   -2.9730 H   0  0  0  0  0  0  0  0  0  0  0  0
    0.0133    1.5398    0.4869 C   0  0  0  0  0  0  0  0  0  0  0  0
   -0.8661    2.1816   -0.0876 O   0  0  0  0  0  0  0  0  0  0  0  0
    0.8416    2.1074    1.3747 N   0  0  0  0  0  0  0  0  0  0  0  0
    1.5275    1.5253    1.8265 H   0  0  0  0  0  0  0  0  0  0  0  0
    0.8100    3.5262    1.7267 C   0  0  0  0  0  0  0  0  0  0  0  0
   -0.1999    3.8089    2.0304 H   0  0  0  0  0  0  0  0  0  0  0  0
    1.5010    3.7310    2.5446 H   0  0  0  0  0  0  0  0  0  0  0  0
    1.0903    4.1265    0.8585 H   0  0  0  0  0  0  0  0  0  0  0  0
  5  6  2  0  0  0  0
  5  7  1  0  0  0  0
  2  3  1  0  0  0  0
  2  4  1  0  0  0  0
  2  5  1  0  0  0  0
  1  2  1  0  0  0  0
 19 20  2  0  0  0  0
 19 21  1  0  0  0  0
 17 18  1  0  0  0  0
 13 14  1  0  0  0  0
 13 15  1  0  0  0  0
 13 16  1  0  0  0  0
 11 12  1  0  0  0  0
 11 13  1  0  0  0  0
 11 17  1  0  0  0  0
  9 10  1  0  0  0  0
  9 11  1  0  0  0  0
  9 19  1  0  0  0  0
  7  8  1  0  0  0  0
  7  9  1  0  0  0  0
 23 24  1  0  0  0  0
 23 25  1  0  0  0  0
 23 26  1  0  0  0  0
 21 22  1  0  0  0  0
 21 23  1  0  0  0  0
M  END
$$$$
default_name
  -OEChem-01062215323D

 26 25  0     1  0  0  0  0  0999 V2000
   -2.8882   -3.2497    1.2537 H   0  0  0  0  0  0  0  0  0  0  0  0
   -2.8032   -2.3157    0.7017 C   0  0  0  0  0  0  0  0  0  0  0  0
   -3.5012   -1.5857    1.1067 H   0  0  0  0  0  0  0  0  0  0  0  0
   -3.0182   -2.4907   -0.3513 H   0  0  0  0  0  0  0  0  0  0  0  0
   -1.3942   -1.7897    0.8407 C   0  0  0  0  0  0  0  0  0  0  0  0
   -0.5672   -2.4077    1.5007 O   0  0  0  0  0  0  0  0  0  0  0  0
   -1.1222   -0.6447    0.2217 N   0  0  0  0  0  0  0  0  0  0  0  0
   -1.8592   -0.1777   -0.2863 H   0  0  0  0  0  0  0  0  0  0  0  0
    0.1838    0.0363    0.2367 C   0  0  1  0  0  0  0  0  0  0  0  0
    0.7766   -0.3642    1.0583 H   0  0  0  0  0  0  0  0  0  0  0  0
    0.9683   -0.1991   -1.0705 C   0  0  1  0  0  0  0  0  0  0  0  0
    1.9184    0.3298   -0.9980 H   0  0  0  0  0  0  0  0  0  0  0  0
    1.2748   -1.6676   -1.3575 C   0  0  0  0  0  0  0  0  0  0  0  0
    0.3544   -2.2138   -1.5680 H   0  0  0  0  0  0  0  0  0  0  0  0
    1.9412   -1.7454   -2.2156 H   0  0  0  0  0  0  0  0  0  0  0  0
    1.7621   -2.1163   -0.4914 H   0  0  0  0  0  0  0  0  0  0  0  0
    0.2643    0.3036   -2.1791 O   0  0  0  0  0  0  0  0  0  0  0  0
    0.7397    0.0502   -2.9730 H   0  0  0  0  0  0  0  0  0  0  0  0
    0.0133    1.5398    0.4869 C   0  0  0  0  0  0  0  0  0  0  0  0
   -1.0113    2.1272    0.1402 O   0  0  0  0  0  0  0  0  0  0  0  0
    1.0124    2.1690    1.1214 N   0  0  0  0  0  0  0  0  0  0  0  0
    1.8163    1.6295    1.3973 H   0  0  0  0  0  0  0  0  0  0  0  0
    1.0058    3.5966    1.4366 C   0  0  0  0  0  0  0  0  0  0  0  0
    0.0938    3.8505    1.9805 H   0  0  0  0  0  0  0  0  0  0  0  0
    1.8711    3.8558    2.0469 H   0  0  0  0  0  0  0  0  0  0  0  0
    1.0294    4.1772    0.5119 H   0  0  0  0  0  0  0  0  0  0  0  0
  5  6  2  0  0  0  0
  5  7  1  0  0  0  0
  2  3  1  0  0  0  0
  2  4  1  0  0  0  0
  2  5  1  0  0  0  0
  1  2  1  0  0  0  0
 19 20  2  0  0  0  0
 19 21  1  0  0  0  0
 17 18  1  0  0  0  0
 13 14  1  0  0  0  0
 13 15  1  0  0  0  0
 13 16  1  0  0  0  0
 11 12  1  0  0  0  0
 11 13  1  0  0  0  0
 11 17  1  0  0  0  0
  9 10  1  0  0  0  0
  9 11  1  0  0  0  0
  9 19  1  0  0  0  0
  7  8  1  0  0  0  0
  7  9  1  0  0  0  0
 23 24  1  0  0  0  0
 23 25  1  0  0  0  0
 23 26  1  0  0  0  0
 21 22  1  0  0  0  0
 21 23  1  0  0  0  0
M  END
$$$$
default_name
  -OEChem-01062215323D

 26 25  0     1  0  0  0  0  0999 V2000
   -2.8882   -3.2497    1.2537 H   0  0  0  0  0  0  0  0  0  0  0  0
   -2.8032   -2.3157    0.7017 C   0  0  0  0  0  0  0  0  0  0  0  0
   -3.5012   -1.5857    1.1067 H   0  0  0  0  0  0  0  0  0  0  0  0
   -3.0182   -2.4907   -0.3513 H   0  0  0  0  0  0  0  0  0  0  0  0
   -1.3942   -1.7897    0.8407 C   0  0  0  0  0  0  0  0  0  0  0  0
   -0.5672   -2.4077    1.5007 O   0  0  0  0  0  0  0  0  0  0  0  0
   -1.1222   -0.6447    0.2217 N   0  0  0  0  0  0  0  0  0  0  0  0
   -1.8592   -0.1777   -0.2863 H   0  0  0  0  0  0  0  0  0  0  0  0
    0.1838    0.0363    0.2367 C   0  0  1  0  0  0  0  0  0  0  0  0
    0.7766   -0.3642    1.0583 H   0  0  0  0  0  0  0  0  0  0  0  0
    0.9683   -0.1991   -1.0705 C   0  0  1  0  0  0  0  0  0  0  0  0
    1.9184    0.3298   -0.9980 H   0  0  0  0  0  0  0  0  0  0  0  0
    1.2748   -1.6676   -1.3575 C   0  0  0  0  0  0  0  0  0  0  0  0
    0.3544   -2.2138   -1.5680 H   0  0  0  0  0  0  0  0  0  0  0  0
    1.9412   -1.7454   -2.2156 H   0  0  0  0  0  0  0  0  0  0  0  0
    1.7621   -2.1163   -0.4914 H   0  0  0  0  0  0  0  0  0  0  0  0
    0.2643    0.3036   -2.1791 O   0  0  0  0  0  0  0  0  0  0  0  0
    0.7397    0.0502   -2.9730 H   0  0  0  0  0  0  0  0  0  0  0  0
    0.0133    1.5398    0.4869 C   0  0  0  0  0  0  0  0  0  0  0  0
   -1.0916    2.0751    0.3986 O   0  0  0  0  0  0  0  0  0  0  0  0
    1.1104    2.2283    0.8316 N   0  0  0  0  0  0  0  0  0  0  0  0
    1.9819    1.7299    0.9064 H   0  0  0  0  0  0  0  0  0  0  0  0
    1.1183    3.6646    1.1047 C   0  0  0  0  0  0  0  0  0  0  0  0
    0.3630    3.9017    1.8566 H   0  0  0  0  0  0  0  0  0  0  0  0
    2.0971    3.9776    1.4686 H   0  0  0  0  0  0  0  0  0  0  0  0
    0.8804    4.2137    0.1912 H   0  0  0  0  0  0  0  0  0  0  0  0
  5  6  2  0  0  0  0
  5  7  1  0  0  0  0
  2  3  1  0  0  0  0
  2  4  1  0  0  0  0
  2  5  1  0  0  0  0
  1  2  1  0  0  0  0
 19 20  2  0  0  0  0
 19 21  1  0  0  0  0
 17 18  1  0  0  0  0
 13 14  1  0  0  0  0
 13 15  1  0  0  0  0
 13 16  1  0  0  0  0
 11 12  1  0  0  0  0
 11 13  1  0  0  0  0
 11 17  1  0  0  0  0
  9 10  1  0  0  0  0
  9 11  1  0  0  0  0
  9 19  1  0  0  0  0
  7  8  1  0  0  0  0
  7  9  1  0  0  0  0
 23 24  1  0  0  0  0
 23 25  1  0  0  0  0
 23 26  1  0  0  0  0
 21 22  1  0  0  0  0
 21 23  1  0  0  0  0
M  END
$$$$
default_name
  -OEChem-01062215323D

 26 25  0     1  0  0  0  0  0999 V2000
   -2.8882   -3.2497    1.2537 H   0  0  0  0  0  0  0  0  0  0  0  0
   -2.8032   -2.3157    0.7017 C   0  0  0  0  0  0  0  0  0  0  0  0
   -3.5012   -1.5857    1.1067 H   0  0  0  0  0  0  0  0  0  0  0  0
   -3.0182   -2.4907   -0.3513 H   0  0  0  0  0  0  0  0  0  0  0  0
   -1.3942   -1.7897    0.8407 C   0  0  0  0  0  0  0  0  0  0  0  0
   -0.5672   -2.4077    1.5007 O   0  0  0  0  0  0  0  0  0  0  0  0
   -1.1222   -0.6447    0.2217 N   0  0  0  0  0  0  0  0  0  0  0  0
   -1.8592   -0.1777   -0.2863 H   0  0  0  0  0  0  0  0  0  0  0  0
    0.1838    0.0363    0.2367 C   0  0  1  0  0  0  0  0  0  0  0  0
    0.8663   -0.5321    0.8676 H   0  0  0  0  0  0  0  0  0  0  0  0
    0.8031    0.1201   -1.1736 C   0  0  1  0  0  0  0  0  0  0  0  0
    1.7610    0.6339   -1.0955 H   0  0  0  0  0  0  0  0  0  0  0  0
    1.0562   -1.2383   -1.8247 C   0  0  0  0  0  0  0  0  0  0  0  0
    0.1112   -1.7368   -2.0436 H   0  0  0  0  0  0  0  0  0  0  0  0
    1.6140   -1.1061   -2.7510 H   0  0  0  0  0  0  0  0  0  0  0  0
    1.6388   -1.8655   -1.1493 H   0  0  0  0  0  0  0  0  0  0  0  0
   -0.0230    0.8518   -2.0450 O   0  0  0  0  0  0  0  0  0  0  0  0
    0.3508    0.7951   -2.9268 H   0  0  0  0  0  0  0  0  0  0  0  0
    0.0616    1.4393    0.8440 C   0  0  0  0  0  0  0  0  0  0  0  0
   -1.0174    1.8548    1.2663 O   0  0  0  0  0  0  0  0  0  0  0  0
    1.1823    2.1709    0.9179 N   0  0  0  0  0  0  0  0  0  0  0  0
    2.0381    1.7679    0.5735 H   0  0  0  0  0  0  0  0  0  0  0  0
    1.2367    3.5240    1.4691 C   0  0  0  0  0  0  0  0  0  0  0  0
    0.8025    3.5325    2.4708 H   0  0  0  0  0  0  0  0  0  0  0  0
    2.2684    3.8721    1.5225 H   0  0  0  0  0  0  0  0  0  0  0  0
    0.6594    4.2019    0.8367 H   0  0  0  0  0  0  0  0  0  0  0  0
  5  6  2  0  0  0  0
  5  7  1  0  0  0  0
  2  3  1  0  0  0  0
  2  4  1  0  0  0  0
  2  5  1  0  0  0  0
  1  2  1  0  0  0  0
 19 20  2  0  0  0  0
 19 21  1  0  0  0  0
 17 18  1  0  0  0  0
 13 14  1  0  0  0  0
 13 15  1  0  0  0  0
 13 16  1  0  0  0  0
 11 12  1  0  0  0  0
 11 13  1  0  0  0  0
 11 17  1  0  0  0  0
  9 10  1  0  0  0  0
  9 11  1  0  0  0  0
  9 19  1  0  0  0  0
  7  8  1  0  0  0  0
  7  9  1  0  0  0  0
 23 24  1  0  0  0  0
 23 25  1  0  0  0  0
 23 26  1  0  0  0  0
 21 22  1  0  0  0  0
 21 23  1  0  0  0  0
M  END
$$$$
default_name
  -OEChem-01062215323D

 26 25  0     1  0  0  0  0  0999 V2000
   -2.8882   -3.2497    1.2537 H   0  0  0  0  0  0  0  0  0  0  0  0
   -2.8032   -2.3157    0.7017 C   0  0  0  0  0  0  0  0  0  0  0  0
   -3.5012   -1.5857    1.1067 H   0  0  0  0  0  0  0  0  0  0  0  0
   -3.0182   -2.4907   -0.3513 H   0  0  0  0  0  0  0  0  0  0  0  0
   -1.3942   -1.7897    0.8407 C   0  0  0  0  0  0  0  0  0  0  0  0
   -0.5672   -2.4077    1.5007 O   0  0  0  0  0  0  0  0  0  0  0  0
   -1.1222   -0.6447    0.2217 N   0  0  0  0  0  0  0  0  0  0  0  0
   -1.8592   -0.1777   -0.2863 H   0  0  0  0  0  0  0  0  0  0  0  0
    0.1838    0.0363    0.2367 C   0  0  1  0  0  0  0  0  0  0  0  0
    0.8663   -0.5321    0.8676 H   0  0  0  0  0  0  0  0  0  0  0  0
    0.8031    0.1201   -1.1736 C   0  0  1  0  0  0  0  0  0  0  0  0
    1.7610    0.6339   -1.0955 H   0  0  0  0  0  0  0  0  0  0  0  0
    1.0562   -1.2383   -1.8247 C   0  0  0  0  0  0  0  0  0  0  0  0
    0.1112   -1.7368   -2.0436 H   0  0  0  0  0  0  0  0  0  0  0  0
    1.6140   -1.1061   -2.7510 H   0  0  0  0  0  0  0  0  0  0  0  0
    1.6388   -1.8655   -1.1493 H   0  0  0  0  0  0  0  0  0  0  0  0
   -0.0230    0.8518   -2.0450 O   0  0  0  0  0  0  0  0  0  0  0  0
    0.3508    0.7951   -2.9268 H   0  0  0  0  0  0  0  0  0  0  0  0
    0.0616    1.4393    0.8440 C   0  0  0  0  0  0  0  0  0  0  0  0
   -0.9250    1.7585    1.5073 O   0  0  0  0  0  0  0  0  0  0  0  0
    1.0850    2.2813    0.6432 N   0  0  0  0  0  0  0  0  0  0  0  0
    1.8729    1.9548    0.1084 H   0  0  0  0  0  0  0  0  0  0  0  0
    1.1254    3.6505    1.1543 C   0  0  0  0  0  0  0  0  0  0  0  0
    0.9412    3.6486    2.2305 H   0  0  0  0  0  0  0  0  0  0  0  0
    2.0983    4.1016    0.9580 H   0  0  0  0  0  0  0  0  0  0  0  0
    0.3475    4.2460    0.6718 H   0  0  0  0  0  0  0  0  0  0  0  0
  5  6  2  0  0  0  0
  5  7  1  0  0  0  0
  2  3  1  0  0  0  0
  2  4  1  0  0  0  0
  2  5  1  0  0  0  0
  1  2  1  0  0  0  0
 19 20  2  0  0  0  0
 19 21  1  0  0  0  0
 17 18  1  0  0  0  0
 13 14  1  0  0  0  0
 13 15  1  0  0  0  0
 13 16  1  0  0  0  0
 11 12  1  0  0  0  0
 11 13  1  0  0  0  0
 11 17  1  0  0  0  0
  9 10  1  0  0  0  0
  9 11  1  0  0  0  0
  9 19  1  0  0  0  0
  7  8  1  0  0  0  0
  7  9  1  0  0  0  0
 23 24  1  0  0  0  0
 23 25  1  0  0  0  0
 23 26  1  0  0  0  0
 21 22  1  0  0  0  0
 21 23  1  0  0  0  0
M  END
$$$$
default_name
  -OEChem-01062215323D

 26 25  0     1  0  0  0  0  0999 V2000
   -2.8882   -3.2497    1.2537 H   0  0  0  0  0  0  0  0  0  0  0  0
   -2.8032   -2.3157    0.7017 C   0  0  0  0  0  0  0  0  0  0  0  0
   -3.5012   -1.5857    1.1067 H   0  0  0  0  0  0  0  0  0  0  0  0
   -3.0182   -2.4907   -0.3513 H   0  0  0  0  0  0  0  0  0  0  0  0
   -1.3942   -1.7897    0.8407 C   0  0  0  0  0  0  0  0  0  0  0  0
   -0.5672   -2.4077    1.5007 O   0  0  0  0  0  0  0  0  0  0  0  0
   -1.1222   -0.6447    0.2217 N   0  0  0  0  0  0  0  0  0  0  0  0
   -1.8592   -0.1777   -0.2863 H   0  0  0  0  0  0  0  0  0  0  0  0
    0.1838    0.0363    0.2367 C   0  0  1  0  0  0  0  0  0  0  0  0
    0.8663   -0.5321    0.8676 H   0  0  0  0  0  0  0  0  0  0  0  0
    0.8031    0.1201   -1.1736 C   0  0  1  0  0  0  0  0  0  0  0  0
    1.7610    0.6339   -1.0955 H   0  0  0  0  0  0  0  0  0  0  0  0
    1.0562   -1.2383   -1.8247 C   0  0  0  0  0  0  0  0  0  0  0  0
    0.1112   -1.7368   -2.0436 H   0  0  0  0  0  0  0  0  0  0  0  0
    1.6140   -1.1061   -2.7510 H   0  0  0  0  0  0  0  0  0  0  0  0
    1.6388   -1.8655   -1.1493 H   0  0  0  0  0  0  0  0  0  0  0  0
   -0.0230    0.8518   -2.0450 O   0  0  0  0  0  0  0  0  0  0  0  0
    0.3508    0.7951   -2.9268 H   0  0  0  0  0  0  0  0  0  0  0  0
    0.0616    1.4393    0.8440 C   0  0  0  0  0  0  0  0  0  0  0  0
   -0.7687    1.6799    1.7203 O   0  0  0  0  0  0  0  0  0  0  0  0
    0.9146    2.3723    0.3986 N   0  0  0  0  0  0  0  0  0  0  0  0
    1.5841    2.1088   -0.3055 H   0  0  0  0  0  0  0  0  0  0  0  0
    0.9305    3.7548    0.8741 C   0  0  0  0  0  0  0  0  0  0  0  0
    1.0063    3.7700    1.9632 H   0  0  0  0  0  0  0  0  0  0  0  0
    1.7767    4.2942    0.4483 H   0  0  0  0  0  0  0  0  0  0  0  0
    0.0026    4.2534    0.5855 H   0  0  0  0  0  0  0  0  0  0  0  0
  5  6  2  0  0  0  0
  5  7  1  0  0  0  0
  2  3  1  0  0  0  0
  2  4  1  0  0  0  0
  2  5  1  0  0  0  0
  1  2  1  0  0  0  0
 19 20  2  0  0  0  0
 19 21  1  0  0  0  0
 17 18  1  0  0  0  0
 13 14  1  0  0  0  0
 13 15  1  0  0  0  0
 13 16  1  0  0  0  0
 11 12  1  0  0  0  0
 11 13  1  0  0  0  0
 11 17  1  0  0  0  0
  9 10  1  0  0  0  0
  9 11  1  0  0  0  0
  9 19  1  0  0  0  0
  7  8  1  0  0  0  0
  7  9  1  0  0  0  0
 23 24  1  0  0  0  0
 23 25  1  0  0  0  0
 23 26  1  0  0  0  0
 21 22  1  0  0  0  0
 21 23  1  0  0  0  0
M  END
$$$$
default_name
  -OEChem-01062215323D

 26 25  0     1  0  0  0  0  0999 V2000
   -2.8882   -3.2497    1.2537 H   0  0  0  0  0  0  0  0  0  0  0  0
   -2.8032   -2.3157    0.7017 C   0  0  0  0  0  0  0  0  0  0  0  0
   -3.5012   -1.5857    1.1067 H   0  0  0  0  0  0  0  0  0  0  0  0
   -3.0182   -2.4907   -0.3513 H   0  0  0  0  0  0  0  0  0  0  0  0
   -1.3942   -1.7897    0.8407 C   0  0  0  0  0  0  0  0  0  0  0  0
   -0.5672   -2.4077    1.5007 O   0  0  0  0  0  0  0  0  0  0  0  0
   -1.1222   -0.6447    0.2217 N   0  0  0  0  0  0  0  0  0  0  0  0
   -1.8592   -0.1777   -0.2863 H   0  0  0  0  0  0  0  0  0  0  0  0
    0.1838    0.0363    0.2367 C   0  0  1  0  0  0  0  0  0  0  0  0
    0.8663   -0.5321    0.8676 H   0  0  0  0  0  0  0  0  0  0  0  0
    0.8031    0.1201   -1.1736 C   0  0  1  0  0  0  0  0  0  0  0  0
    1.7610    0.6339   -1.0955 H   0  0  0  0  0  0  0  0  0  0  0  0
    1.0562   -1.2383   -1.8247 C   0  0  0  0  0  0  0  0  0  0  0  0
    0.1112   -1.7368   -2.0436 H   0  0  0  0  0  0  0  0  0  0  0  0
    1.6140   -1.1061   -2.7510 H   0  0  0  0  0  0  0  0  0  0  0  0
    1.6388   -1.8655   -1.1493 H   0  0  0  0  0  0  0  0  0  0  0  0
   -0.0230    0.8518   -2.0450 O   0  0  0  0  0  0  0  0  0  0  0  0
    0.3508    0.7951   -2.9268 H   0  0  0  0  0  0  0  0  0  0  0  0
    0.0616    1.4393    0.8440 C   0  0  0  0  0  0  0  0  0  0  0  0
   -0.5593    1.6245    1.8906 O   0  0  0  0  0  0  0  0  0  0  0  0
    0.6828    2.4378    0.2008 N   0  0  0  0  0  0  0  0  0  0  0  0
    1.1914    2.2194   -0.6402 H   0  0  0  0  0  0  0  0  0  0  0  0
    0.6651    3.8298    0.6474 C   0  0  0  0  0  0  0  0  0  0  0  0
    0.9935    3.8884    1.6870 H   0  0  0  0  0  0  0  0  0  0  0  0
    1.3257    4.4368    0.0281 H   0  0  0  0  0  0  0  0  0  0  0  0
   -0.3516    4.2233    0.5837 H   0  0  0  0  0  0  0  0  0  0  0  0
  5  6  2  0  0  0  0
  5  7  1  0  0  0  0
  2  3  1  0  0  0  0
  2  4  1  0  0  0  0
  2  5  1  0  0  0  0
  1  2  1  0  0  0  0
 19 20  2  0  0  0  0
 19 21  1  0  0  0  0
 17 18  1  0  0  0  0
 13 14  1  0  0  0  0
 13 15  1  0  0  0  0
 13 16  1  0  0  0  0
 11 12  1  0  0  0  0
 11 13  1  0  0  0  0
 11 17  1  0  0  0  0
  9 10  1  0  0  0  0
  9 11  1  0  0  0  0
  9 19  1  0  0  0  0
  7  8  1  0  0  0  0
  7  9  1  0  0  0  0
 23 24  1  0  0  0  0
 23 25  1  0  0  0  0
 23 26  1  0  0  0  0
 21 22  1  0  0  0  0
 21 23  1  0  0  0  0
M  END
$$$$
default_name
  -OEChem-01062215323D

 26 25  0     1  0  0  0  0  0999 V2000
   -2.8882   -3.2497    1.2537 H   0  0  0  0  0  0  0  0  0  0  0  0
   -2.8032   -2.3157    0.7017 C   0  0  0  0  0  0  0  0  0  0  0  0
   -3.5012   -1.5857    1.1067 H   0  0  0  0  0  0  0  0  0  0  0  0
   -3.0182   -2.4907   -0.3513 H   0  0  0  0  0  0  0  0  0  0  0  0
   -1.3942   -1.7897    0.8407 C   0  0  0  0  0  0  0  0  0  0  0  0
   -0.5672   -2.4077    1.5007 O   0  0  0  0  0  0  0  0  0  0  0  0
   -1.1222   -0.6447    0.2217 N   0  0  0  0  0  0  0  0  0  0  0  0
   -1.8592   -0.1777   -0.2863 H   0  0  0  0  0  0  0  0  0  0  0  0
    0.1838    0.0363    0.2367 C   0  0  1  0  0  0  0  0  0  0  0  0
    0.8663   -0.5321    0.8676 H   0  0  0  0  0  0  0  0  0  0  0  0
    0.8031    0.1201   -1.1736 C   0  0  1  0  0  0  0  0  0  0  0  0
    1.7610    0.6339   -1.0955 H   0  0  0  0  0  0  0  0  0  0  0  0
    1.0562   -1.2383   -1.8247 C   0  0  0  0  0  0  0  0  0  0  0  0
    0.1112   -1.7368   -2.0436 H   0  0  0  0  0  0  0  0  0  0  0  0
    1.6140   -1.1061   -2.7510 H   0  0  0  0  0  0  0  0  0  0  0  0
    1.6388   -1.8655   -1.1493 H   0  0  0  0  0  0  0  0  0  0  0  0
   -0.0230    0.8518   -2.0450 O   0  0  0  0  0  0  0  0  0  0  0  0
    0.3508    0.7951   -2.9268 H   0  0  0  0  0  0  0  0  0  0  0  0
    0.0616    1.4393    0.8440 C   0  0  0  0  0  0  0  0  0  0  0  0
   -0.3110    1.5958    2.0067 O   0  0  0  0  0  0  0  0  0  0  0  0
    0.4054    2.4731    0.0632 N   0  0  0  0  0  0  0  0  0  0  0  0
    0.7214    2.2791   -0.8727 H   0  0  0  0  0  0  0  0  0  0  0  0
    0.3474    3.8704    0.4897 C   0  0  0  0  0  0  0  0  0  0  0  0
    0.9035    3.9957    1.4209 H   0  0  0  0  0  0  0  0  0  0  0  0
    0.7760    4.5197   -0.2740 H   0  0  0  0  0  0  0  0  0  0  0  0
   -0.6912    4.1579    0.6664 H   0  0  0  0  0  0  0  0  0  0  0  0
  5  6  2  0  0  0  0
  5  7  1  0  0  0  0
  2  3  1  0  0  0  0
  2  4  1  0  0  0  0
  2  5  1  0  0  0  0
  1  2  1  0  0  0  0
 19 20  2  0  0  0  0
 19 21  1  0  0  0  0
 17 18  1  0  0  0  0
 13 14  1  0  0  0  0
 13 15  1  0  0  0  0
 13 16  1  0  0  0  0
 11 12  1  0  0  0  0
 11 13  1  0  0  0  0
 11 17  1  0  0  0  0
  9 10  1  0  0  0  0
  9 11  1  0  0  0  0
  9 19  1  0  0  0  0
  7  8  1  0  0  0  0
  7  9  1  0  0  0  0
 23 24  1  0  0  0  0
 23 25  1  0  0  0  0
 23 26  1  0  0  0  0
 21 22  1  0  0  0  0
 21 23  1  0  0  0  0
M  END
$$$$
default_name
  -OEChem-01062215323D

 26 25  0     1  0  0  0  0  0999 V2000
   -2.8882   -3.2497    1.2537 H   0  0  0  0  0  0  0  0  0  0  0  0
   -2.8032   -2.3157    0.7017 C   0  0  0  0  0  0  0  0  0  0  0  0
   -3.5012   -1.5857    1.1067 H   0  0  0  0  0  0  0  0  0  0  0  0
   -3.0182   -2.4907   -0.3513 H   0  0  0  0  0  0  0  0  0  0  0  0
   -1.3942   -1.7897    0.8407 C   0  0  0  0  0  0  0  0  0  0  0  0
   -0.5672   -2.4077    1.5007 O   0  0  0  0  0  0  0  0  0  0  0  0
   -1.1222   -0.6447    0.2217 N   0  0  0  0  0  0  0  0  0  0  0  0
   -1.8592   -0.1777   -0.2863 H   0  0  0  0  0  0  0  0  0  0  0  0
    0.1838    0.0363    0.2367 C   0  0  1  0  0  0  0  0  0  0  0  0
    0.8663   -0.5321    0.8676 H   0  0  0  0  0  0  0  0  0  0  0  0
    0.8031    0.1201   -1.1736 C   0  0  1  0  0  0  0  0  0  0  0  0
    1.7610    0.6339   -1.0955 H   0  0  0  0  0  0  0  0  0  0  0  0
    1.0562   -1.2383   -1.8247 C   0  0  0  0  0  0  0  0  0  0  0  0
    0.1112   -1.7368   -2.0436 H   0  0  0  0  0  0  0  0  0  0  0  0
    1.6140   -1.1061   -2.7510 H   0  0  0  0  0  0  0  0  0  0  0  0
    1.6388   -1.8655   -1.1493 H   0  0  0  0  0  0  0  0  0  0  0  0
   -0.0230    0.8518   -2.0450 O   0  0  0  0  0  0  0  0  0  0  0  0
    0.3508    0.7951   -2.9268 H   0  0  0  0  0  0  0  0  0  0  0  0
    0.0616    1.4393    0.8440 C   0  0  0  0  0  0  0  0  0  0  0  0
   -0.0408    1.5960    2.0606 O   0  0  0  0  0  0  0  0  0  0  0  0
    0.1012    2.4760   -0.0047 N   0  0  0  0  0  0  0  0  0  0  0  0
    0.2063    2.2838   -0.9873 H   0  0  0  0  0  0  0  0  0  0  0  0
   -0.0009    3.8738    0.4118 C   0  0  0  0  0  0  0  0  0  0  0  0
    0.7427    4.0847    1.1829 H   0  0  0  0  0  0  0  0  0  0  0  0
    0.1650    4.5371   -0.4373 H   0  0  0  0  0  0  0  0  0  0  0  0
   -0.9929    4.0617    0.8280 H   0  0  0  0  0  0  0  0  0  0  0  0
  5  6  2  0  0  0  0
  5  7  1  0  0  0  0
  2  3  1  0  0  0  0
  2  4  1  0  0  0  0
  2  5  1  0  0  0  0
  1  2  1  0  0  0  0
 19 20  2  0  0  0  0
 19 21  1  0  0  0  0
 17 18  1  0  0  0  0
 13 14  1  0  0  0  0
 13 15  1  0  0  0  0
 13 16  1  0  0  0  0
 11 12  1  0  0  0  0
 11 13  1  0  0  0  0
 11 17  1  0  0  0  0
  9 10  1  0  0  0  0
  9 11  1  0  0  0  0
  9 19  1  0  0  0  0
  7  8  1  0  0  0  0
  7  9  1  0  0  0  0
 23 24  1  0  0  0  0
 23 25  1  0  0  0  0
 23 26  1  0  0  0  0
 21 22  1  0  0  0  0
 21 23  1  0  0  0  0
M  END
$$$$
default_name
  -OEChem-01062215323D

 26 25  0     1  0  0  0  0  0999 V2000
   -2.8882   -3.2497    1.2537 H   0  0  0  0  0  0  0  0  0  0  0  0
   -2.8032   -2.3157    0.7017 C   0  0  0  0  0  0  0  0  0  0  0  0
   -3.5012   -1.5857    1.1067 H   0  0  0  0  0  0  0  0  0  0  0  0
   -3.0182   -2.4907   -0.3513 H   0  0  0  0  0  0  0  0  0  0  0  0
   -1.3942   -1.7897    0.8407 C   0  0  0  0  0  0  0  0  0  0  0  0
   -0.5672   -2.4077    1.5007 O   0  0  0  0  0  0  0  0  0  0  0  0
   -1.1222   -0.6447    0.2217 N   0  0  0  0  0  0  0  0  0  0  0  0
   -1.8592   -0.1777   -0.2863 H   0  0  0  0  0  0  0  0  0  0  0  0
    0.1838    0.0363    0.2367 C   0  0  1  0  0  0  0  0  0  0  0  0
    0.8663   -0.5321    0.8676 H   0  0  0  0  0  0  0  0  0  0  0  0
    0.8031    0.1201   -1.1736 C   0  0  1  0  0  0  0  0  0  0  0  0
    1.7610    0.6339   -1.0955 H   0  0  0  0  0  0  0  0  0  0  0  0
    1.0562   -1.2383   -1.8247 C   0  0  0  0  0  0  0  0  0  0  0  0
    0.1112   -1.7368   -2.0436 H   0  0  0  0  0  0  0  0  0  0  0  0
    1.6140   -1.1061   -2.7510 H   0  0  0  0  0  0  0  0  0  0  0  0
    1.6388   -1.8655   -1.1493 H   0  0  0  0  0  0  0  0  0  0  0  0
   -0.0230    0.8518   -2.0450 O   0  0  0  0  0  0  0  0  0  0  0  0
    0.3508    0.7951   -2.9268 H   0  0  0  0  0  0  0  0  0  0  0  0
    0.0616    1.4393    0.8440 C   0  0  0  0  0  0  0  0  0  0  0  0
    0.2329    1.6250    2.0487 O   0  0  0  0  0  0  0  0  0  0  0  0
   -0.2089    2.4463    0.0017 N   0  0  0  0  0  0  0  0  0  0  0  0
   -0.3188    2.2332   -0.9761 H   0  0  0  0  0  0  0  0  0  0  0  0
   -0.3562    3.8398    0.4189 C   0  0  0  0  0  0  0  0  0  0  0  0
    0.5218    4.1493    0.9892 H   0  0  0  0  0  0  0  0  0  0  0  0
   -0.4656    4.4880   -0.4507 H   0  0  0  0  0  0  0  0  0  0  0  0
   -1.2362    3.9411    1.0576 H   0  0  0  0  0  0  0  0  0  0  0  0
  5  6  2  0  0  0  0
  5  7  1  0  0  0  0
  2  3  1  0  0  0  0
  2  4  1  0  0  0  0
  2  5  1  0  0  0  0
  1  2  1  0  0  0  0
 19 20  2  0  0  0  0
 19 21  1  0  0  0  0
 17 18  1  0  0  0  0
 13 14  1  0  0  0  0
 13 15  1  0  0  0  0
 13 16  1  0  0  0  0
 11 12  1  0  0  0  0
 11 13  1  0  0  0  0
 11 17  1  0  0  0  0
  9 10  1  0  0  0  0
  9 11  1  0  0  0  0
  9 19  1  0  0  0  0
  7  8  1  0  0  0  0
  7  9  1  0  0  0  0
 23 24  1  0  0  0  0
 23 25  1  0  0  0  0
 23 26  1  0  0  0  0
 21 22  1  0  0  0  0
 21 23  1  0  0  0  0
M  END
$$$$
default_name
  -OEChem-01062215323D

 26 25  0     1  0  0  0  0  0999 V2000
   -2.8882   -3.2497    1.2537 H   0  0  0  0  0  0  0  0  0  0  0  0
   -2.8032   -2.3157    0.7017 C   0  0  0  0  0  0  0  0  0  0  0  0
   -3.5012   -1.5857    1.1067 H   0  0  0  0  0  0  0  0  0  0  0  0
   -3.0182   -2.4907   -0.3513 H   0  0  0  0  0  0  0  0  0  0  0  0
   -1.3942   -1.7897    0.8407 C   0  0  0  0  0  0  0  0  0  0  0  0
   -0.5672   -2.4077    1.5007 O   0  0  0  0  0  0  0  0  0  0  0  0
   -1.1222   -0.6447    0.2217 N   0  0  0  0  0  0  0  0  0  0  0  0
   -1.8592   -0.1777   -0.2863 H   0  0  0  0  0  0  0  0  0  0  0  0
    0.1838    0.0363    0.2367 C   0  0  1  0  0  0  0  0  0  0  0  0
    0.8663   -0.5321    0.8676 H   0  0  0  0  0  0  0  0  0  0  0  0
    0.8031    0.1201   -1.1736 C   0  0  1  0  0  0  0  0  0  0  0  0
    1.7610    0.6339   -1.0955 H   0  0  0  0  0  0  0  0  0  0  0  0
    1.0562   -1.2383   -1.8247 C   0  0  0  0  0  0  0  0  0  0  0  0
    0.1112   -1.7368   -2.0436 H   0  0  0  0  0  0  0  0  0  0  0  0
    1.6140   -1.1061   -2.7510 H   0  0  0  0  0  0  0  0  0  0  0  0
    1.6388   -1.8655   -1.1493 H   0  0  0  0  0  0  0  0  0  0  0  0
   -0.0230    0.8518   -2.0450 O   0  0  0  0  0  0  0  0  0  0  0  0
    0.3508    0.7951   -2.9268 H   0  0  0  0  0  0  0  0  0  0  0  0
    0.0616    1.4393    0.8440 C   0  0  0  0  0  0  0  0  0  0  0  0
    0.4916    1.6809    1.9718 O   0  0  0  0  0  0  0  0  0  0  0  0
   -0.5040    2.3858    0.0819 N   0  0  0  0  0  0  0  0  0  0  0  0
   -0.8183    2.1308   -0.8399 H   0  0  0  0  0  0  0  0  0  0  0  0
   -0.6942    3.7706    0.5106 C   0  0  0  0  0  0  0  0  0  0  0  0
    0.2560    4.1850    0.8532 H   0  0  0  0  0  0  0  0  0  0  0  0
   -1.0729    4.3757   -0.3134 H   0  0  0  0  0  0  0  0  0  0  0  0
   -1.4046    3.8045    1.3394 H   0  0  0  0  0  0  0  0  0  0  0  0
  5  6  2  0  0  0  0
  5  7  1  0  0  0  0
  2  3  1  0  0  0  0
  2  4  1  0  0  0  0
  2  5  1  0  0  0  0
  1  2  1  0  0  0  0
 19 20  2  0  0  0  0
 19 21  1  0  0  0  0
 17 18  1  0  0  0  0
 13 14  1  0  0  0  0
 13 15  1  0  0  0  0
 13 16  1  0  0  0  0
 11 12  1  0  0  0  0
 11 13  1  0  0  0  0
 11 17  1  0  0  0  0
  9 10  1  0  0  0  0
  9 11  1  0  0  0  0
  9 19  1  0  0  0  0
  7  8  1  0  0  0  0
  7  9  1  0  0  0  0
 23 24  1  0  0  0  0
 23 25  1  0  0  0  0
 23 26  1  0  0  0  0
 21 22  1  0  0  0  0
 21 23  1  0  0  0  0
M  END
$$$$
default_name
  -OEChem-01062215323D

 26 25  0     1  0  0  0  0  0999 V2000
   -2.8882   -3.2497    1.2537 H   0  0  0  0  0  0  0  0  0  0  0  0
   -2.8032   -2.3157    0.7017 C   0  0  0  0  0  0  0  0  0  0  0  0
   -3.5012   -1.5857    1.1067 H   0  0  0  0  0  0  0  0  0  0  0  0
   -3.0182   -2.4907   -0.3513 H   0  0  0  0  0  0  0  0  0  0  0  0
   -1.3942   -1.7897    0.8407 C   0  0  0  0  0  0  0  0  0  0  0  0
   -0.5672   -2.4077    1.5007 O   0  0  0  0  0  0  0  0  0  0  0  0
   -1.1222   -0.6447    0.2217 N   0  0  0  0  0  0  0  0  0  0  0  0
   -1.8592   -0.1777   -0.2863 H   0  0  0  0  0  0  0  0  0  0  0  0
    0.1838    0.0363    0.2367 C   0  0  1  0  0  0  0  0  0  0  0  0
    0.8663   -0.5321    0.8676 H   0  0  0  0  0  0  0  0  0  0  0  0
    0.8031    0.1201   -1.1736 C   0  0  1  0  0  0  0  0  0  0  0  0
    1.7610    0.6339   -1.0955 H   0  0  0  0  0  0  0  0  0  0  0  0
    1.0562   -1.2383   -1.8247 C   0  0  0  0  0  0  0  0  0  0  0  0
    0.1112   -1.7368   -2.0436 H   0  0  0  0  0  0  0  0  0  0  0  0
    1.6140   -1.1061   -2.7510 H   0  0  0  0  0  0  0  0  0  0  0  0
    1.6388   -1.8655   -1.1493 H   0  0  0  0  0  0  0  0  0  0  0  0
   -0.0230    0.8518   -2.0450 O   0  0  0  0  0  0  0  0  0  0  0  0
    0.3508    0.7951   -2.9268 H   0  0  0  0  0  0  0  0  0  0  0  0
    0.0616    1.4393    0.8440 C   0  0  0  0  0  0  0  0  0  0  0  0
    0.7175    1.7597    1.8351 O   0  0  0  0  0  0  0  0  0  0  0  0
   -0.7638    2.2989    0.2305 N   0  0  0  0  0  0  0  0  0  0  0  0
   -1.2579    1.9834   -0.5879 H   0  0  0  0  0  0  0  0  0  0  0  0
   -0.9919    3.6711    0.6807 C   0  0  0  0  0  0  0  0  0  0  0  0
   -0.0366    4.1895    0.7839 H   0  0  0  0  0  0  0  0  0  0  0  0
   -1.6155    4.2077   -0.0346 H   0  0  0  0  0  0  0  0  0  0  0  0
   -1.4864    3.6611    1.6543 H   0  0  0  0  0  0  0  0  0  0  0  0
  5  6  2  0  0  0  0
  5  7  1  0  0  0  0
  2  3  1  0  0  0  0
  2  4  1  0  0  0  0
  2  5  1  0  0  0  0
  1  2  1  0  0  0  0
 19 20  2  0  0  0  0
 19 21  1  0  0  0  0
 17 18  1  0  0  0  0
 13 14  1  0  0  0  0
 13 15  1  0  0  0  0
 13 16  1  0  0  0  0
 11 12  1  0  0  0  0
 11 13  1  0  0  0  0
 11 17  1  0  0  0  0
  9 10  1  0  0  0  0
  9 11  1  0  0  0  0
  9 19  1  0  0  0  0
  7  8  1  0  0  0  0
  7  9  1  0  0  0  0
 23 24  1  0  0  0  0
 23 25  1  0  0  0  0
 23 26  1  0  0  0  0
 21 22  1  0  0  0  0
 21 23  1  0  0  0  0
M  END
$$$$
default_name
  -OEChem-01062215323D

 26 25  0     1  0  0  0  0  0999 V2000
   -2.8882   -3.2497    1.2537 H   0  0  0  0  0  0  0  0  0  0  0  0
   -2.8032   -2.3157    0.7017 C   0  0  0  0  0  0  0  0  0  0  0  0
   -3.5012   -1.5857    1.1067 H   0  0  0  0  0  0  0  0  0  0  0  0
   -3.0182   -2.4907   -0.3513 H   0  0  0  0  0  0  0  0  0  0  0  0
   -1.3942   -1.7897    0.8407 C   0  0  0  0  0  0  0  0  0  0  0  0
   -0.5672   -2.4077    1.5007 O   0  0  0  0  0  0  0  0  0  0  0  0
   -1.1222   -0.6447    0.2217 N   0  0  0  0  0  0  0  0  0  0  0  0
   -1.8592   -0.1777   -0.2863 H   0  0  0  0  0  0  0  0  0  0  0  0
    0.1838    0.0363    0.2367 C   0  0  1  0  0  0  0  0  0  0  0  0
    0.8663   -0.5321    0.8676 H   0  0  0  0  0  0  0  0  0  0  0  0
    0.8031    0.1201   -1.1736 C   0  0  1  0  0  0  0  0  0  0  0  0
    1.7610    0.6339   -1.0955 H   0  0  0  0  0  0  0  0  0  0  0  0
    1.0562   -1.2383   -1.8247 C   0  0  0  0  0  0  0  0  0  0  0  0
    0.1112   -1.7368   -2.0436 H   0  0  0  0  0  0  0  0  0  0  0  0
    1.6140   -1.1061   -2.7510 H   0  0  0  0  0  0  0  0  0  0  0  0
    1.6388   -1.8655   -1.1493 H   0  0  0  0  0  0  0  0  0  0  0  0
   -0.0230    0.8518   -2.0450 O   0  0  0  0  0  0  0  0  0  0  0  0
    0.3508    0.7951   -2.9268 H   0  0  0  0  0  0  0  0  0  0  0  0
    0.0616    1.4393    0.8440 C   0  0  0  0  0  0  0  0  0  0  0  0
    0.8953    1.8562    1.6480 O   0  0  0  0  0  0  0  0  0  0  0  0
   -0.9707    2.1914    0.4373 N   0  0  0  0  0  0  0  0  0  0  0  0
   -1.6079    1.8013   -0.2375 H   0  0  0  0  0  0  0  0  0  0  0  0
   -1.2290    3.5480    0.9174 C   0  0  0  0  0  0  0  0  0  0  0  0
   -0.3361    4.1624    0.7862 H   0  0  0  0  0  0  0  0  0  0  0  0
   -2.0564    3.9957    0.3666 H   0  0  0  0  0  0  0  0  0  0  0  0
   -1.4762    3.5206    1.9808 H   0  0  0  0  0  0  0  0  0  0  0  0
  5  6  2  0  0  0  0
  5  7  1  0  0  0  0
  2  3  1  0  0  0  0
  2  4  1  0  0  0  0
  2  5  1  0  0  0  0
  1  2  1  0  0  0  0
 19 20  2  0  0  0  0
 19 21  1  0  0  0  0
 17 18  1  0  0  0  0
 13 14  1  0  0  0  0
 13 15  1  0  0  0  0
 13 16  1  0  0  0  0
 11 12  1  0  0  0  0
 11 13  1  0  0  0  0
 11 17  1  0  0  0  0
  9 10  1  0  0  0  0
  9 11  1  0  0  0  0
  9 19  1  0  0  0  0
  7  8  1  0  0  0  0
  7  9  1  0  0  0  0
 23 24  1  0  0  0  0
 23 25  1  0  0  0  0
 23 26  1  0  0  0  0
 21 22  1  0  0  0  0
 21 23  1  0  0  0  0
M  END
$$$$
default_name
  -OEChem-01062215323D

 26 25  0     1  0  0  0  0  0999 V2000
   -2.8882   -3.2497    1.2537 H   0  0  0  0  0  0  0  0  0  0  0  0
   -2.8032   -2.3157    0.7017 C   0  0  0  0  0  0  0  0  0  0  0  0
   -3.5012   -1.5857    1.1067 H   0  0  0  0  0  0  0  0  0  0  0  0
   -3.0182   -2.4907   -0.3513 H   0  0  0  0  0  0  0  0  0  0  0  0
   -1.3942   -1.7897    0.8407 C   0  0  0  0  0  0  0  0  0  0  0  0
   -0.5672   -2.4077    1.5007 O   0  0  0  0  0  0  0  0  0  0  0  0
   -1.1222   -0.6447    0.2217 N   0  0  0  0  0  0  0  0  0  0  0  0
   -1.8592   -0.1777   -0.2863 H   0  0  0  0  0  0  0  0  0  0  0  0
    0.1838    0.0363    0.2367 C   0  0  1  0  0  0  0  0  0  0  0  0
    0.8663   -0.5321    0.8676 H   0  0  0  0  0  0  0  0  0  0  0  0
    0.8031    0.1201   -1.1736 C   0  0  1  0  0  0  0  0  0  0  0  0
    1.7610    0.6339   -1.0955 H   0  0  0  0  0  0  0  0  0  0  0  0
    1.0562   -1.2383   -1.8247 C   0  0  0  0  0  0  0  0  0  0  0  0
    0.1112   -1.7368   -2.0436 H   0  0  0  0  0  0  0  0  0  0  0  0
    1.6140   -1.1061   -2.7510 H   0  0  0  0  0  0  0  0  0  0  0  0
    1.6388   -1.8655   -1.1493 H   0  0  0  0  0  0  0  0  0  0  0  0
   -0.0230    0.8518   -2.0450 O   0  0  0  0  0  0  0  0  0  0  0  0
    0.3508    0.7951   -2.9268 H   0  0  0  0  0  0  0  0  0  0  0  0
    0.0616    1.4393    0.8440 C   0  0  0  0  0  0  0  0  0  0  0  0
    1.0128    1.9637    1.4231 O   0  0  0  0  0  0  0  0  0  0  0  0
   -1.1105    2.0705    0.6883 N   0  0  0  0  0  0  0  0  0  0  0  0
   -1.8442    1.5967    0.1877 H   0  0  0  0  0  0  0  0  0  0  0  0
   -1.3893    3.4096    1.2048 C   0  0  0  0  0  0  0  0  0  0  0  0
   -0.6221    4.1056    0.8599 H   0  0  0  0  0  0  0  0  0  0  0  0
   -2.3655    3.7539    0.8629 H   0  0  0  0  0  0  0  0  0  0  0  0
   -1.3746    3.3928    2.2967 H   0  0  0  0  0  0  0  0  0  0  0  0
  5  6  2  0  0  0  0
  5  7  1  0  0  0  0
  2  3  1  0  0  0  0
  2  4  1  0  0  0  0
  2  5  1  0  0  0  0
  1  2  1  0  0  0  0
 19 20  2  0  0  0  0
 19 21  1  0  0  0  0
 17 18  1  0  0  0  0
 13 14  1  0  0  0  0
 13 15  1  0  0  0  0
 13 16  1  0  0  0  0
 11 12  1  0  0  0  0
 11 13  1  0  0  0  0
 11 17  1  0  0  0  0
  9 10  1  0  0  0  0
  9 11  1  0  0  0  0
  9 19  1  0  0  0  0
  7  8  1  0  0  0  0
  7  9  1  0  0  0  0
 23 24  1  0  0  0  0
 23 25  1  0  0  0  0
 23 26  1  0  0  0  0
 21 22  1  0  0  0  0
 21 23  1  0  0  0  0
M  END
$$$$
default_name
  -OEChem-01062215323D

 26 25  0     1  0  0  0  0  0999 V2000
   -2.8882   -3.2497    1.2537 H   0  0  0  0  0  0  0  0  0  0  0  0
   -2.8032   -2.3157    0.7017 C   0  0  0  0  0  0  0  0  0  0  0  0
   -3.5012   -1.5857    1.1067 H   0  0  0  0  0  0  0  0  0  0  0  0
   -3.0182   -2.4907   -0.3513 H   0  0  0  0  0  0  0  0  0  0  0  0
   -1.3942   -1.7897    0.8407 C   0  0  0  0  0  0  0  0  0  0  0  0
   -0.5672   -2.4077    1.5007 O   0  0  0  0  0  0  0  0  0  0  0  0
   -1.1222   -0.6447    0.2217 N   0  0  0  0  0  0  0  0  0  0  0  0
   -1.8592   -0.1777   -0.2863 H   0  0  0  0  0  0  0  0  0  0  0  0
    0.1838    0.0363    0.2367 C   0  0  1  0  0  0  0  0  0  0  0  0
    0.8663   -0.5321    0.8676 H   0  0  0  0  0  0  0  0  0  0  0  0
    0.8031    0.1201   -1.1736 C   0  0  1  0  0  0  0  0  0  0  0  0
    1.7610    0.6339   -1.0955 H   0  0  0  0  0  0  0  0  0  0  0  0
    1.0562   -1.2383   -1.8247 C   0  0  0  0  0  0  0  0  0  0  0  0
    0.1112   -1.7368   -2.0436 H   0  0  0  0  0  0  0  0  0  0  0  0
    1.6140   -1.1061   -2.7510 H   0  0  0  0  0  0  0  0  0  0  0  0
    1.6388   -1.8655   -1.1493 H   0  0  0  0  0  0  0  0  0  0  0  0
   -0.0230    0.8518   -2.0450 O   0  0  0  0  0  0  0  0  0  0  0  0
    0.3508    0.7951   -2.9268 H   0  0  0  0  0  0  0  0  0  0  0  0
    0.0616    1.4393    0.8440 C   0  0  0  0  0  0  0  0  0  0  0  0
    1.0621    2.0750    1.1759 O   0  0  0  0  0  0  0  0  0  0  0  0
   -1.1738    1.9447    0.9663 N   0  0  0  0  0  0  0  0  0  0  0  0
   -1.9509    1.3836    0.6585 H   0  0  0  0  0  0  0  0  0  0  0  0
   -1.4619    3.2655    1.5232 C   0  0  0  0  0  0  0  0  0  0  0  0
   -0.8750    4.0230    1.0000 H   0  0  0  0  0  0  0  0  0  0  0  0
   -2.5218    3.4990    1.4205 H   0  0  0  0  0  0  0  0  0  0  0  0
   -1.1887    3.2862    2.5804 H   0  0  0  0  0  0  0  0  0  0  0  0
  5  6  2  0  0  0  0
  5  7  1  0  0  0  0
  2  3  1  0  0  0  0
  2  4  1  0  0  0  0
  2  5  1  0  0  0  0
  1  2  1  0  0  0  0
 19 20  2  0  0  0  0
 19 21  1  0  0  0  0
 17 18  1  0  0  0  0
 13 14  1  0  0  0  0
 13 15  1  0  0  0  0
 13 16  1  0  0  0  0
 11 12  1  0  0  0  0
 11 13  1  0  0  0  0
 11 17  1  0  0  0  0
  9 10  1  0  0  0  0
  9 11  1  0  0  0  0
  9 19  1  0  0  0  0
  7  8  1  0  0  0  0
  7  9  1  0  0  0  0
 23 24  1  0  0  0  0
 23 25  1  0  0  0  0
 23 26  1  0  0  0  0
 21 22  1  0  0  0  0
 21 23  1  0  0  0  0
M  END
$$$$
default_name
  -OEChem-01062215323D

 26 25  0     1  0  0  0  0  0999 V2000
   -2.8882   -3.2497    1.2537 H   0  0  0  0  0  0  0  0  0  0  0  0
   -2.8032   -2.3157    0.7017 C   0  0  0  0  0  0  0  0  0  0  0  0
   -3.5012   -1.5857    1.1067 H   0  0  0  0  0  0  0  0  0  0  0  0
   -3.0182   -2.4907   -0.3513 H   0  0  0  0  0  0  0  0  0  0  0  0
   -1.3942   -1.7897    0.8407 C   0  0  0  0  0  0  0  0  0  0  0  0
   -0.5672   -2.4077    1.5007 O   0  0  0  0  0  0  0  0  0  0  0  0
   -1.1222   -0.6447    0.2217 N   0  0  0  0  0  0  0  0  0  0  0  0
   -1.8592   -0.1777   -0.2863 H   0  0  0  0  0  0  0  0  0  0  0  0
    0.1838    0.0363    0.2367 C   0  0  1  0  0  0  0  0  0  0  0  0
    0.8663   -0.5321    0.8676 H   0  0  0  0  0  0  0  0  0  0  0  0
    0.8031    0.1201   -1.1736 C   0  0  1  0  0  0  0  0  0  0  0  0
    1.7610    0.6339   -1.0955 H   0  0  0  0  0  0  0  0  0  0  0  0
    1.0562   -1.2383   -1.8247 C   0  0  0  0  0  0  0  0  0  0  0  0
    0.1112   -1.7368   -2.0436 H   0  0  0  0  0  0  0  0  0  0  0  0
    1.6140   -1.1061   -2.7510 H   0  0  0  0  0  0  0  0  0  0  0  0
    1.6388   -1.8655   -1.1493 H   0  0  0  0  0  0  0  0  0  0  0  0
   -0.0230    0.8518   -2.0450 O   0  0  0  0  0  0  0  0  0  0  0  0
    0.3508    0.7951   -2.9268 H   0  0  0  0  0  0  0  0  0  0  0  0
    0.0616    1.4393    0.8440 C   0  0  0  0  0  0  0  0  0  0  0  0
    1.0397    2.1825    0.9232 O   0  0  0  0  0  0  0  0  0  0  0  0
   -1.1562    1.8224    1.2525 N   0  0  0  0  0  0  0  0  0  0  0  0
   -1.9206    1.1765    1.1430 H   0  0  0  0  0  0  0  0  0  0  0  0
   -1.4419    3.1254    1.8510 C   0  0  0  0  0  0  0  0  0  0  0  0
   -1.0777    3.9201    1.1969 H   0  0  0  0  0  0  0  0  0  0  0  0
   -2.5147    3.2482    2.0013 H   0  0  0  0  0  0  0  0  0  0  0  0
   -0.9309    3.2082    2.8125 H   0  0  0  0  0  0  0  0  0  0  0  0
  5  6  2  0  0  0  0
  5  7  1  0  0  0  0
  2  3  1  0  0  0  0
  2  4  1  0  0  0  0
  2  5  1  0  0  0  0
  1  2  1  0  0  0  0
 19 20  2  0  0  0  0
 19 21  1  0  0  0  0
 17 18  1  0  0  0  0
 13 14  1  0  0  0  0
 13 15  1  0  0  0  0
 13 16  1  0  0  0  0
 11 12  1  0  0  0  0
 11 13  1  0  0  0  0
 11 17  1  0  0  0  0
  9 10  1  0  0  0  0
  9 11  1  0  0  0  0
  9 19  1  0  0  0  0
  7  8  1  0  0  0  0
  7  9  1  0  0  0  0
 23 24  1  0  0  0  0
 23 25  1  0  0  0  0
 23 26  1  0  0  0  0
 21 22  1  0  0  0  0
 21 23  1  0  0  0  0
M  END
$$$$
default_name
  -OEChem-01062215323D

 26 25  0     1  0  0  0  0  0999 V2000
   -2.8882   -3.2497    1.2537 H   0  0  0  0  0  0  0  0  0  0  0  0
   -2.8032   -2.3157    0.7017 C   0  0  0  0  0  0  0  0  0  0  0  0
   -3.5012   -1.5857    1.1067 H   0  0  0  0  0  0  0  0  0  0  0  0
   -3.0182   -2.4907   -0.3513 H   0  0  0  0  0  0  0  0  0  0  0  0
   -1.3942   -1.7897    0.8407 C   0  0  0  0  0  0  0  0  0  0  0  0
   -0.5672   -2.4077    1.5007 O   0  0  0  0  0  0  0  0  0  0  0  0
   -1.1222   -0.6447    0.2217 N   0  0  0  0  0  0  0  0  0  0  0  0
   -1.8592   -0.1777   -0.2863 H   0  0  0  0  0  0  0  0  0  0  0  0
    0.1838    0.0363    0.2367 C   0  0  1  0  0  0  0  0  0  0  0  0
    0.8663   -0.5321    0.8676 H   0  0  0  0  0  0  0  0  0  0  0  0
    0.8031    0.1201   -1.1736 C   0  0  1  0  0  0  0  0  0  0  0  0
    1.7610    0.6339   -1.0955 H   0  0  0  0  0  0  0  0  0  0  0  0
    1.0562   -1.2383   -1.8247 C   0  0  0  0  0  0  0  0  0  0  0  0
    0.1112   -1.7368   -2.0436 H   0  0  0  0  0  0  0  0  0  0  0  0
    1.6140   -1.1061   -2.7510 H   0  0  0  0  0  0  0  0  0  0  0  0
    1.6388   -1.8655   -1.1493 H   0  0  0  0  0  0  0  0  0  0  0  0
   -0.0230    0.8518   -2.0450 O   0  0  0  0  0  0  0  0  0  0  0  0
    0.3508    0.7951   -2.9268 H   0  0  0  0  0  0  0  0  0  0  0  0
    0.0616    1.4393    0.8440 C   0  0  0  0  0  0  0  0  0  0  0  0
    0.9472    2.2787    0.6821 O   0  0  0  0  0  0  0  0  0  0  0  0
   -1.0589    1.7120    1.5272 N   0  0  0  0  0  0  0  0  0  0  0  0
   -1.7554    0.9896    1.6080 H   0  0  0  0  0  0  0  0  0  0  0  0
   -1.3307    2.9989    2.1657 C   0  0  0  0  0  0  0  0  0  0  0  0
   -1.2164    3.8040    1.4372 H   0  0  0  0  0  0  0  0  0  0  0  0
   -2.3445    3.0187    2.5658 H   0  0  0  0  0  0  0  0  0  0  0  0
   -0.6190    3.1640    2.9774 H   0  0  0  0  0  0  0  0  0  0  0  0
  5  6  2  0  0  0  0
  5  7  1  0  0  0  0
  2  3  1  0  0  0  0
  2  4  1  0  0  0  0
  2  5  1  0  0  0  0
  1  2  1  0  0  0  0
 19 20  2  0  0  0  0
 19 21  1  0  0  0  0
 17 18  1  0  0  0  0
 13 14  1  0  0  0  0
 13 15  1  0  0  0  0
 13 16  1  0  0  0  0
 11 12  1  0  0  0  0
 11 13  1  0  0  0  0
 11 17  1  0  0  0  0
  9 10  1  0  0  0  0
  9 11  1  0  0  0  0
  9 19  1  0  0  0  0
  7  8  1  0  0  0  0
  7  9  1  0  0  0  0
 23 24  1  0  0  0  0
 23 25  1  0  0  0  0
 23 26  1  0  0  0  0
 21 22  1  0  0  0  0
 21 23  1  0  0  0  0
M  END
$$$$
default_name
  -OEChem-01062215323D

 26 25  0     1  0  0  0  0  0999 V2000
   -2.8882   -3.2497    1.2537 H   0  0  0  0  0  0  0  0  0  0  0  0
   -2.8032   -2.3157    0.7017 C   0  0  0  0  0  0  0  0  0  0  0  0
   -3.5012   -1.5857    1.1067 H   0  0  0  0  0  0  0  0  0  0  0  0
   -3.0182   -2.4907   -0.3513 H   0  0  0  0  0  0  0  0  0  0  0  0
   -1.3942   -1.7897    0.8407 C   0  0  0  0  0  0  0  0  0  0  0  0
   -0.5672   -2.4077    1.5007 O   0  0  0  0  0  0  0  0  0  0  0  0
   -1.1222   -0.6447    0.2217 N   0  0  0  0  0  0  0  0  0  0  0  0
   -1.8592   -0.1777   -0.2863 H   0  0  0  0  0  0  0  0  0  0  0  0
    0.1838    0.0363    0.2367 C   0  0  1  0  0  0  0  0  0  0  0  0
    0.8663   -0.5321    0.8676 H   0  0  0  0  0  0  0  0  0  0  0  0
    0.8031    0.1201   -1.1736 C   0  0  1  0  0  0  0  0  0  0  0  0
    1.7610    0.6339   -1.0955 H   0  0  0  0  0  0  0  0  0  0  0  0
    1.0562   -1.2383   -1.8247 C   0  0  0  0  0  0  0  0  0  0  0  0
    0.1112   -1.7368   -2.0436 H   0  0  0  0  0  0  0  0  0  0  0  0
    1.6140   -1.1061   -2.7510 H   0  0  0  0  0  0  0  0  0  0  0  0
    1.6388   -1.8655   -1.1493 H   0  0  0  0  0  0  0  0  0  0  0  0
   -0.0230    0.8518   -2.0450 O   0  0  0  0  0  0  0  0  0  0  0  0
    0.3508    0.7951   -2.9268 H   0  0  0  0  0  0  0  0  0  0  0  0
    0.0616    1.4393    0.8440 C   0  0  0  0  0  0  0  0  0  0  0  0
    0.7910    2.3573    0.4692 O   0  0  0  0  0  0  0  0  0  0  0  0
   -0.8885    1.6209    1.7718 N   0  0  0  0  0  0  0  0  0  0  0  0
   -1.4666    0.8356    2.0220 H   0  0  0  0  0  0  0  0  0  0  0  0
   -1.1357    2.8945    2.4459 C   0  0  0  0  0  0  0  0  0  0  0  0
   -1.2815    3.6826    1.7045 H   0  0  0  0  0  0  0  0  0  0  0  0
   -2.0230    2.8261    3.0756 H   0  0  0  0  0  0  0  0  0  0  0  0
   -0.2741    3.1567    3.0637 H   0  0  0  0  0  0  0  0  0  0  0  0
  5  6  2  0  0  0  0
  5  7  1  0  0  0  0
  2  3  1  0  0  0  0
  2  4  1  0  0  0  0
  2  5  1  0  0  0  0
  1  2  1  0  0  0  0
 19 20  2  0  0  0  0
 19 21  1  0  0  0  0
 17 18  1  0  0  0  0
 13 14  1  0  0  0  0
 13 15  1  0  0  0  0
 13 16  1  0  0  0  0
 11 12  1  0  0  0  0
 11 13  1  0  0  0  0
 11 17  1  0  0  0  0
  9 10  1  0  0  0  0
  9 11  1  0  0  0  0
  9 19  1  0  0  0  0
  7  8  1  0  0  0  0
  7  9  1  0  0  0  0
 23 24  1  0  0  0  0
 23 25  1  0  0  0  0
 23 26  1  0  0  0  0
 21 22  1  0  0  0  0
 21 23  1  0  0  0  0
M  END
$$$$
default_name
  -OEChem-01062215323D

 26 25  0     1  0  0  0  0  0999 V2000
   -2.8882   -3.2497    1.2537 H   0  0  0  0  0  0  0  0  0  0  0  0
   -2.8032   -2.3157    0.7017 C   0  0  0  0  0  0  0  0  0  0  0  0
   -3.5012   -1.5857    1.1067 H   0  0  0  0  0  0  0  0  0  0  0  0
   -3.0182   -2.4907   -0.3513 H   0  0  0  0  0  0  0  0  0  0  0  0
   -1.3942   -1.7897    0.8407 C   0  0  0  0  0  0  0  0  0  0  0  0
   -0.5672   -2.4077    1.5007 O   0  0  0  0  0  0  0  0  0  0  0  0
   -1.1222   -0.6447    0.2217 N   0  0  0  0  0  0  0  0  0  0  0  0
   -1.8592   -0.1777   -0.2863 H   0  0  0  0  0  0  0  0  0  0  0  0
    0.1838    0.0363    0.2367 C   0  0  1  0  0  0  0  0  0  0  0  0
    0.8663   -0.5321    0.8676 H   0  0  0  0  0  0  0  0  0  0  0  0
    0.8031    0.1201   -1.1736 C   0  0  1  0  0  0  0  0  0  0  0  0
    1.7610    0.6339   -1.0955 H   0  0  0  0  0  0  0  0  0  0  0  0
    1.0562   -1.2383   -1.8247 C   0  0  0  0  0  0  0  0  0  0  0  0
    0.1112   -1.7368   -2.0436 H   0  0  0  0  0  0  0  0  0  0  0  0
    1.6140   -1.1061   -2.7510 H   0  0  0  0  0  0  0  0  0  0  0  0
    1.6388   -1.8655   -1.1493 H   0  0  0  0  0  0  0  0  0  0  0  0
   -0.0230    0.8518   -2.0450 O   0  0  0  0  0  0  0  0  0  0  0  0
    0.3508    0.7951   -2.9268 H   0  0  0  0  0  0  0  0  0  0  0  0
    0.0616    1.4393    0.8440 C   0  0  0  0  0  0  0  0  0  0  0  0
    0.5816    2.4128    0.2988 O   0  0  0  0  0  0  0  0  0  0  0  0
   -0.6567    1.5555    1.9696 N   0  0  0  0  0  0  0  0  0  0  0  0
   -1.0739    0.7250    2.3566 H   0  0  0  0  0  0  0  0  0  0  0  0
   -0.8703    2.8195    2.6726 C   0  0  0  0  0  0  0  0  0  0  0  0
   -1.2687    3.5642    1.9807 H   0  0  0  0  0  0  0  0  0  0  0  0
   -1.5720    2.6835    3.4958 H   0  0  0  0  0  0  0  0  0  0  0  0
    0.0801    3.1867    3.0656 H   0  0  0  0  0  0  0  0  0  0  0  0
  5  6  2  0  0  0  0
  5  7  1  0  0  0  0
  2  3  1  0  0  0  0
  2  4  1  0  0  0  0
  2  5  1  0  0  0  0
  1  2  1  0  0  0  0
 19 20  2  0  0  0  0
 19 21  1  0  0  0  0
 17 18  1  0  0  0  0
 13 14  1  0  0  0  0
 13 15  1  0  0  0  0
 13 16  1  0  0  0  0
 11 12  1  0  0  0  0
 11 13  1  0  0  0  0
 11 17  1  0  0  0  0
  9 10  1  0  0  0  0
  9 11  1  0  0  0  0
  9 19  1  0  0  0  0
  7  8  1  0  0  0  0
  7  9  1  0  0  0  0
 23 24  1  0  0  0  0
 23 25  1  0  0  0  0
 23 26  1  0  0  0  0
 21 22  1  0  0  0  0
 21 23  1  0  0  0  0
M  END
$$$$
default_name
  -OEChem-01062215323D

 26 25  0     1  0  0  0  0  0999 V2000
   -2.8882   -3.2497    1.2537 H   0  0  0  0  0  0  0  0  0  0  0  0
   -2.8032   -2.3157    0.7017 C   0  0  0  0  0  0  0  0  0  0  0  0
   -3.5012   -1.5857    1.1067 H   0  0  0  0  0  0  0  0  0  0  0  0
   -3.0182   -2.4907   -0.3513 H   0  0  0  0  0  0  0  0  0  0  0  0
   -1.3942   -1.7897    0.8407 C   0  0  0  0  0  0  0  0  0  0  0  0
   -0.5672   -2.4077    1.5007 O   0  0  0  0  0  0  0  0  0  0  0  0
   -1.1222   -0.6447    0.2217 N   0  0  0  0  0  0  0  0  0  0  0  0
   -1.8592   -0.1777   -0.2863 H   0  0  0  0  0  0  0  0  0  0  0  0
    0.1838    0.0363    0.2367 C   0  0  1  0  0  0  0  0  0  0  0  0
    0.8663   -0.5321    0.8676 H   0  0  0  0  0  0  0  0  0  0  0  0
    0.8031    0.1201   -1.1736 C   0  0  1  0  0  0  0  0  0  0  0  0
    1.7610    0.6339   -1.0955 H   0  0  0  0  0  0  0  0  0  0  0  0
    1.0562   -1.2383   -1.8247 C   0  0  0  0  0  0  0  0  0  0  0  0
    0.1112   -1.7368   -2.0436 H   0  0  0  0  0  0  0  0  0  0  0  0
    1.6140   -1.1061   -2.7510 H   0  0  0  0  0  0  0  0  0  0  0  0
    1.6388   -1.8655   -1.1493 H   0  0  0  0  0  0  0  0  0  0  0  0
   -0.0230    0.8518   -2.0450 O   0  0  0  0  0  0  0  0  0  0  0  0
    0.3508    0.7951   -2.9268 H   0  0  0  0  0  0  0  0  0  0  0  0
    0.0616    1.4393    0.8440 C   0  0  0  0  0  0  0  0  0  0  0  0
    0.3333    2.4414    0.1828 O   0  0  0  0  0  0  0  0  0  0  0  0
   -0.3793    1.5201    2.1072 N   0  0  0  0  0  0  0  0  0  0  0  0
   -0.6040    0.6653    2.5891 H   0  0  0  0  0  0  0  0  0  0  0  0
   -0.5527    2.7790    2.8303 C   0  0  0  0  0  0  0  0  0  0  0  0
   -1.1788    3.4569    2.2468 H   0  0  0  0  0  0  0  0  0  0  0  0
   -1.0223    2.6007    3.7978 H   0  0  0  0  0  0  0  0  0  0  0  0
    0.4197    3.2521    2.9828 H   0  0  0  0  0  0  0  0  0  0  0  0
  5  6  2  0  0  0  0
  5  7  1  0  0  0  0
  2  3  1  0  0  0  0
  2  4  1  0  0  0  0
  2  5  1  0  0  0  0
  1  2  1  0  0  0  0
 19 20  2  0  0  0  0
 19 21  1  0  0  0  0
 17 18  1  0  0  0  0
 13 14  1  0  0  0  0
 13 15  1  0  0  0  0
 13 16  1  0  0  0  0
 11 12  1  0  0  0  0
 11 13  1  0  0  0  0
 11 17  1  0  0  0  0
  9 10  1  0  0  0  0
  9 11  1  0  0  0  0
  9 19  1  0  0  0  0
  7  8  1  0  0  0  0
  7  9  1  0  0  0  0
 23 24  1  0  0  0  0
 23 25  1  0  0  0  0
 23 26  1  0  0  0  0
 21 22  1  0  0  0  0
 21 23  1  0  0  0  0
M  END
$$$$
default_name
  -OEChem-01062215323D

 26 25  0     1  0  0  0  0  0999 V2000
   -2.8882   -3.2497    1.2537 H   0  0  0  0  0  0  0  0  0  0  0  0
   -2.8032   -2.3157    0.7017 C   0  0  0  0  0  0  0  0  0  0  0  0
   -3.5012   -1.5857    1.1067 H   0  0  0  0  0  0  0  0  0  0  0  0
   -3.0182   -2.4907   -0.3513 H   0  0  0  0  0  0  0  0  0  0  0  0
   -1.3942   -1.7897    0.8407 C   0  0  0  0  0  0  0  0  0  0  0  0
   -0.5672   -2.4077    1.5007 O   0  0  0  0  0  0  0  0  0  0  0  0
   -1.1222   -0.6447    0.2217 N   0  0  0  0  0  0  0  0  0  0  0  0
   -1.8592   -0.1777   -0.2863 H   0  0  0  0  0  0  0  0  0  0  0  0
    0.1838    0.0363    0.2367 C   0  0  1  0  0  0  0  0  0  0  0  0
    0.8663   -0.5321    0.8676 H   0  0  0  0  0  0  0  0  0  0  0  0
    0.8031    0.1201   -1.1736 C   0  0  1  0  0  0  0  0  0  0  0  0
    1.7610    0.6339   -1.0955 H   0  0  0  0  0  0  0  0  0  0  0  0
    1.0562   -1.2383   -1.8247 C   0  0  0  0  0  0  0  0  0  0  0  0
    0.1112   -1.7368   -2.0436 H   0  0  0  0  0  0  0  0  0  0  0  0
    1.6140   -1.1061   -2.7510 H   0  0  0  0  0  0  0  0  0  0  0  0
    1.6388   -1.8655   -1.1493 H   0  0  0  0  0  0  0  0  0  0  0  0
   -0.0230    0.8518   -2.0450 O   0  0  0  0  0  0  0  0  0  0  0  0
    0.3508    0.7951   -2.9268 H   0  0  0  0  0  0  0  0  0  0  0  0
    0.0616    1.4393    0.8440 C   0  0  0  0  0  0  0  0  0  0  0  0
    0.0631    2.4412    0.1288 O   0  0  0  0  0  0  0  0  0  0  0  0
   -0.0751    1.5172    2.1751 N   0  0  0  0  0  0  0  0  0  0  0  0
   -0.0889    0.6606    2.7037 H   0  0  0  0  0  0  0  0  0  0  0  0
   -0.2043    2.7756    2.9082 C   0  0  0  0  0  0  0  0  0  0  0  0
   -1.0179    3.3679    2.4848 H   0  0  0  0  0  0  0  0  0  0  0  0
   -0.4113    2.5832    3.9611 H   0  0  0  0  0  0  0  0  0  0  0  0
    0.7214    3.3483    2.8212 H   0  0  0  0  0  0  0  0  0  0  0  0
  5  6  2  0  0  0  0
  5  7  1  0  0  0  0
  2  3  1  0  0  0  0
  2  4  1  0  0  0  0
  2  5  1  0  0  0  0
  1  2  1  0  0  0  0
 19 20  2  0  0  0  0
 19 21  1  0  0  0  0
 17 18  1  0  0  0  0
 13 14  1  0  0  0  0
 13 15  1  0  0  0  0
 13 16  1  0  0  0  0
 11 12  1  0  0  0  0
 11 13  1  0  0  0  0
 11 17  1  0  0  0  0
  9 10  1  0  0  0  0
  9 11  1  0  0  0  0
  9 19  1  0  0  0  0
  7  8  1  0  0  0  0
  7  9  1  0  0  0  0
 23 24  1  0  0  0  0
 23 25  1  0  0  0  0
 23 26  1  0  0  0  0
 21 22  1  0  0  0  0
 21 23  1  0  0  0  0
M  END
$$$$
default_name
  -OEChem-01062215323D

 26 25  0     1  0  0  0  0  0999 V2000
   -2.8882   -3.2497    1.2537 H   0  0  0  0  0  0  0  0  0  0  0  0
   -2.8032   -2.3157    0.7017 C   0  0  0  0  0  0  0  0  0  0  0  0
   -3.5012   -1.5857    1.1067 H   0  0  0  0  0  0  0  0  0  0  0  0
   -3.0182   -2.4907   -0.3513 H   0  0  0  0  0  0  0  0  0  0  0  0
   -1.3942   -1.7897    0.8407 C   0  0  0  0  0  0  0  0  0  0  0  0
   -0.5672   -2.4077    1.5007 O   0  0  0  0  0  0  0  0  0  0  0  0
   -1.1222   -0.6447    0.2217 N   0  0  0  0  0  0  0  0  0  0  0  0
   -1.8592   -0.1777   -0.2863 H   0  0  0  0  0  0  0  0  0  0  0  0
    0.1838    0.0363    0.2367 C   0  0  1  0  0  0  0  0  0  0  0  0
    0.8663   -0.5321    0.8676 H   0  0  0  0  0  0  0  0  0  0  0  0
    0.8031    0.1201   -1.1736 C   0  0  1  0  0  0  0  0  0  0  0  0
    1.7610    0.6339   -1.0955 H   0  0  0  0  0  0  0  0  0  0  0  0
    1.0562   -1.2383   -1.8247 C   0  0  0  0  0  0  0  0  0  0  0  0
    0.1112   -1.7368   -2.0436 H   0  0  0  0  0  0  0  0  0  0  0  0
    1.6140   -1.1061   -2.7510 H   0  0  0  0  0  0  0  0  0  0  0  0
    1.6388   -1.8655   -1.1493 H   0  0  0  0  0  0  0  0  0  0  0  0
   -0.0230    0.8518   -2.0450 O   0  0  0  0  0  0  0  0  0  0  0  0
    0.3508    0.7951   -2.9268 H   0  0  0  0  0  0  0  0  0  0  0  0
    0.0616    1.4393    0.8440 C   0  0  0  0  0  0  0  0  0  0  0  0
   -0.2107    2.4122    0.1407 O   0  0  0  0  0  0  0  0  0  0  0  0
    0.2351    1.5470    2.1687 N   0  0  0  0  0  0  0  0  0  0  0  0
    0.4363    0.7112    2.6925 H   0  0  0  0  0  0  0  0  0  0  0  0
    0.1510    2.8096    2.9011 C   0  0  0  0  0  0  0  0  0  0  0  0
   -0.7970    3.3033    2.6784 H   0  0  0  0  0  0  0  0  0  0  0  0
    0.2194    2.6323    3.9746 H   0  0  0  0  0  0  0  0  0  0  0  0
    0.9647    3.4689    2.5916 H   0  0  0  0  0  0  0  0  0  0  0  0
  5  6  2  0  0  0  0
  5  7  1  0  0  0  0
  2  3  1  0  0  0  0
  2  4  1  0  0  0  0
  2  5  1  0  0  0  0
  1  2  1  0  0  0  0
 19 20  2  0  0  0  0
 19 21  1  0  0  0  0
 17 18  1  0  0  0  0
 13 14  1  0  0  0  0
 13 15  1  0  0  0  0
 13 16  1  0  0  0  0
 11 12  1  0  0  0  0
 11 13  1  0  0  0  0
 11 17  1  0  0  0  0
  9 10  1  0  0  0  0
  9 11  1  0  0  0  0
  9 19  1  0  0  0  0
  7  8  1  0  0  0  0
  7  9  1  0  0  0  0
 23 24  1  0  0  0  0
 23 25  1  0  0  0  0
 23 26  1  0  0  0  0
 21 22  1  0  0  0  0
 21 23  1  0  0  0  0
M  END
$$$$
default_name
  -OEChem-01062215323D

 26 25  0     1  0  0  0  0  0999 V2000
   -2.8882   -3.2497    1.2537 H   0  0  0  0  0  0  0  0  0  0  0  0
   -2.8032   -2.3157    0.7017 C   0  0  0  0  0  0  0  0  0  0  0  0
   -3.5012   -1.5857    1.1067 H   0  0  0  0  0  0  0  0  0  0  0  0
   -3.0182   -2.4907   -0.3513 H   0  0  0  0  0  0  0  0  0  0  0  0
   -1.3942   -1.7897    0.8407 C   0  0  0  0  0  0  0  0  0  0  0  0
   -0.5672   -2.4077    1.5007 O   0  0  0  0  0  0  0  0  0  0  0  0
   -1.1222   -0.6447    0.2217 N   0  0  0  0  0  0  0  0  0  0  0  0
   -1.8592   -0.1777   -0.2863 H   0  0  0  0  0  0  0  0  0  0  0  0
    0.1838    0.0363    0.2367 C   0  0  1  0  0  0  0  0  0  0  0  0
    0.8663   -0.5321    0.8676 H   0  0  0  0  0  0  0  0  0  0  0  0
    0.8031    0.1201   -1.1736 C   0  0  1  0  0  0  0  0  0  0  0  0
    1.7610    0.6339   -1.0955 H   0  0  0  0  0  0  0  0  0  0  0  0
    1.0562   -1.2383   -1.8247 C   0  0  0  0  0  0  0  0  0  0  0  0
    0.1112   -1.7368   -2.0436 H   0  0  0  0  0  0  0  0  0  0  0  0
    1.6140   -1.1061   -2.7510 H   0  0  0  0  0  0  0  0  0  0  0  0
    1.6388   -1.8655   -1.1493 H   0  0  0  0  0  0  0  0  0  0  0  0
   -0.0230    0.8518   -2.0450 O   0  0  0  0  0  0  0  0  0  0  0  0
    0.3508    0.7951   -2.9268 H   0  0  0  0  0  0  0  0  0  0  0  0
    0.0616    1.4393    0.8440 C   0  0  0  0  0  0  0  0  0  0  0  0
   -0.4693    2.3564    0.2176 O   0  0  0  0  0  0  0  0  0  0  0  0
    0.5301    1.6074    2.0885 N   0  0  0  0  0  0  0  0  0  0  0  0
    0.9357    0.8136    2.5563 H   0  0  0  0  0  0  0  0  0  0  0  0
    0.4890    2.8787    2.8094 C   0  0  0  0  0  0  0  0  0  0  0  0
   -0.5312    3.2676    2.8145 H   0  0  0  0  0  0  0  0  0  0  0  0
    0.8267    2.7447    3.8372 H   0  0  0  0  0  0  0  0  0  0  0  0
    1.1330    3.6055    2.3098 H   0  0  0  0  0  0  0  0  0  0  0  0
  5  6  2  0  0  0  0
  5  7  1  0  0  0  0
  2  3  1  0  0  0  0
  2  4  1  0  0  0  0
  2  5  1  0  0  0  0
  1  2  1  0  0  0  0
 19 20  2  0  0  0  0
 19 21  1  0  0  0  0
 17 18  1  0  0  0  0
 13 14  1  0  0  0  0
 13 15  1  0  0  0  0
 13 16  1  0  0  0  0
 11 12  1  0  0  0  0
 11 13  1  0  0  0  0
 11 17  1  0  0  0  0
  9 10  1  0  0  0  0
  9 11  1  0  0  0  0
  9 19  1  0  0  0  0
  7  8  1  0  0  0  0
  7  9  1  0  0  0  0
 23 24  1  0  0  0  0
 23 25  1  0  0  0  0
 23 26  1  0  0  0  0
 21 22  1  0  0  0  0
 21 23  1  0  0  0  0
M  END
$$$$
default_name
  -OEChem-01062215323D

 26 25  0     1  0  0  0  0  0999 V2000
   -2.8882   -3.2497    1.2537 H   0  0  0  0  0  0  0  0  0  0  0  0
   -2.8032   -2.3157    0.7017 C   0  0  0  0  0  0  0  0  0  0  0  0
   -3.5012   -1.5857    1.1067 H   0  0  0  0  0  0  0  0  0  0  0  0
   -3.0182   -2.4907   -0.3513 H   0  0  0  0  0  0  0  0  0  0  0  0
   -1.3942   -1.7897    0.8407 C   0  0  0  0  0  0  0  0  0  0  0  0
   -0.5672   -2.4077    1.5007 O   0  0  0  0  0  0  0  0  0  0  0  0
   -1.1222   -0.6447    0.2217 N   0  0  0  0  0  0  0  0  0  0  0  0
   -1.8592   -0.1777   -0.2863 H   0  0  0  0  0  0  0  0  0  0  0  0
    0.1838    0.0363    0.2367 C   0  0  1  0  0  0  0  0  0  0  0  0
    0.8663   -0.5321    0.8676 H   0  0  0  0  0  0  0  0  0  0  0  0
    0.8031    0.1201   -1.1736 C   0  0  1  0  0  0  0  0  0  0  0  0
    1.7610    0.6339   -1.0955 H   0  0  0  0  0  0  0  0  0  0  0  0
    1.0562   -1.2383   -1.8247 C   0  0  0  0  0  0  0  0  0  0  0  0
    0.1112   -1.7368   -2.0436 H   0  0  0  0  0  0  0  0  0  0  0  0
    1.6140   -1.1061   -2.7510 H   0  0  0  0  0  0  0  0  0  0  0  0
    1.6388   -1.8655   -1.1493 H   0  0  0  0  0  0  0  0  0  0  0  0
   -0.0230    0.8518   -2.0450 O   0  0  0  0  0  0  0  0  0  0  0  0
    0.3508    0.7951   -2.9268 H   0  0  0  0  0  0  0  0  0  0  0  0
    0.0616    1.4393    0.8440 C   0  0  0  0  0  0  0  0  0  0  0  0
   -0.6952    2.2776    0.3543 O   0  0  0  0  0  0  0  0  0  0  0  0
    0.7899    1.6944    1.9399 N   0  0  0  0  0  0  0  0  0  0  0  0
    1.3754    0.9610    2.3044 H   0  0  0  0  0  0  0  0  0  0  0  0
    0.7867    2.9783    2.6394 C   0  0  0  0  0  0  0  0  0  0  0  0
   -0.2386    3.2631    2.8838 H   0  0  0  0  0  0  0  0  0  0  0  0
    1.3693    2.9126    3.5584 H   0  0  0  0  0  0  0  0  0  0  0  0
    1.2149    3.7489    1.9949 H   0  0  0  0  0  0  0  0  0  0  0  0
  5  6  2  0  0  0  0
  5  7  1  0  0  0  0
  2  3  1  0  0  0  0
  2  4  1  0  0  0  0
  2  5  1  0  0  0  0
  1  2  1  0  0  0  0
 19 20  2  0  0  0  0
 19 21  1  0  0  0  0
 17 18  1  0  0  0  0
 13 14  1  0  0  0  0
 13 15  1  0  0  0  0
 13 16  1  0  0  0  0
 11 12  1  0  0  0  0
 11 13  1  0  0  0  0
 11 17  1  0  0  0  0
  9 10  1  0  0  0  0
  9 11  1  0  0  0  0
  9 19  1  0  0  0  0
  7  8  1  0  0  0  0
  7  9  1  0  0  0  0
 23 24  1  0  0  0  0
 23 25  1  0  0  0  0
 23 26  1  0  0  0  0
 21 22  1  0  0  0  0
 21 23  1  0  0  0  0
M  END
$$$$
default_name
  -OEChem-01062215323D

 26 25  0     1  0  0  0  0  0999 V2000
   -2.8882   -3.2497    1.2537 H   0  0  0  0  0  0  0  0  0  0  0  0
   -2.8032   -2.3157    0.7017 C   0  0  0  0  0  0  0  0  0  0  0  0
   -3.5012   -1.5857    1.1067 H   0  0  0  0  0  0  0  0  0  0  0  0
   -3.0182   -2.4907   -0.3513 H   0  0  0  0  0  0  0  0  0  0  0  0
   -1.3942   -1.7897    0.8407 C   0  0  0  0  0  0  0  0  0  0  0  0
   -0.5672   -2.4077    1.5007 O   0  0  0  0  0  0  0  0  0  0  0  0
   -1.1222   -0.6447    0.2217 N   0  0  0  0  0  0  0  0  0  0  0  0
   -1.8592   -0.1777   -0.2863 H   0  0  0  0  0  0  0  0  0  0  0  0
    0.1838    0.0363    0.2367 C   0  0  1  0  0  0  0  0  0  0  0  0
    0.8663   -0.5321    0.8676 H   0  0  0  0  0  0  0  0  0  0  0  0
    0.8031    0.1201   -1.1736 C   0  0  1  0  0  0  0  0  0  0  0  0
    1.7610    0.6339   -1.0955 H   0  0  0  0  0  0  0  0  0  0  0  0
    1.0562   -1.2383   -1.8247 C   0  0  0  0  0  0  0  0  0  0  0  0
    0.1112   -1.7368   -2.0436 H   0  0  0  0  0  0  0  0  0  0  0  0
    1.6140   -1.1061   -2.7510 H   0  0  0  0  0  0  0  0  0  0  0  0
    1.6388   -1.8655   -1.1493 H   0  0  0  0  0  0  0  0  0  0  0  0
   -0.0230    0.8518   -2.0450 O   0  0  0  0  0  0  0  0  0  0  0  0
    0.3508    0.7951   -2.9268 H   0  0  0  0  0  0  0  0  0  0  0  0
    0.0616    1.4393    0.8440 C   0  0  0  0  0  0  0  0  0  0  0  0
   -0.8730    2.1811    0.5414 O   0  0  0  0  0  0  0  0  0  0  0  0
    0.9968    1.8019    1.7331 N   0  0  0  0  0  0  0  0  0  0  0  0
    1.7253    1.1431    1.9539 H   0  0  0  0  0  0  0  0  0  0  0  0
    1.0237    3.1014    2.4026 C   0  0  0  0  0  0  0  0  0  0  0  0
    0.0609    3.2902    2.8815 H   0  0  0  0  0  0  0  0  0  0  0  0
    1.8101    3.1246    3.1572 H   0  0  0  0  0  0  0  0  0  0  0  0
    1.2047    3.8894    1.6684 H   0  0  0  0  0  0  0  0  0  0  0  0
  5  6  2  0  0  0  0
  5  7  1  0  0  0  0
  2  3  1  0  0  0  0
  2  4  1  0  0  0  0
  2  5  1  0  0  0  0
  1  2  1  0  0  0  0
 19 20  2  0  0  0  0
 19 21  1  0  0  0  0
 17 18  1  0  0  0  0
 13 14  1  0  0  0  0
 13 15  1  0  0  0  0
 13 16  1  0  0  0  0
 11 12  1  0  0  0  0
 11 13  1  0  0  0  0
 11 17  1  0  0  0  0
  9 10  1  0  0  0  0
  9 11  1  0  0  0  0
  9 19  1  0  0  0  0
  7  8  1  0  0  0  0
  7  9  1  0  0  0  0
 23 24  1  0  0  0  0
 23 25  1  0  0  0  0
 23 26  1  0  0  0  0
 21 22  1  0  0  0  0
 21 23  1  0  0  0  0
M  END
$$$$
default_name
  -OEChem-01062215323D

 26 25  0     1  0  0  0  0  0999 V2000
   -2.8882   -3.2497    1.2537 H   0  0  0  0  0  0  0  0  0  0  0  0
   -2.8032   -2.3157    0.7017 C   0  0  0  0  0  0  0  0  0  0  0  0
   -3.5012   -1.5857    1.1067 H   0  0  0  0  0  0  0  0  0  0  0  0
   -3.0182   -2.4907   -0.3513 H   0  0  0  0  0  0  0  0  0  0  0  0
   -1.3942   -1.7897    0.8407 C   0  0  0  0  0  0  0  0  0  0  0  0
   -0.5672   -2.4077    1.5007 O   0  0  0  0  0  0  0  0  0  0  0  0
   -1.1222   -0.6447    0.2217 N   0  0  0  0  0  0  0  0  0  0  0  0
   -1.8592   -0.1777   -0.2863 H   0  0  0  0  0  0  0  0  0  0  0  0
    0.1838    0.0363    0.2367 C   0  0  1  0  0  0  0  0  0  0  0  0
    0.8663   -0.5321    0.8676 H   0  0  0  0  0  0  0  0  0  0  0  0
    0.8031    0.1201   -1.1736 C   0  0  1  0  0  0  0  0  0  0  0  0
    1.7610    0.6339   -1.0955 H   0  0  0  0  0  0  0  0  0  0  0  0
    1.0562   -1.2383   -1.8247 C   0  0  0  0  0  0  0  0  0  0  0  0
    0.1112   -1.7368   -2.0436 H   0  0  0  0  0  0  0  0  0  0  0  0
    1.6140   -1.1061   -2.7510 H   0  0  0  0  0  0  0  0  0  0  0  0
    1.6388   -1.8655   -1.1493 H   0  0  0  0  0  0  0  0  0  0  0  0
   -0.0230    0.8518   -2.0450 O   0  0  0  0  0  0  0  0  0  0  0  0
    0.3508    0.7951   -2.9268 H   0  0  0  0  0  0  0  0  0  0  0  0
    0.0616    1.4393    0.8440 C   0  0  0  0  0  0  0  0  0  0  0  0
   -0.9905    2.0735    0.7663 O   0  0  0  0  0  0  0  0  0  0  0  0
    1.1366    1.9227    1.4821 N   0  0  0  0  0  0  0  0  0  0  0  0
    1.9617    1.3477    1.5287 H   0  0  0  0  0  0  0  0  0  0  0  0
    1.1841    3.2398    2.1152 C   0  0  0  0  0  0  0  0  0  0  0  0
    0.3468    3.3470    2.8078 H   0  0  0  0  0  0  0  0  0  0  0  0
    2.1192    3.3664    2.6609 H   0  0  0  0  0  0  0  0  0  0  0  0
    1.1031    4.0172    1.3526 H   0  0  0  0  0  0  0  0  0  0  0  0
  5  6  2  0  0  0  0
  5  7  1  0  0  0  0
  2  3  1  0  0  0  0
  2  4  1  0  0  0  0
  2  5  1  0  0  0  0
  1  2  1  0  0  0  0
 19 20  2  0  0  0  0
 19 21  1  0  0  0  0
 17 18  1  0  0  0  0
 13 14  1  0  0  0  0
 13 15  1  0  0  0  0
 13 16  1  0  0  0  0
 11 12  1  0  0  0  0
 11 13  1  0  0  0  0
 11 17  1  0  0  0  0
  9 10  1  0  0  0  0
  9 11  1  0  0  0  0
  9 19  1  0  0  0  0
  7  8  1  0  0  0  0
  7  9  1  0  0  0  0
 23 24  1  0  0  0  0
 23 25  1  0  0  0  0
 23 26  1  0  0  0  0
 21 22  1  0  0  0  0
 21 23  1  0  0  0  0
M  END
$$$$
default_name
  -OEChem-01062215323D

 26 25  0     1  0  0  0  0  0999 V2000
   -2.8882   -3.2497    1.2537 H   0  0  0  0  0  0  0  0  0  0  0  0
   -2.8032   -2.3157    0.7017 C   0  0  0  0  0  0  0  0  0  0  0  0
   -3.5012   -1.5857    1.1067 H   0  0  0  0  0  0  0  0  0  0  0  0
   -3.0182   -2.4907   -0.3513 H   0  0  0  0  0  0  0  0  0  0  0  0
   -1.3942   -1.7897    0.8407 C   0  0  0  0  0  0  0  0  0  0  0  0
   -0.5672   -2.4077    1.5007 O   0  0  0  0  0  0  0  0  0  0  0  0
   -1.1222   -0.6447    0.2217 N   0  0  0  0  0  0  0  0  0  0  0  0
   -1.8592   -0.1777   -0.2863 H   0  0  0  0  0  0  0  0  0  0  0  0
    0.1838    0.0363    0.2367 C   0  0  1  0  0  0  0  0  0  0  0  0
    0.8663   -0.5321    0.8676 H   0  0  0  0  0  0  0  0  0  0  0  0
    0.8031    0.1201   -1.1736 C   0  0  1  0  0  0  0  0  0  0  0  0
    1.7610    0.6339   -1.0955 H   0  0  0  0  0  0  0  0  0  0  0  0
    1.0562   -1.2383   -1.8247 C   0  0  0  0  0  0  0  0  0  0  0  0
    0.1112   -1.7368   -2.0436 H   0  0  0  0  0  0  0  0  0  0  0  0
    1.6140   -1.1061   -2.7510 H   0  0  0  0  0  0  0  0  0  0  0  0
    1.6388   -1.8655   -1.1493 H   0  0  0  0  0  0  0  0  0  0  0  0
   -0.0230    0.8518   -2.0450 O   0  0  0  0  0  0  0  0  0  0  0  0
    0.3508    0.7951   -2.9268 H   0  0  0  0  0  0  0  0  0  0  0  0
    0.0616    1.4393    0.8440 C   0  0  0  0  0  0  0  0  0  0  0  0
   -1.0398    1.9622    1.0135 O   0  0  0  0  0  0  0  0  0  0  0  0
    1.1999    2.0486    1.2041 N   0  0  0  0  0  0  0  0  0  0  0  0
    2.0684    1.5608    1.0579 H   0  0  0  0  0  0  0  0  0  0  0  0
    1.2567    3.3839    1.7968 C   0  0  0  0  0  0  0  0  0  0  0  0
    0.5998    3.4296    2.6677 H   0  0  0  0  0  0  0  0  0  0  0  0
    2.2756    3.6213    2.1034 H   0  0  0  0  0  0  0  0  0  0  0  0
    0.9172    4.1238    1.0689 H   0  0  0  0  0  0  0  0  0  0  0  0
  5  6  2  0  0  0  0
  5  7  1  0  0  0  0
  2  3  1  0  0  0  0
  2  4  1  0  0  0  0
  2  5  1  0  0  0  0
  1  2  1  0  0  0  0
 19 20  2  0  0  0  0
 19 21  1  0  0  0  0
 17 18  1  0  0  0  0
 13 14  1  0  0  0  0
 13 15  1  0  0  0  0
 13 16  1  0  0  0  0
 11 12  1  0  0  0  0
 11 13  1  0  0  0  0
 11 17  1  0  0  0  0
  9 10  1  0  0  0  0
  9 11  1  0  0  0  0
  9 19  1  0  0  0  0
  7  8  1  0  0  0  0
  7  9  1  0  0  0  0
 23 24  1  0  0  0  0
 23 25  1  0  0  0  0
 23 26  1  0  0  0  0
 21 22  1  0  0  0  0
 21 23  1  0  0  0  0
M  END
$$$$
default_name
  -OEChem-01062215323D

 26 25  0     1  0  0  0  0  0999 V2000
   -2.8882   -3.2497    1.2537 H   0  0  0  0  0  0  0  0  0  0  0  0
   -2.8032   -2.3157    0.7017 C   0  0  0  0  0  0  0  0  0  0  0  0
   -3.5012   -1.5857    1.1067 H   0  0  0  0  0  0  0  0  0  0  0  0
   -3.0182   -2.4907   -0.3513 H   0  0  0  0  0  0  0  0  0  0  0  0
   -1.3942   -1.7897    0.8407 C   0  0  0  0  0  0  0  0  0  0  0  0
   -0.5672   -2.4077    1.5007 O   0  0  0  0  0  0  0  0  0  0  0  0
   -1.1222   -0.6447    0.2217 N   0  0  0  0  0  0  0  0  0  0  0  0
   -1.8592   -0.1777   -0.2863 H   0  0  0  0  0  0  0  0  0  0  0  0
    0.1838    0.0363    0.2367 C   0  0  1  0  0  0  0  0  0  0  0  0
    0.9306   -0.6502    0.6341 H   0  0  0  0  0  0  0  0  0  0  0  0
    0.6303    0.4515   -1.1803 C   0  0  1  0  0  0  0  0  0  0  0  0
    1.5964    0.9496   -1.1011 H   0  0  0  0  0  0  0  0  0  0  0  0
    0.7881   -0.7169   -2.1513 C   0  0  0  0  0  0  0  0  0  0  0  0
   -0.1820   -1.1676   -2.3644 H   0  0  0  0  0  0  0  0  0  0  0  0
    1.2322   -0.3666   -3.0823 H   0  0  0  0  0  0  0  0  0  0  0  0
    1.4404   -1.4725   -1.7125 H   0  0  0  0  0  0  0  0  0  0  0  0
   -0.2860    1.3498   -1.7553 O   0  0  0  0  0  0  0  0  0  0  0  0
   -0.0214    1.5030   -2.6647 H   0  0  0  0  0  0  0  0  0  0  0  0
    0.1512    1.2604    1.1601 C   0  0  0  0  0  0  0  0  0  0  0  0
   -0.8645    1.5500    1.7922 O   0  0  0  0  0  0  0  0  0  0  0  0
    1.2809    1.9740    1.2657 N   0  0  0  0  0  0  0  0  0  0  0  0
    2.0846    1.6750    0.7383 H   0  0  0  0  0  0  0  0  0  0  0  0
    1.4164    3.1654    2.1023 C   0  0  0  0  0  0  0  0  0  0  0  0
    1.1056    2.9368    3.1237 H   0  0  0  0  0  0  0  0  0  0  0  0
    2.4509    3.5091    2.1108 H   0  0  0  0  0  0  0  0  0  0  0  0
    0.7751    3.9606    1.7161 H   0  0  0  0  0  0  0  0  0  0  0  0
  5  6  2  0  0  0  0
  5  7  1  0  0  0  0
  2  3  1  0  0  0  0
  2  4  1  0  0  0  0
  2  5  1  0  0  0  0
  1  2  1  0  0  0  0
 19 20  2  0  0  0  0
 19 21  1  0  0  0  0
 17 18  1  0  0  0  0
 13 14  1  0  0  0  0
 13 15  1  0  0  0  0
 13 16  1  0  0  0  0
 11 12  1  0  0  0  0
 11 13  1  0  0  0  0
 11 17  1  0  0  0  0
  9 10  1  0  0  0  0
  9 11  1  0  0  0  0
  9 19  1  0  0  0  0
  7  8  1  0  0  0  0
  7  9  1  0  0  0  0
 23 24  1  0  0  0  0
 23 25  1  0  0  0  0
 23 26  1  0  0  0  0
 21 22  1  0  0  0  0
 21 23  1  0  0  0  0
M  END
$$$$
default_name
  -OEChem-01062215323D

 26 25  0     1  0  0  0  0  0999 V2000
   -2.8882   -3.2497    1.2537 H   0  0  0  0  0  0  0  0  0  0  0  0
   -2.8032   -2.3157    0.7017 C   0  0  0  0  0  0  0  0  0  0  0  0
   -3.5012   -1.5857    1.1067 H   0  0  0  0  0  0  0  0  0  0  0  0
   -3.0182   -2.4907   -0.3513 H   0  0  0  0  0  0  0  0  0  0  0  0
   -1.3942   -1.7897    0.8407 C   0  0  0  0  0  0  0  0  0  0  0  0
   -0.5672   -2.4077    1.5007 O   0  0  0  0  0  0  0  0  0  0  0  0
   -1.1222   -0.6447    0.2217 N   0  0  0  0  0  0  0  0  0  0  0  0
   -1.8592   -0.1777   -0.2863 H   0  0  0  0  0  0  0  0  0  0  0  0
    0.1838    0.0363    0.2367 C   0  0  1  0  0  0  0  0  0  0  0  0
    0.9306   -0.6502    0.6341 H   0  0  0  0  0  0  0  0  0  0  0  0
    0.6303    0.4515   -1.1803 C   0  0  1  0  0  0  0  0  0  0  0  0
    1.5964    0.9496   -1.1011 H   0  0  0  0  0  0  0  0  0  0  0  0
    0.7881   -0.7169   -2.1513 C   0  0  0  0  0  0  0  0  0  0  0  0
   -0.1820   -1.1676   -2.3644 H   0  0  0  0  0  0  0  0  0  0  0  0
    1.2322   -0.3666   -3.0823 H   0  0  0  0  0  0  0  0  0  0  0  0
    1.4404   -1.4725   -1.7125 H   0  0  0  0  0  0  0  0  0  0  0  0
   -0.2860    1.3498   -1.7553 O   0  0  0  0  0  0  0  0  0  0  0  0
   -0.0214    1.5030   -2.6647 H   0  0  0  0  0  0  0  0  0  0  0  0
    0.1512    1.2604    1.1601 C   0  0  0  0  0  0  0  0  0  0  0  0
   -0.7449    1.4026    1.9919 O   0  0  0  0  0  0  0  0  0  0  0  0
    1.1526    2.1429    1.0373 N   0  0  0  0  0  0  0  0  0  0  0  0
    1.8670    1.9608    0.3517 H   0  0  0  0  0  0  0  0  0  0  0  0
    1.2696    3.3589    1.8407 C   0  0  0  0  0  0  0  0  0  0  0  0
    1.2158    3.1072    2.9017 H   0  0  0  0  0  0  0  0  0  0  0  0
    2.2169    3.8591    1.6385 H   0  0  0  0  0  0  0  0  0  0  0  0
    0.4462    4.0362    1.6042 H   0  0  0  0  0  0  0  0  0  0  0  0
  5  6  2  0  0  0  0
  5  7  1  0  0  0  0
  2  3  1  0  0  0  0
  2  4  1  0  0  0  0
  2  5  1  0  0  0  0
  1  2  1  0  0  0  0
 19 20  2  0  0  0  0
 19 21  1  0  0  0  0
 17 18  1  0  0  0  0
 13 14  1  0  0  0  0
 13 15  1  0  0  0  0
 13 16  1  0  0  0  0
 11 12  1  0  0  0  0
 11 13  1  0  0  0  0
 11 17  1  0  0  0  0
  9 10  1  0  0  0  0
  9 11  1  0  0  0  0
  9 19  1  0  0  0  0
  7  8  1  0  0  0  0
  7  9  1  0  0  0  0
 23 24  1  0  0  0  0
 23 25  1  0  0  0  0
 23 26  1  0  0  0  0
 21 22  1  0  0  0  0
 21 23  1  0  0  0  0
M  END
$$$$
default_name
  -OEChem-01062215323D

 26 25  0     1  0  0  0  0  0999 V2000
   -2.8882   -3.2497    1.2537 H   0  0  0  0  0  0  0  0  0  0  0  0
   -2.8032   -2.3157    0.7017 C   0  0  0  0  0  0  0  0  0  0  0  0
   -3.5012   -1.5857    1.1067 H   0  0  0  0  0  0  0  0  0  0  0  0
   -3.0182   -2.4907   -0.3513 H   0  0  0  0  0  0  0  0  0  0  0  0
   -1.3942   -1.7897    0.8407 C   0  0  0  0  0  0  0  0  0  0  0  0
   -0.5672   -2.4077    1.5007 O   0  0  0  0  0  0  0  0  0  0  0  0
   -1.1222   -0.6447    0.2217 N   0  0  0  0  0  0  0  0  0  0  0  0
   -1.8592   -0.1777   -0.2863 H   0  0  0  0  0  0  0  0  0  0  0  0
    0.1838    0.0363    0.2367 C   0  0  1  0  0  0  0  0  0  0  0  0
    0.9306   -0.6502    0.6341 H   0  0  0  0  0  0  0  0  0  0  0  0
    0.6303    0.4515   -1.1803 C   0  0  1  0  0  0  0  0  0  0  0  0
    1.5964    0.9496   -1.1011 H   0  0  0  0  0  0  0  0  0  0  0  0
    0.7881   -0.7169   -2.1513 C   0  0  0  0  0  0  0  0  0  0  0  0
   -0.1820   -1.1676   -2.3644 H   0  0  0  0  0  0  0  0  0  0  0  0
    1.2322   -0.3666   -3.0823 H   0  0  0  0  0  0  0  0  0  0  0  0
    1.4404   -1.4725   -1.7125 H   0  0  0  0  0  0  0  0  0  0  0  0
   -0.2860    1.3498   -1.7553 O   0  0  0  0  0  0  0  0  0  0  0  0
   -0.0214    1.5030   -2.6647 H   0  0  0  0  0  0  0  0  0  0  0  0
    0.1512    1.2604    1.1601 C   0  0  0  0  0  0  0  0  0  0  0  0
   -0.5652    1.2799    2.1609 O   0  0  0  0  0  0  0  0  0  0  0  0
    0.9552    2.2848    0.8423 N   0  0  0  0  0  0  0  0  0  0  0  0
    1.5323    2.2008    0.0217 H   0  0  0  0  0  0  0  0  0  0  0  0
    1.0436    3.5215    1.6172 C   0  0  0  0  0  0  0  0  0  0  0  0
    1.2497    3.2877    2.6636 H   0  0  0  0  0  0  0  0  0  0  0  0
    1.8388    4.1581    1.2287 H   0  0  0  0  0  0  0  0  0  0  0  0
    0.0936    4.0574    1.5637 H   0  0  0  0  0  0  0  0  0  0  0  0
  5  6  2  0  0  0  0
  5  7  1  0  0  0  0
  2  3  1  0  0  0  0
  2  4  1  0  0  0  0
  2  5  1  0  0  0  0
  1  2  1  0  0  0  0
 19 20  2  0  0  0  0
 19 21  1  0  0  0  0
 17 18  1  0  0  0  0
 13 14  1  0  0  0  0
 13 15  1  0  0  0  0
 13 16  1  0  0  0  0
 11 12  1  0  0  0  0
 11 13  1  0  0  0  0
 11 17  1  0  0  0  0
  9 10  1  0  0  0  0
  9 11  1  0  0  0  0
  9 19  1  0  0  0  0
  7  8  1  0  0  0  0
  7  9  1  0  0  0  0
 23 24  1  0  0  0  0
 23 25  1  0  0  0  0
 23 26  1  0  0  0  0
 21 22  1  0  0  0  0
 21 23  1  0  0  0  0
M  END
$$$$
default_name
  -OEChem-01062215323D

 26 25  0     1  0  0  0  0  0999 V2000
   -2.8882   -3.2497    1.2537 H   0  0  0  0  0  0  0  0  0  0  0  0
   -2.8032   -2.3157    0.7017 C   0  0  0  0  0  0  0  0  0  0  0  0
   -3.5012   -1.5857    1.1067 H   0  0  0  0  0  0  0  0  0  0  0  0
   -3.0182   -2.4907   -0.3513 H   0  0  0  0  0  0  0  0  0  0  0  0
   -1.3942   -1.7897    0.8407 C   0  0  0  0  0  0  0  0  0  0  0  0
   -0.5672   -2.4077    1.5007 O   0  0  0  0  0  0  0  0  0  0  0  0
   -1.1222   -0.6447    0.2217 N   0  0  0  0  0  0  0  0  0  0  0  0
   -1.8592   -0.1777   -0.2863 H   0  0  0  0  0  0  0  0  0  0  0  0
    0.1838    0.0363    0.2367 C   0  0  1  0  0  0  0  0  0  0  0  0
    0.9306   -0.6502    0.6341 H   0  0  0  0  0  0  0  0  0  0  0  0
    0.6303    0.4515   -1.1803 C   0  0  1  0  0  0  0  0  0  0  0  0
    1.5964    0.9496   -1.1011 H   0  0  0  0  0  0  0  0  0  0  0  0
    0.7881   -0.7169   -2.1513 C   0  0  0  0  0  0  0  0  0  0  0  0
   -0.1820   -1.1676   -2.3644 H   0  0  0  0  0  0  0  0  0  0  0  0
    1.2322   -0.3666   -3.0823 H   0  0  0  0  0  0  0  0  0  0  0  0
    1.4404   -1.4725   -1.7125 H   0  0  0  0  0  0  0  0  0  0  0  0
   -0.2860    1.3498   -1.7553 O   0  0  0  0  0  0  0  0  0  0  0  0
   -0.0214    1.5030   -2.6647 H   0  0  0  0  0  0  0  0  0  0  0  0
    0.1512    1.2604    1.1601 C   0  0  0  0  0  0  0  0  0  0  0  0
   -0.3375    1.1903    2.2876 O   0  0  0  0  0  0  0  0  0  0  0  0
    0.7021    2.3900    0.6939 N   0  0  0  0  0  0  0  0  0  0  0  0
    1.1036    2.3787   -0.2292 H   0  0  0  0  0  0  0  0  0  0  0  0
    0.7538    3.6420    1.4471 C   0  0  0  0  0  0  0  0  0  0  0  0
    1.2052    3.4660    2.4256 H   0  0  0  0  0  0  0  0  0  0  0  0
    1.3423    4.3857    0.9094 H   0  0  0  0  0  0  0  0  0  0  0  0
   -0.2587    4.0227    1.5973 H   0  0  0  0  0  0  0  0  0  0  0  0
  5  6  2  0  0  0  0
  5  7  1  0  0  0  0
  2  3  1  0  0  0  0
  2  4  1  0  0  0  0
  2  5  1  0  0  0  0
  1  2  1  0  0  0  0
 19 20  2  0  0  0  0
 19 21  1  0  0  0  0
 17 18  1  0  0  0  0
 13 14  1  0  0  0  0
 13 15  1  0  0  0  0
 13 16  1  0  0  0  0
 11 12  1  0  0  0  0
 11 13  1  0  0  0  0
 11 17  1  0  0  0  0
  9 10  1  0  0  0  0
  9 11  1  0  0  0  0
  9 19  1  0  0  0  0
  7  8  1  0  0  0  0
  7  9  1  0  0  0  0
 23 24  1  0  0  0  0
 23 25  1  0  0  0  0
 23 26  1  0  0  0  0
 21 22  1  0  0  0  0
 21 23  1  0  0  0  0
M  END
$$$$
default_name
  -OEChem-01062215323D

 26 25  0     1  0  0  0  0  0999 V2000
   -2.8882   -3.2497    1.2537 H   0  0  0  0  0  0  0  0  0  0  0  0
   -2.8032   -2.3157    0.7017 C   0  0  0  0  0  0  0  0  0  0  0  0
   -3.5012   -1.5857    1.1067 H   0  0  0  0  0  0  0  0  0  0  0  0
   -3.0182   -2.4907   -0.3513 H   0  0  0  0  0  0  0  0  0  0  0  0
   -1.3942   -1.7897    0.8407 C   0  0  0  0  0  0  0  0  0  0  0  0
   -0.5672   -2.4077    1.5007 O   0  0  0  0  0  0  0  0  0  0  0  0
   -1.1222   -0.6447    0.2217 N   0  0  0  0  0  0  0  0  0  0  0  0
   -1.8592   -0.1777   -0.2863 H   0  0  0  0  0  0  0  0  0  0  0  0
    0.1838    0.0363    0.2367 C   0  0  1  0  0  0  0  0  0  0  0  0
    0.9306   -0.6502    0.6341 H   0  0  0  0  0  0  0  0  0  0  0  0
    0.6303    0.4515   -1.1803 C   0  0  1  0  0  0  0  0  0  0  0  0
    1.5964    0.9496   -1.1011 H   0  0  0  0  0  0  0  0  0  0  0  0
    0.7881   -0.7169   -2.1513 C   0  0  0  0  0  0  0  0  0  0  0  0
   -0.1820   -1.1676   -2.3644 H   0  0  0  0  0  0  0  0  0  0  0  0
    1.2322   -0.3666   -3.0823 H   0  0  0  0  0  0  0  0  0  0  0  0
    1.4404   -1.4725   -1.7125 H   0  0  0  0  0  0  0  0  0  0  0  0
   -0.2860    1.3498   -1.7553 O   0  0  0  0  0  0  0  0  0  0  0  0
   -0.0214    1.5030   -2.6647 H   0  0  0  0  0  0  0  0  0  0  0  0
    0.1512    1.2604    1.1601 C   0  0  0  0  0  0  0  0  0  0  0  0
   -0.0774    1.1400    2.3636 O   0  0  0  0  0  0  0  0  0  0  0  0
    0.4106    2.4513    0.6023 N   0  0  0  0  0  0  0  0  0  0  0  0
    0.6098    2.4824   -0.3840 H   0  0  0  0  0  0  0  0  0  0  0  0
    0.4200    3.7124    1.3420 C   0  0  0  0  0  0  0  0  0  0  0  0
    1.0852    3.6301    2.2039 H   0  0  0  0  0  0  0  0  0  0  0  0
    0.7612    4.5265    0.7023 H   0  0  0  0  0  0  0  0  0  0  0  0
   -0.5866    3.9344    1.7027 H   0  0  0  0  0  0  0  0  0  0  0  0
  5  6  2  0  0  0  0
  5  7  1  0  0  0  0
  2  3  1  0  0  0  0
  2  4  1  0  0  0  0
  2  5  1  0  0  0  0
  1  2  1  0  0  0  0
 19 20  2  0  0  0  0
 19 21  1  0  0  0  0
 17 18  1  0  0  0  0
 13 14  1  0  0  0  0
 13 15  1  0  0  0  0
 13 16  1  0  0  0  0
 11 12  1  0  0  0  0
 11 13  1  0  0  0  0
 11 17  1  0  0  0  0
  9 10  1  0  0  0  0
  9 11  1  0  0  0  0
  9 19  1  0  0  0  0
  7  8  1  0  0  0  0
  7  9  1  0  0  0  0
 23 24  1  0  0  0  0
 23 25  1  0  0  0  0
 23 26  1  0  0  0  0
 21 22  1  0  0  0  0
 21 23  1  0  0  0  0
M  END
$$$$
default_name
  -OEChem-01062215323D

 26 25  0     1  0  0  0  0  0999 V2000
   -2.8882   -3.2497    1.2537 H   0  0  0  0  0  0  0  0  0  0  0  0
   -2.8032   -2.3157    0.7017 C   0  0  0  0  0  0  0  0  0  0  0  0
   -3.5012   -1.5857    1.1067 H   0  0  0  0  0  0  0  0  0  0  0  0
   -3.0182   -2.4907   -0.3513 H   0  0  0  0  0  0  0  0  0  0  0  0
   -1.3942   -1.7897    0.8407 C   0  0  0  0  0  0  0  0  0  0  0  0
   -0.5672   -2.4077    1.5007 O   0  0  0  0  0  0  0  0  0  0  0  0
   -1.1222   -0.6447    0.2217 N   0  0  0  0  0  0  0  0  0  0  0  0
   -1.8592   -0.1777   -0.2863 H   0  0  0  0  0  0  0  0  0  0  0  0
    0.1838    0.0363    0.2367 C   0  0  1  0  0  0  0  0  0  0  0  0
    0.9306   -0.6502    0.6341 H   0  0  0  0  0  0  0  0  0  0  0  0
    0.6303    0.4515   -1.1803 C   0  0  1  0  0  0  0  0  0  0  0  0
    1.5964    0.9496   -1.1011 H   0  0  0  0  0  0  0  0  0  0  0  0
    0.7881   -0.7169   -2.1513 C   0  0  0  0  0  0  0  0  0  0  0  0
   -0.1820   -1.1676   -2.3644 H   0  0  0  0  0  0  0  0  0  0  0  0
    1.2322   -0.3666   -3.0823 H   0  0  0  0  0  0  0  0  0  0  0  0
    1.4404   -1.4725   -1.7125 H   0  0  0  0  0  0  0  0  0  0  0  0
   -0.2860    1.3498   -1.7553 O   0  0  0  0  0  0  0  0  0  0  0  0
   -0.0214    1.5030   -2.6647 H   0  0  0  0  0  0  0  0  0  0  0  0
    0.1512    1.2604    1.1601 C   0  0  0  0  0  0  0  0  0  0  0  0
    0.1973    1.1323    2.3835 O   0  0  0  0  0  0  0  0  0  0  0  0
    0.1005    2.4647    0.5737 N   0  0  0  0  0  0  0  0  0  0  0  0
    0.0848    2.5047   -0.4321 H   0  0  0  0  0  0  0  0  0  0  0  0
    0.0649    3.7278    1.3091 C   0  0  0  0  0  0  0  0  0  0  0  0
    0.8980    3.7686    2.0136 H   0  0  0  0  0  0  0  0  0  0  0  0
    0.1353    4.5708    0.6215 H   0  0  0  0  0  0  0  0  0  0  0  0
   -0.8678    3.7987    1.8727 H   0  0  0  0  0  0  0  0  0  0  0  0
  5  6  2  0  0  0  0
  5  7  1  0  0  0  0
  2  3  1  0  0  0  0
  2  4  1  0  0  0  0
  2  5  1  0  0  0  0
  1  2  1  0  0  0  0
 19 20  2  0  0  0  0
 19 21  1  0  0  0  0
 17 18  1  0  0  0  0
 13 14  1  0  0  0  0
 13 15  1  0  0  0  0
 13 16  1  0  0  0  0
 11 12  1  0  0  0  0
 11 13  1  0  0  0  0
 11 17  1  0  0  0  0
  9 10  1  0  0  0  0
  9 11  1  0  0  0  0
  9 19  1  0  0  0  0
  7  8  1  0  0  0  0
  7  9  1  0  0  0  0
 23 24  1  0  0  0  0
 23 25  1  0  0  0  0
 23 26  1  0  0  0  0
 21 22  1  0  0  0  0
 21 23  1  0  0  0  0
M  END
$$$$
default_name
  -OEChem-01062215323D

 26 25  0     1  0  0  0  0  0999 V2000
   -2.8882   -3.2497    1.2537 H   0  0  0  0  0  0  0  0  0  0  0  0
   -2.8032   -2.3157    0.7017 C   0  0  0  0  0  0  0  0  0  0  0  0
   -3.5012   -1.5857    1.1067 H   0  0  0  0  0  0  0  0  0  0  0  0
   -3.0182   -2.4907   -0.3513 H   0  0  0  0  0  0  0  0  0  0  0  0
   -1.3942   -1.7897    0.8407 C   0  0  0  0  0  0  0  0  0  0  0  0
   -0.5672   -2.4077    1.5007 O   0  0  0  0  0  0  0  0  0  0  0  0
   -1.1222   -0.6447    0.2217 N   0  0  0  0  0  0  0  0  0  0  0  0
   -1.8592   -0.1777   -0.2863 H   0  0  0  0  0  0  0  0  0  0  0  0
    0.1838    0.0363    0.2367 C   0  0  1  0  0  0  0  0  0  0  0  0
    0.9306   -0.6502    0.6341 H   0  0  0  0  0  0  0  0  0  0  0  0
    0.6303    0.4515   -1.1803 C   0  0  1  0  0  0  0  0  0  0  0  0
    1.5964    0.9496   -1.1011 H   0  0  0  0  0  0  0  0  0  0  0  0
    0.7881   -0.7169   -2.1513 C   0  0  0  0  0  0  0  0  0  0  0  0
   -0.1820   -1.1676   -2.3644 H   0  0  0  0  0  0  0  0  0  0  0  0
    1.2322   -0.3666   -3.0823 H   0  0  0  0  0  0  0  0  0  0  0  0
    1.4404   -1.4725   -1.7125 H   0  0  0  0  0  0  0  0  0  0  0  0
   -0.2860    1.3498   -1.7553 O   0  0  0  0  0  0  0  0  0  0  0  0
   -0.0214    1.5030   -2.6647 H   0  0  0  0  0  0  0  0  0  0  0  0
    0.1512    1.2604    1.1601 C   0  0  0  0  0  0  0  0  0  0  0  0
    0.4680    1.1678    2.3459 O   0  0  0  0  0  0  0  0  0  0  0  0
   -0.2070    2.4291    0.6100 N   0  0  0  0  0  0  0  0  0  0  0  0
   -0.4358    2.4441   -0.3703 H   0  0  0  0  0  0  0  0  0  0  0  0
   -0.2873    3.6871    1.3506 C   0  0  0  0  0  0  0  0  0  0  0  0
    0.6563    3.8722    1.8678 H   0  0  0  0  0  0  0  0  0  0  0  0
   -0.4929    4.5156    0.6725 H   0  0  0  0  0  0  0  0  0  0  0  0
   -1.0832    3.6247    2.0958 H   0  0  0  0  0  0  0  0  0  0  0  0
  5  6  2  0  0  0  0
  5  7  1  0  0  0  0
  2  3  1  0  0  0  0
  2  4  1  0  0  0  0
  2  5  1  0  0  0  0
  1  2  1  0  0  0  0
 19 20  2  0  0  0  0
 19 21  1  0  0  0  0
 17 18  1  0  0  0  0
 13 14  1  0  0  0  0
 13 15  1  0  0  0  0
 13 16  1  0  0  0  0
 11 12  1  0  0  0  0
 11 13  1  0  0  0  0
 11 17  1  0  0  0  0
  9 10  1  0  0  0  0
  9 11  1  0  0  0  0
  9 19  1  0  0  0  0
  7  8  1  0  0  0  0
  7  9  1  0  0  0  0
 23 24  1  0  0  0  0
 23 25  1  0  0  0  0
 23 26  1  0  0  0  0
 21 22  1  0  0  0  0
 21 23  1  0  0  0  0
M  END
$$$$
default_name
  -OEChem-01062215323D

 26 25  0     1  0  0  0  0  0999 V2000
   -2.8882   -3.2497    1.2537 H   0  0  0  0  0  0  0  0  0  0  0  0
   -2.8032   -2.3157    0.7017 C   0  0  0  0  0  0  0  0  0  0  0  0
   -3.5012   -1.5857    1.1067 H   0  0  0  0  0  0  0  0  0  0  0  0
   -3.0182   -2.4907   -0.3513 H   0  0  0  0  0  0  0  0  0  0  0  0
   -1.3942   -1.7897    0.8407 C   0  0  0  0  0  0  0  0  0  0  0  0
   -0.5672   -2.4077    1.5007 O   0  0  0  0  0  0  0  0  0  0  0  0
   -1.1222   -0.6447    0.2217 N   0  0  0  0  0  0  0  0  0  0  0  0
   -1.8592   -0.1777   -0.2863 H   0  0  0  0  0  0  0  0  0  0  0  0
    0.1838    0.0363    0.2367 C   0  0  1  0  0  0  0  0  0  0  0  0
    0.9306   -0.6502    0.6341 H   0  0  0  0  0  0  0  0  0  0  0  0
    0.6303    0.4515   -1.1803 C   0  0  1  0  0  0  0  0  0  0  0  0
    1.5964    0.9496   -1.1011 H   0  0  0  0  0  0  0  0  0  0  0  0
    0.7881   -0.7169   -2.1513 C   0  0  0  0  0  0  0  0  0  0  0  0
   -0.1820   -1.1676   -2.3644 H   0  0  0  0  0  0  0  0  0  0  0  0
    1.2322   -0.3666   -3.0823 H   0  0  0  0  0  0  0  0  0  0  0  0
    1.4404   -1.4725   -1.7125 H   0  0  0  0  0  0  0  0  0  0  0  0
   -0.2860    1.3498   -1.7553 O   0  0  0  0  0  0  0  0  0  0  0  0
   -0.0214    1.5030   -2.6647 H   0  0  0  0  0  0  0  0  0  0  0  0
    0.1512    1.2604    1.1601 C   0  0  0  0  0  0  0  0  0  0  0  0
    0.7161    1.2440    2.2536 O   0  0  0  0  0  0  0  0  0  0  0  0
   -0.4909    2.3470    0.7088 N   0  0  0  0  0  0  0  0  0  0  0  0
   -0.9164    2.3049   -0.2026 H   0  0  0  0  0  0  0  0  0  0  0  0
   -0.6126    3.5932    1.4636 C   0  0  0  0  0  0  0  0  0  0  0  0
    0.3765    3.9337    1.7763 H   0  0  0  0  0  0  0  0  0  0  0  0
   -1.0806    4.3647    0.8519 H   0  0  0  0  0  0  0  0  0  0  0  0
   -1.2180    3.4243    2.3568 H   0  0  0  0  0  0  0  0  0  0  0  0
  5  6  2  0  0  0  0
  5  7  1  0  0  0  0
  2  3  1  0  0  0  0
  2  4  1  0  0  0  0
  2  5  1  0  0  0  0
  1  2  1  0  0  0  0
 19 20  2  0  0  0  0
 19 21  1  0  0  0  0
 17 18  1  0  0  0  0
 13 14  1  0  0  0  0
 13 15  1  0  0  0  0
 13 16  1  0  0  0  0
 11 12  1  0  0  0  0
 11 13  1  0  0  0  0
 11 17  1  0  0  0  0
  9 10  1  0  0  0  0
  9 11  1  0  0  0  0
  9 19  1  0  0  0  0
  7  8  1  0  0  0  0
  7  9  1  0  0  0  0
 23 24  1  0  0  0  0
 23 25  1  0  0  0  0
 23 26  1  0  0  0  0
 21 22  1  0  0  0  0
 21 23  1  0  0  0  0
M  END
$$$$
default_name
  -OEChem-01062215323D

 26 25  0     1  0  0  0  0  0999 V2000
   -2.8882   -3.2497    1.2537 H   0  0  0  0  0  0  0  0  0  0  0  0
   -2.8032   -2.3157    0.7017 C   0  0  0  0  0  0  0  0  0  0  0  0
   -3.5012   -1.5857    1.1067 H   0  0  0  0  0  0  0  0  0  0  0  0
   -3.0182   -2.4907   -0.3513 H   0  0  0  0  0  0  0  0  0  0  0  0
   -1.3942   -1.7897    0.8407 C   0  0  0  0  0  0  0  0  0  0  0  0
   -0.5672   -2.4077    1.5007 O   0  0  0  0  0  0  0  0  0  0  0  0
   -1.1222   -0.6447    0.2217 N   0  0  0  0  0  0  0  0  0  0  0  0
   -1.8592   -0.1777   -0.2863 H   0  0  0  0  0  0  0  0  0  0  0  0
    0.1838    0.0363    0.2367 C   0  0  1  0  0  0  0  0  0  0  0  0
    0.9306   -0.6502    0.6341 H   0  0  0  0  0  0  0  0  0  0  0  0
    0.6303    0.4515   -1.1803 C   0  0  1  0  0  0  0  0  0  0  0  0
    1.5964    0.9496   -1.1011 H   0  0  0  0  0  0  0  0  0  0  0  0
    0.7881   -0.7169   -2.1513 C   0  0  0  0  0  0  0  0  0  0  0  0
   -0.1820   -1.1676   -2.3644 H   0  0  0  0  0  0  0  0  0  0  0  0
    1.2322   -0.3666   -3.0823 H   0  0  0  0  0  0  0  0  0  0  0  0
    1.4404   -1.4725   -1.7125 H   0  0  0  0  0  0  0  0  0  0  0  0
   -0.2860    1.3498   -1.7553 O   0  0  0  0  0  0  0  0  0  0  0  0
   -0.0214    1.5030   -2.6647 H   0  0  0  0  0  0  0  0  0  0  0  0
    0.1512    1.2604    1.1601 C   0  0  0  0  0  0  0  0  0  0  0  0
    0.9249    1.3558    2.1127 O   0  0  0  0  0  0  0  0  0  0  0  0
   -0.7320    2.2240    0.8634 N   0  0  0  0  0  0  0  0  0  0  0  0
   -1.3243    2.0965    0.0594 H   0  0  0  0  0  0  0  0  0  0  0  0
   -0.8889    3.4524    1.6406 C   0  0  0  0  0  0  0  0  0  0  0  0
    0.0777    3.9491    1.7453 H   0  0  0  0  0  0  0  0  0  0  0  0
   -1.5877    4.1283    1.1473 H   0  0  0  0  0  0  0  0  0  0  0  0
   -1.2631    3.2111    2.6378 H   0  0  0  0  0  0  0  0  0  0  0  0
  5  6  2  0  0  0  0
  5  7  1  0  0  0  0
  2  3  1  0  0  0  0
  2  4  1  0  0  0  0
  2  5  1  0  0  0  0
  1  2  1  0  0  0  0
 19 20  2  0  0  0  0
 19 21  1  0  0  0  0
 17 18  1  0  0  0  0
 13 14  1  0  0  0  0
 13 15  1  0  0  0  0
 13 16  1  0  0  0  0
 11 12  1  0  0  0  0
 11 13  1  0  0  0  0
 11 17  1  0  0  0  0
  9 10  1  0  0  0  0
  9 11  1  0  0  0  0
  9 19  1  0  0  0  0
  7  8  1  0  0  0  0
  7  9  1  0  0  0  0
 23 24  1  0  0  0  0
 23 25  1  0  0  0  0
 23 26  1  0  0  0  0
 21 22  1  0  0  0  0
 21 23  1  0  0  0  0
M  END
$$$$
default_name
  -OEChem-01062215323D

 26 25  0     1  0  0  0  0  0999 V2000
   -2.8882   -3.2497    1.2537 H   0  0  0  0  0  0  0  0  0  0  0  0
   -2.8032   -2.3157    0.7017 C   0  0  0  0  0  0  0  0  0  0  0  0
   -3.5012   -1.5857    1.1067 H   0  0  0  0  0  0  0  0  0  0  0  0
   -3.0182   -2.4907   -0.3513 H   0  0  0  0  0  0  0  0  0  0  0  0
   -1.3942   -1.7897    0.8407 C   0  0  0  0  0  0  0  0  0  0  0  0
   -0.5672   -2.4077    1.5007 O   0  0  0  0  0  0  0  0  0  0  0  0
   -1.1222   -0.6447    0.2217 N   0  0  0  0  0  0  0  0  0  0  0  0
   -1.8592   -0.1777   -0.2863 H   0  0  0  0  0  0  0  0  0  0  0  0
    0.1838    0.0363    0.2367 C   0  0  1  0  0  0  0  0  0  0  0  0
    0.9306   -0.6502    0.6341 H   0  0  0  0  0  0  0  0  0  0  0  0
    0.6303    0.4515   -1.1803 C   0  0  1  0  0  0  0  0  0  0  0  0
    1.5964    0.9496   -1.1011 H   0  0  0  0  0  0  0  0  0  0  0  0
    0.7881   -0.7169   -2.1513 C   0  0  0  0  0  0  0  0  0  0  0  0
   -0.1820   -1.1676   -2.3644 H   0  0  0  0  0  0  0  0  0  0  0  0
    1.2322   -0.3666   -3.0823 H   0  0  0  0  0  0  0  0  0  0  0  0
    1.4404   -1.4725   -1.7125 H   0  0  0  0  0  0  0  0  0  0  0  0
   -0.2860    1.3498   -1.7553 O   0  0  0  0  0  0  0  0  0  0  0  0
   -0.0214    1.5030   -2.6647 H   0  0  0  0  0  0  0  0  0  0  0  0
    0.1512    1.2604    1.1601 C   0  0  0  0  0  0  0  0  0  0  0  0
    1.0800    1.4956    1.9329 O   0  0  0  0  0  0  0  0  0  0  0  0
   -0.9138    2.0685    1.0632 N   0  0  0  0  0  0  0  0  0  0  0  0
   -1.6317    1.8330    0.3978 H   0  0  0  0  0  0  0  0  0  0  0  0
   -1.0972    3.2743    1.8693 C   0  0  0  0  0  0  0  0  0  0  0  0
   -0.2196    3.9173    1.7771 H   0  0  0  0  0  0  0  0  0  0  0  0
   -1.9796    3.8226    1.5388 H   0  0  0  0  0  0  0  0  0  0  0  0
   -1.2154    2.9998    2.9197 H   0  0  0  0  0  0  0  0  0  0  0  0
  5  6  2  0  0  0  0
  5  7  1  0  0  0  0
  2  3  1  0  0  0  0
  2  4  1  0  0  0  0
  2  5  1  0  0  0  0
  1  2  1  0  0  0  0
 19 20  2  0  0  0  0
 19 21  1  0  0  0  0
 17 18  1  0  0  0  0
 13 14  1  0  0  0  0
 13 15  1  0  0  0  0
 13 16  1  0  0  0  0
 11 12  1  0  0  0  0
 11 13  1  0  0  0  0
 11 17  1  0  0  0  0
  9 10  1  0  0  0  0
  9 11  1  0  0  0  0
  9 19  1  0  0  0  0
  7  8  1  0  0  0  0
  7  9  1  0  0  0  0
 23 24  1  0  0  0  0
 23 25  1  0  0  0  0
 23 26  1  0  0  0  0
 21 22  1  0  0  0  0
 21 23  1  0  0  0  0
M  END
$$$$
default_name
  -OEChem-01062215323D

 26 25  0     1  0  0  0  0  0999 V2000
   -2.8882   -3.2497    1.2537 H   0  0  0  0  0  0  0  0  0  0  0  0
   -2.8032   -2.3157    0.7017 C   0  0  0  0  0  0  0  0  0  0  0  0
   -3.5012   -1.5857    1.1067 H   0  0  0  0  0  0  0  0  0  0  0  0
   -3.0182   -2.4907   -0.3513 H   0  0  0  0  0  0  0  0  0  0  0  0
   -1.3942   -1.7897    0.8407 C   0  0  0  0  0  0  0  0  0  0  0  0
   -0.5672   -2.4077    1.5007 O   0  0  0  0  0  0  0  0  0  0  0  0
   -1.1222   -0.6447    0.2217 N   0  0  0  0  0  0  0  0  0  0  0  0
   -1.8592   -0.1777   -0.2863 H   0  0  0  0  0  0  0  0  0  0  0  0
    0.1838    0.0363    0.2367 C   0  0  1  0  0  0  0  0  0  0  0  0
    0.9306   -0.6502    0.6341 H   0  0  0  0  0  0  0  0  0  0  0  0
    0.6303    0.4515   -1.1803 C   0  0  1  0  0  0  0  0  0  0  0  0
    1.5964    0.9496   -1.1011 H   0  0  0  0  0  0  0  0  0  0  0  0
    0.7881   -0.7169   -2.1513 C   0  0  0  0  0  0  0  0  0  0  0  0
   -0.1820   -1.1676   -2.3644 H   0  0  0  0  0  0  0  0  0  0  0  0
    1.2322   -0.3666   -3.0823 H   0  0  0  0  0  0  0  0  0  0  0  0
    1.4404   -1.4725   -1.7125 H   0  0  0  0  0  0  0  0  0  0  0  0
   -0.2860    1.3498   -1.7553 O   0  0  0  0  0  0  0  0  0  0  0  0
   -0.0214    1.5030   -2.6647 H   0  0  0  0  0  0  0  0  0  0  0  0
    0.1512    1.2604    1.1601 C   0  0  0  0  0  0  0  0  0  0  0  0
    1.1709    1.6538    1.7264 O   0  0  0  0  0  0  0  0  0  0  0  0
   -1.0239    1.8910    1.2945 N   0  0  0  0  0  0  0  0  0  0  0  0
   -1.8176    1.5324    0.7897 H   0  0  0  0  0  0  0  0  0  0  0  0
   -1.2235    3.0711    2.1342 C   0  0  0  0  0  0  0  0  0  0  0  0
   -0.4953    3.8403    1.8693 H   0  0  0  0  0  0  0  0  0  0  0  0
   -2.2297    3.4684    1.9996 H   0  0  0  0  0  0  0  0  0  0  0  0
   -1.0781    2.8046    3.1833 H   0  0  0  0  0  0  0  0  0  0  0  0
  5  6  2  0  0  0  0
  5  7  1  0  0  0  0
  2  3  1  0  0  0  0
  2  4  1  0  0  0  0
  2  5  1  0  0  0  0
  1  2  1  0  0  0  0
 19 20  2  0  0  0  0
 19 21  1  0  0  0  0
 17 18  1  0  0  0  0
 13 14  1  0  0  0  0
 13 15  1  0  0  0  0
 13 16  1  0  0  0  0
 11 12  1  0  0  0  0
 11 13  1  0  0  0  0
 11 17  1  0  0  0  0
  9 10  1  0  0  0  0
  9 11  1  0  0  0  0
  9 19  1  0  0  0  0
  7  8  1  0  0  0  0
  7  9  1  0  0  0  0
 23 24  1  0  0  0  0
 23 25  1  0  0  0  0
 23 26  1  0  0  0  0
 21 22  1  0  0  0  0
 21 23  1  0  0  0  0
M  END
$$$$
default_name
  -OEChem-01062215323D

 26 25  0     1  0  0  0  0  0999 V2000
   -2.8882   -3.2497    1.2537 H   0  0  0  0  0  0  0  0  0  0  0  0
   -2.8032   -2.3157    0.7017 C   0  0  0  0  0  0  0  0  0  0  0  0
   -3.5012   -1.5857    1.1067 H   0  0  0  0  0  0  0  0  0  0  0  0
   -3.0182   -2.4907   -0.3513 H   0  0  0  0  0  0  0  0  0  0  0  0
   -1.3942   -1.7897    0.8407 C   0  0  0  0  0  0  0  0  0  0  0  0
   -0.5672   -2.4077    1.5007 O   0  0  0  0  0  0  0  0  0  0  0  0
   -1.1222   -0.6447    0.2217 N   0  0  0  0  0  0  0  0  0  0  0  0
   -1.8592   -0.1777   -0.2863 H   0  0  0  0  0  0  0  0  0  0  0  0
    0.1838    0.0363    0.2367 C   0  0  1  0  0  0  0  0  0  0  0  0
    0.9306   -0.6502    0.6341 H   0  0  0  0  0  0  0  0  0  0  0  0
    0.6303    0.4515   -1.1803 C   0  0  1  0  0  0  0  0  0  0  0  0
    1.5964    0.9496   -1.1011 H   0  0  0  0  0  0  0  0  0  0  0  0
    0.7881   -0.7169   -2.1513 C   0  0  0  0  0  0  0  0  0  0  0  0
   -0.1820   -1.1676   -2.3644 H   0  0  0  0  0  0  0  0  0  0  0  0
    1.2322   -0.3666   -3.0823 H   0  0  0  0  0  0  0  0  0  0  0  0
    1.4404   -1.4725   -1.7125 H   0  0  0  0  0  0  0  0  0  0  0  0
   -0.2860    1.3498   -1.7553 O   0  0  0  0  0  0  0  0  0  0  0  0
   -0.0214    1.5030   -2.6647 H   0  0  0  0  0  0  0  0  0  0  0  0
    0.1512    1.2604    1.1601 C   0  0  0  0  0  0  0  0  0  0  0  0
    1.1914    1.8196    1.5073 O   0  0  0  0  0  0  0  0  0  0  0  0
   -1.0547    1.7037    1.5418 N   0  0  0  0  0  0  0  0  0  0  0  0
   -1.8695    1.2153    1.2083 H   0  0  0  0  0  0  0  0  0  0  0  0
   -1.2590    2.8566    2.4174 C   0  0  0  0  0  0  0  0  0  0  0  0
   -0.7306    3.7236    2.0159 H   0  0  0  0  0  0  0  0  0  0  0  0
   -2.3209    3.0899    2.4983 H   0  0  0  0  0  0  0  0  0  0  0  0
   -0.8607    2.6389    3.4106 H   0  0  0  0  0  0  0  0  0  0  0  0
  5  6  2  0  0  0  0
  5  7  1  0  0  0  0
  2  3  1  0  0  0  0
  2  4  1  0  0  0  0
  2  5  1  0  0  0  0
  1  2  1  0  0  0  0
 19 20  2  0  0  0  0
 19 21  1  0  0  0  0
 17 18  1  0  0  0  0
 13 14  1  0  0  0  0
 13 15  1  0  0  0  0
 13 16  1  0  0  0  0
 11 12  1  0  0  0  0
 11 13  1  0  0  0  0
 11 17  1  0  0  0  0
  9 10  1  0  0  0  0
  9 11  1  0  0  0  0
  9 19  1  0  0  0  0
  7  8  1  0  0  0  0
  7  9  1  0  0  0  0
 23 24  1  0  0  0  0
 23 25  1  0  0  0  0
 23 26  1  0  0  0  0
 21 22  1  0  0  0  0
 21 23  1  0  0  0  0
M  END
$$$$
default_name
  -OEChem-01062215323D

 26 25  0     1  0  0  0  0  0999 V2000
   -2.8882   -3.2497    1.2537 H   0  0  0  0  0  0  0  0  0  0  0  0
   -2.8032   -2.3157    0.7017 C   0  0  0  0  0  0  0  0  0  0  0  0
   -3.5012   -1.5857    1.1067 H   0  0  0  0  0  0  0  0  0  0  0  0
   -3.0182   -2.4907   -0.3513 H   0  0  0  0  0  0  0  0  0  0  0  0
   -1.3942   -1.7897    0.8407 C   0  0  0  0  0  0  0  0  0  0  0  0
   -0.5672   -2.4077    1.5007 O   0  0  0  0  0  0  0  0  0  0  0  0
   -1.1222   -0.6447    0.2217 N   0  0  0  0  0  0  0  0  0  0  0  0
   -1.8592   -0.1777   -0.2863 H   0  0  0  0  0  0  0  0  0  0  0  0
    0.1838    0.0363    0.2367 C   0  0  1  0  0  0  0  0  0  0  0  0
    0.9306   -0.6502    0.6341 H   0  0  0  0  0  0  0  0  0  0  0  0
    0.6303    0.4515   -1.1803 C   0  0  1  0  0  0  0  0  0  0  0  0
    1.5964    0.9496   -1.1011 H   0  0  0  0  0  0  0  0  0  0  0  0
    0.7881   -0.7169   -2.1513 C   0  0  0  0  0  0  0  0  0  0  0  0
   -0.1820   -1.1676   -2.3644 H   0  0  0  0  0  0  0  0  0  0  0  0
    1.2322   -0.3666   -3.0823 H   0  0  0  0  0  0  0  0  0  0  0  0
    1.4404   -1.4725   -1.7125 H   0  0  0  0  0  0  0  0  0  0  0  0
   -0.2860    1.3498   -1.7553 O   0  0  0  0  0  0  0  0  0  0  0  0
   -0.0214    1.5030   -2.6647 H   0  0  0  0  0  0  0  0  0  0  0  0
    0.1512    1.2604    1.1601 C   0  0  0  0  0  0  0  0  0  0  0  0
    1.1401    1.9818    1.2905 O   0  0  0  0  0  0  0  0  0  0  0  0
   -1.0043    1.5194    1.7879 N   0  0  0  0  0  0  0  0  0  0  0  0
   -1.7836    0.9032    1.6251 H   0  0  0  0  0  0  0  0  0  0  0  0
   -1.2014    2.6455    2.6994 C   0  0  0  0  0  0  0  0  0  0  0  0
   -0.9093    3.5749    2.2066 H   0  0  0  0  0  0  0  0  0  0  0  0
   -2.2469    2.7127    3.0009 H   0  0  0  0  0  0  0  0  0  0  0  0
   -0.5778    2.5140    3.5862 H   0  0  0  0  0  0  0  0  0  0  0  0
  5  6  2  0  0  0  0
  5  7  1  0  0  0  0
  2  3  1  0  0  0  0
  2  4  1  0  0  0  0
  2  5  1  0  0  0  0
  1  2  1  0  0  0  0
 19 20  2  0  0  0  0
 19 21  1  0  0  0  0
 17 18  1  0  0  0  0
 13 14  1  0  0  0  0
 13 15  1  0  0  0  0
 13 16  1  0  0  0  0
 11 12  1  0  0  0  0
 11 13  1  0  0  0  0
 11 17  1  0  0  0  0
  9 10  1  0  0  0  0
  9 11  1  0  0  0  0
  9 19  1  0  0  0  0
  7  8  1  0  0  0  0
  7  9  1  0  0  0  0
 23 24  1  0  0  0  0
 23 25  1  0  0  0  0
 23 26  1  0  0  0  0
 21 22  1  0  0  0  0
 21 23  1  0  0  0  0
M  END
$$$$
default_name
  -OEChem-01062215323D

 26 25  0     1  0  0  0  0  0999 V2000
   -2.8882   -3.2497    1.2537 H   0  0  0  0  0  0  0  0  0  0  0  0
   -2.8032   -2.3157    0.7017 C   0  0  0  0  0  0  0  0  0  0  0  0
   -3.5012   -1.5857    1.1067 H   0  0  0  0  0  0  0  0  0  0  0  0
   -3.0182   -2.4907   -0.3513 H   0  0  0  0  0  0  0  0  0  0  0  0
   -1.3942   -1.7897    0.8407 C   0  0  0  0  0  0  0  0  0  0  0  0
   -0.5672   -2.4077    1.5007 O   0  0  0  0  0  0  0  0  0  0  0  0
   -1.1222   -0.6447    0.2217 N   0  0  0  0  0  0  0  0  0  0  0  0
   -1.8592   -0.1777   -0.2863 H   0  0  0  0  0  0  0  0  0  0  0  0
    0.1838    0.0363    0.2367 C   0  0  1  0  0  0  0  0  0  0  0  0
    0.9306   -0.6502    0.6341 H   0  0  0  0  0  0  0  0  0  0  0  0
    0.6303    0.4515   -1.1803 C   0  0  1  0  0  0  0  0  0  0  0  0
    1.5964    0.9496   -1.1011 H   0  0  0  0  0  0  0  0  0  0  0  0
    0.7881   -0.7169   -2.1513 C   0  0  0  0  0  0  0  0  0  0  0  0
   -0.1820   -1.1676   -2.3644 H   0  0  0  0  0  0  0  0  0  0  0  0
    1.2322   -0.3666   -3.0823 H   0  0  0  0  0  0  0  0  0  0  0  0
    1.4404   -1.4725   -1.7125 H   0  0  0  0  0  0  0  0  0  0  0  0
   -0.2860    1.3498   -1.7553 O   0  0  0  0  0  0  0  0  0  0  0  0
   -0.0214    1.5030   -2.6647 H   0  0  0  0  0  0  0  0  0  0  0  0
    0.1512    1.2604    1.1601 C   0  0  0  0  0  0  0  0  0  0  0  0
    1.0205    2.1292    1.0908 O   0  0  0  0  0  0  0  0  0  0  0  0
   -0.8760    1.3505    2.0163 N   0  0  0  0  0  0  0  0  0  0  0  0
   -1.5660    0.6174    2.0117 H   0  0  0  0  0  0  0  0  0  0  0  0
   -1.0547    2.4520    2.9610 C   0  0  0  0  0  0  0  0  0  0  0  0
   -1.0195    3.4045    2.4286 H   0  0  0  0  0  0  0  0  0  0  0  0
   -2.0129    2.3627    3.4731 H   0  0  0  0  0  0  0  0  0  0  0  0
   -0.2489    2.4384    3.6981 H   0  0  0  0  0  0  0  0  0  0  0  0
  5  6  2  0  0  0  0
  5  7  1  0  0  0  0
  2  3  1  0  0  0  0
  2  4  1  0  0  0  0
  2  5  1  0  0  0  0
  1  2  1  0  0  0  0
 19 20  2  0  0  0  0
 19 21  1  0  0  0  0
 17 18  1  0  0  0  0
 13 14  1  0  0  0  0
 13 15  1  0  0  0  0
 13 16  1  0  0  0  0
 11 12  1  0  0  0  0
 11 13  1  0  0  0  0
 11 17  1  0  0  0  0
  9 10  1  0  0  0  0
  9 11  1  0  0  0  0
  9 19  1  0  0  0  0
  7  8  1  0  0  0  0
  7  9  1  0  0  0  0
 23 24  1  0  0  0  0
 23 25  1  0  0  0  0
 23 26  1  0  0  0  0
 21 22  1  0  0  0  0
 21 23  1  0  0  0  0
M  END
$$$$
default_name
  -OEChem-01062215323D

 26 25  0     1  0  0  0  0  0999 V2000
   -2.8882   -3.2497    1.2537 H   0  0  0  0  0  0  0  0  0  0  0  0
   -2.8032   -2.3157    0.7017 C   0  0  0  0  0  0  0  0  0  0  0  0
   -3.5012   -1.5857    1.1067 H   0  0  0  0  0  0  0  0  0  0  0  0
   -3.0182   -2.4907   -0.3513 H   0  0  0  0  0  0  0  0  0  0  0  0
   -1.3942   -1.7897    0.8407 C   0  0  0  0  0  0  0  0  0  0  0  0
   -0.5672   -2.4077    1.5007 O   0  0  0  0  0  0  0  0  0  0  0  0
   -1.1222   -0.6447    0.2217 N   0  0  0  0  0  0  0  0  0  0  0  0
   -1.8592   -0.1777   -0.2863 H   0  0  0  0  0  0  0  0  0  0  0  0
    0.1838    0.0363    0.2367 C   0  0  1  0  0  0  0  0  0  0  0  0
    0.9306   -0.6502    0.6341 H   0  0  0  0  0  0  0  0  0  0  0  0
    0.6303    0.4515   -1.1803 C   0  0  1  0  0  0  0  0  0  0  0  0
    1.5964    0.9496   -1.1011 H   0  0  0  0  0  0  0  0  0  0  0  0
    0.7881   -0.7169   -2.1513 C   0  0  0  0  0  0  0  0  0  0  0  0
   -0.1820   -1.1676   -2.3644 H   0  0  0  0  0  0  0  0  0  0  0  0
    1.2322   -0.3666   -3.0823 H   0  0  0  0  0  0  0  0  0  0  0  0
    1.4404   -1.4725   -1.7125 H   0  0  0  0  0  0  0  0  0  0  0  0
   -0.2860    1.3498   -1.7553 O   0  0  0  0  0  0  0  0  0  0  0  0
   -0.0214    1.5030   -2.6647 H   0  0  0  0  0  0  0  0  0  0  0  0
    0.1512    1.2604    1.1601 C   0  0  0  0  0  0  0  0  0  0  0  0
    0.8408    2.2519    0.9218 O   0  0  0  0  0  0  0  0  0  0  0  0
   -0.6786    1.2086    2.2114 N   0  0  0  0  0  0  0  0  0  0  0  0
   -1.2314    0.3774    2.3417 H   0  0  0  0  0  0  0  0  0  0  0  0
   -0.8287    2.2894    3.1845 C   0  0  0  0  0  0  0  0  0  0  0  0
   -1.0534    3.2240    2.6667 H   0  0  0  0  0  0  0  0  0  0  0  0
   -1.6347    2.0637    3.8829 H   0  0  0  0  0  0  0  0  0  0  0  0
    0.1037    2.4172    3.7386 H   0  0  0  0  0  0  0  0  0  0  0  0
  5  6  2  0  0  0  0
  5  7  1  0  0  0  0
  2  3  1  0  0  0  0
  2  4  1  0  0  0  0
  2  5  1  0  0  0  0
  1  2  1  0  0  0  0
 19 20  2  0  0  0  0
 19 21  1  0  0  0  0
 17 18  1  0  0  0  0
 13 14  1  0  0  0  0
 13 15  1  0  0  0  0
 13 16  1  0  0  0  0
 11 12  1  0  0  0  0
 11 13  1  0  0  0  0
 11 17  1  0  0  0  0
  9 10  1  0  0  0  0
  9 11  1  0  0  0  0
  9 19  1  0  0  0  0
  7  8  1  0  0  0  0
  7  9  1  0  0  0  0
 23 24  1  0  0  0  0
 23 25  1  0  0  0  0
 23 26  1  0  0  0  0
 21 22  1  0  0  0  0
 21 23  1  0  0  0  0
M  END
$$$$
default_name
  -OEChem-01062215323D

 26 25  0     1  0  0  0  0  0999 V2000
   -2.8882   -3.2497    1.2537 H   0  0  0  0  0  0  0  0  0  0  0  0
   -2.8032   -2.3157    0.7017 C   0  0  0  0  0  0  0  0  0  0  0  0
   -3.5012   -1.5857    1.1067 H   0  0  0  0  0  0  0  0  0  0  0  0
   -3.0182   -2.4907   -0.3513 H   0  0  0  0  0  0  0  0  0  0  0  0
   -1.3942   -1.7897    0.8407 C   0  0  0  0  0  0  0  0  0  0  0  0
   -0.5672   -2.4077    1.5007 O   0  0  0  0  0  0  0  0  0  0  0  0
   -1.1222   -0.6447    0.2217 N   0  0  0  0  0  0  0  0  0  0  0  0
   -1.8592   -0.1777   -0.2863 H   0  0  0  0  0  0  0  0  0  0  0  0
    0.1838    0.0363    0.2367 C   0  0  1  0  0  0  0  0  0  0  0  0
    0.9306   -0.6502    0.6341 H   0  0  0  0  0  0  0  0  0  0  0  0
    0.6303    0.4515   -1.1803 C   0  0  1  0  0  0  0  0  0  0  0  0
    1.5964    0.9496   -1.1011 H   0  0  0  0  0  0  0  0  0  0  0  0
    0.7881   -0.7169   -2.1513 C   0  0  0  0  0  0  0  0  0  0  0  0
   -0.1820   -1.1676   -2.3644 H   0  0  0  0  0  0  0  0  0  0  0  0
    1.2322   -0.3666   -3.0823 H   0  0  0  0  0  0  0  0  0  0  0  0
    1.4404   -1.4725   -1.7125 H   0  0  0  0  0  0  0  0  0  0  0  0
   -0.2860    1.3498   -1.7553 O   0  0  0  0  0  0  0  0  0  0  0  0
   -0.0214    1.5030   -2.6647 H   0  0  0  0  0  0  0  0  0  0  0  0
    0.1512    1.2604    1.1601 C   0  0  0  0  0  0  0  0  0  0  0  0
    0.6131    2.3415    0.7950 O   0  0  0  0  0  0  0  0  0  0  0  0
   -0.4255    1.1035    2.3598 N   0  0  0  0  0  0  0  0  0  0  0  0
   -0.8026    0.1995    2.5926 H   0  0  0  0  0  0  0  0  0  0  0  0
   -0.5389    2.1689    3.3546 C   0  0  0  0  0  0  0  0  0  0  0  0
   -1.0089    3.0457    2.9048 H   0  0  0  0  0  0  0  0  0  0  0  0
   -1.1382    1.8361    4.2022 H   0  0  0  0  0  0  0  0  0  0  0  0
    0.4560    2.4519    3.7050 H   0  0  0  0  0  0  0  0  0  0  0  0
  5  6  2  0  0  0  0
  5  7  1  0  0  0  0
  2  3  1  0  0  0  0
  2  4  1  0  0  0  0
  2  5  1  0  0  0  0
  1  2  1  0  0  0  0
 19 20  2  0  0  0  0
 19 21  1  0  0  0  0
 17 18  1  0  0  0  0
 13 14  1  0  0  0  0
 13 15  1  0  0  0  0
 13 16  1  0  0  0  0
 11 12  1  0  0  0  0
 11 13  1  0  0  0  0
 11 17  1  0  0  0  0
  9 10  1  0  0  0  0
  9 11  1  0  0  0  0
  9 19  1  0  0  0  0
  7  8  1  0  0  0  0
  7  9  1  0  0  0  0
 23 24  1  0  0  0  0
 23 25  1  0  0  0  0
 23 26  1  0  0  0  0
 21 22  1  0  0  0  0
 21 23  1  0  0  0  0
M  END
$$$$
default_name
  -OEChem-01062215323D

 26 25  0     1  0  0  0  0  0999 V2000
   -2.8882   -3.2497    1.2537 H   0  0  0  0  0  0  0  0  0  0  0  0
   -2.8032   -2.3157    0.7017 C   0  0  0  0  0  0  0  0  0  0  0  0
   -3.5012   -1.5857    1.1067 H   0  0  0  0  0  0  0  0  0  0  0  0
   -3.0182   -2.4907   -0.3513 H   0  0  0  0  0  0  0  0  0  0  0  0
   -1.3942   -1.7897    0.8407 C   0  0  0  0  0  0  0  0  0  0  0  0
   -0.5672   -2.4077    1.5007 O   0  0  0  0  0  0  0  0  0  0  0  0
   -1.1222   -0.6447    0.2217 N   0  0  0  0  0  0  0  0  0  0  0  0
   -1.8592   -0.1777   -0.2863 H   0  0  0  0  0  0  0  0  0  0  0  0
    0.1838    0.0363    0.2367 C   0  0  1  0  0  0  0  0  0  0  0  0
    0.9306   -0.6502    0.6341 H   0  0  0  0  0  0  0  0  0  0  0  0
    0.6303    0.4515   -1.1803 C   0  0  1  0  0  0  0  0  0  0  0  0
    1.5964    0.9496   -1.1011 H   0  0  0  0  0  0  0  0  0  0  0  0
    0.7881   -0.7169   -2.1513 C   0  0  0  0  0  0  0  0  0  0  0  0
   -0.1820   -1.1676   -2.3644 H   0  0  0  0  0  0  0  0  0  0  0  0
    1.2322   -0.3666   -3.0823 H   0  0  0  0  0  0  0  0  0  0  0  0
    1.4404   -1.4725   -1.7125 H   0  0  0  0  0  0  0  0  0  0  0  0
   -0.2860    1.3498   -1.7553 O   0  0  0  0  0  0  0  0  0  0  0  0
   -0.0214    1.5030   -2.6647 H   0  0  0  0  0  0  0  0  0  0  0  0
    0.1512    1.2604    1.1601 C   0  0  0  0  0  0  0  0  0  0  0  0
    0.3530    2.3918    0.7191 O   0  0  0  0  0  0  0  0  0  0  0  0
   -0.1340    1.0421    2.4514 N   0  0  0  0  0  0  0  0  0  0  0  0
   -0.3089    0.0959    2.7475 H   0  0  0  0  0  0  0  0  0  0  0  0
   -0.2051    2.0985    3.4597 C   0  0  0  0  0  0  0  0  0  0  0  0
   -0.8889    2.8817    3.1264 H   0  0  0  0  0  0  0  0  0  0  0  0
   -0.5572    1.6953    4.4093 H   0  0  0  0  0  0  0  0  0  0  0  0
    0.7839    2.5401    3.5996 H   0  0  0  0  0  0  0  0  0  0  0  0
  5  6  2  0  0  0  0
  5  7  1  0  0  0  0
  2  3  1  0  0  0  0
  2  4  1  0  0  0  0
  2  5  1  0  0  0  0
  1  2  1  0  0  0  0
 19 20  2  0  0  0  0
 19 21  1  0  0  0  0
 17 18  1  0  0  0  0
 13 14  1  0  0  0  0
 13 15  1  0  0  0  0
 13 16  1  0  0  0  0
 11 12  1  0  0  0  0
 11 13  1  0  0  0  0
 11 17  1  0  0  0  0
  9 10  1  0  0  0  0
  9 11  1  0  0  0  0
  9 19  1  0  0  0  0
  7  8  1  0  0  0  0
  7  9  1  0  0  0  0
 23 24  1  0  0  0  0
 23 25  1  0  0  0  0
 23 26  1  0  0  0  0
 21 22  1  0  0  0  0
 21 23  1  0  0  0  0
M  END
$$$$
default_name
  -OEChem-01062215323D

 26 25  0     1  0  0  0  0  0999 V2000
   -2.8882   -3.2497    1.2537 H   0  0  0  0  0  0  0  0  0  0  0  0
   -2.8032   -2.3157    0.7017 C   0  0  0  0  0  0  0  0  0  0  0  0
   -3.5012   -1.5857    1.1067 H   0  0  0  0  0  0  0  0  0  0  0  0
   -3.0182   -2.4907   -0.3513 H   0  0  0  0  0  0  0  0  0  0  0  0
   -1.3942   -1.7897    0.8407 C   0  0  0  0  0  0  0  0  0  0  0  0
   -0.5672   -2.4077    1.5007 O   0  0  0  0  0  0  0  0  0  0  0  0
   -1.1222   -0.6447    0.2217 N   0  0  0  0  0  0  0  0  0  0  0  0
   -1.8592   -0.1777   -0.2863 H   0  0  0  0  0  0  0  0  0  0  0  0
    0.1838    0.0363    0.2367 C   0  0  1  0  0  0  0  0  0  0  0  0
    0.9306   -0.6502    0.6341 H   0  0  0  0  0  0  0  0  0  0  0  0
    0.6303    0.4515   -1.1803 C   0  0  1  0  0  0  0  0  0  0  0  0
    1.5964    0.9496   -1.1011 H   0  0  0  0  0  0  0  0  0  0  0  0
    0.7881   -0.7169   -2.1513 C   0  0  0  0  0  0  0  0  0  0  0  0
   -0.1820   -1.1676   -2.3644 H   0  0  0  0  0  0  0  0  0  0  0  0
    1.2322   -0.3666   -3.0823 H   0  0  0  0  0  0  0  0  0  0  0  0
    1.4404   -1.4725   -1.7125 H   0  0  0  0  0  0  0  0  0  0  0  0
   -0.2860    1.3498   -1.7553 O   0  0  0  0  0  0  0  0  0  0  0  0
   -0.0214    1.5030   -2.6647 H   0  0  0  0  0  0  0  0  0  0  0  0
    0.1512    1.2604    1.1601 C   0  0  0  0  0  0  0  0  0  0  0  0
    0.0783    2.3995    0.6992 O   0  0  0  0  0  0  0  0  0  0  0  0
    0.1761    1.0288    2.4800 N   0  0  0  0  0  0  0  0  0  0  0  0
    0.2162    0.0736    2.7956 H   0  0  0  0  0  0  0  0  0  0  0  0
    0.1501    2.0831    3.4926 C   0  0  0  0  0  0  0  0  0  0  0  0
   -0.7017    2.7431    3.3167 H   0  0  0  0  0  0  0  0  0  0  0  0
    0.0687    1.6510    4.4901 H   0  0  0  0  0  0  0  0  0  0  0  0
    1.0651    2.6759    3.4296 H   0  0  0  0  0  0  0  0  0  0  0  0
  5  6  2  0  0  0  0
  5  7  1  0  0  0  0
  2  3  1  0  0  0  0
  2  4  1  0  0  0  0
  2  5  1  0  0  0  0
  1  2  1  0  0  0  0
 19 20  2  0  0  0  0
 19 21  1  0  0  0  0
 17 18  1  0  0  0  0
 13 14  1  0  0  0  0
 13 15  1  0  0  0  0
 13 16  1  0  0  0  0
 11 12  1  0  0  0  0
 11 13  1  0  0  0  0
 11 17  1  0  0  0  0
  9 10  1  0  0  0  0
  9 11  1  0  0  0  0
  9 19  1  0  0  0  0
  7  8  1  0  0  0  0
  7  9  1  0  0  0  0
 23 24  1  0  0  0  0
 23 25  1  0  0  0  0
 23 26  1  0  0  0  0
 21 22  1  0  0  0  0
 21 23  1  0  0  0  0
M  END
$$$$
default_name
  -OEChem-01062215323D

 26 25  0     1  0  0  0  0  0999 V2000
   -2.8882   -3.2497    1.2537 H   0  0  0  0  0  0  0  0  0  0  0  0
   -2.8032   -2.3157    0.7017 C   0  0  0  0  0  0  0  0  0  0  0  0
   -3.5012   -1.5857    1.1067 H   0  0  0  0  0  0  0  0  0  0  0  0
   -3.0182   -2.4907   -0.3513 H   0  0  0  0  0  0  0  0  0  0  0  0
   -1.3942   -1.7897    0.8407 C   0  0  0  0  0  0  0  0  0  0  0  0
   -0.5672   -2.4077    1.5007 O   0  0  0  0  0  0  0  0  0  0  0  0
   -1.1222   -0.6447    0.2217 N   0  0  0  0  0  0  0  0  0  0  0  0
   -1.8592   -0.1777   -0.2863 H   0  0  0  0  0  0  0  0  0  0  0  0
    0.1838    0.0363    0.2367 C   0  0  1  0  0  0  0  0  0  0  0  0
    0.9306   -0.6502    0.6341 H   0  0  0  0  0  0  0  0  0  0  0  0
    0.6303    0.4515   -1.1803 C   0  0  1  0  0  0  0  0  0  0  0  0
    1.5964    0.9496   -1.1011 H   0  0  0  0  0  0  0  0  0  0  0  0
    0.7881   -0.7169   -2.1513 C   0  0  0  0  0  0  0  0  0  0  0  0
   -0.1820   -1.1676   -2.3644 H   0  0  0  0  0  0  0  0  0  0  0  0
    1.2322   -0.3666   -3.0823 H   0  0  0  0  0  0  0  0  0  0  0  0
    1.4404   -1.4725   -1.7125 H   0  0  0  0  0  0  0  0  0  0  0  0
   -0.2860    1.3498   -1.7553 O   0  0  0  0  0  0  0  0  0  0  0  0
   -0.0214    1.5030   -2.6647 H   0  0  0  0  0  0  0  0  0  0  0  0
    0.1512    1.2604    1.1601 C   0  0  0  0  0  0  0  0  0  0  0  0
   -0.1924    2.3640    0.7367 O   0  0  0  0  0  0  0  0  0  0  0  0
    0.4836    1.0644    2.4437 N   0  0  0  0  0  0  0  0  0  0  0  0
    0.7367    0.1341    2.7337 H   0  0  0  0  0  0  0  0  0  0  0  0
    0.5023    2.1238    3.4511 C   0  0  0  0  0  0  0  0  0  0  0  0
   -0.4599    2.6396    3.4625 H   0  0  0  0  0  0  0  0  0  0  0  0
    0.6970    1.7062    4.4391 H   0  0  0  0  0  0  0  0  0  0  0  0
    1.2805    2.8499    3.2065 H   0  0  0  0  0  0  0  0  0  0  0  0
  5  6  2  0  0  0  0
  5  7  1  0  0  0  0
  2  3  1  0  0  0  0
  2  4  1  0  0  0  0
  2  5  1  0  0  0  0
  1  2  1  0  0  0  0
 19 20  2  0  0  0  0
 19 21  1  0  0  0  0
 17 18  1  0  0  0  0
 13 14  1  0  0  0  0
 13 15  1  0  0  0  0
 13 16  1  0  0  0  0
 11 12  1  0  0  0  0
 11 13  1  0  0  0  0
 11 17  1  0  0  0  0
  9 10  1  0  0  0  0
  9 11  1  0  0  0  0
  9 19  1  0  0  0  0
  7  8  1  0  0  0  0
  7  9  1  0  0  0  0
 23 24  1  0  0  0  0
 23 25  1  0  0  0  0
 23 26  1  0  0  0  0
 21 22  1  0  0  0  0
 21 23  1  0  0  0  0
M  END
$$$$
default_name
  -OEChem-01062215323D

 26 25  0     1  0  0  0  0  0999 V2000
   -2.8882   -3.2497    1.2537 H   0  0  0  0  0  0  0  0  0  0  0  0
   -2.8032   -2.3157    0.7017 C   0  0  0  0  0  0  0  0  0  0  0  0
   -3.5012   -1.5857    1.1067 H   0  0  0  0  0  0  0  0  0  0  0  0
   -3.0182   -2.4907   -0.3513 H   0  0  0  0  0  0  0  0  0  0  0  0
   -1.3942   -1.7897    0.8407 C   0  0  0  0  0  0  0  0  0  0  0  0
   -0.5672   -2.4077    1.5007 O   0  0  0  0  0  0  0  0  0  0  0  0
   -1.1222   -0.6447    0.2217 N   0  0  0  0  0  0  0  0  0  0  0  0
   -1.8592   -0.1777   -0.2863 H   0  0  0  0  0  0  0  0  0  0  0  0
    0.1838    0.0363    0.2367 C   0  0  1  0  0  0  0  0  0  0  0  0
    0.9306   -0.6502    0.6341 H   0  0  0  0  0  0  0  0  0  0  0  0
    0.6303    0.4515   -1.1803 C   0  0  1  0  0  0  0  0  0  0  0  0
    1.5964    0.9496   -1.1011 H   0  0  0  0  0  0  0  0  0  0  0  0
    0.7881   -0.7169   -2.1513 C   0  0  0  0  0  0  0  0  0  0  0  0
   -0.1820   -1.1676   -2.3644 H   0  0  0  0  0  0  0  0  0  0  0  0
    1.2322   -0.3666   -3.0823 H   0  0  0  0  0  0  0  0  0  0  0  0
    1.4404   -1.4725   -1.7125 H   0  0  0  0  0  0  0  0  0  0  0  0
   -0.2860    1.3498   -1.7553 O   0  0  0  0  0  0  0  0  0  0  0  0
   -0.0214    1.5030   -2.6647 H   0  0  0  0  0  0  0  0  0  0  0  0
    0.1512    1.2604    1.1601 C   0  0  0  0  0  0  0  0  0  0  0  0
   -0.4406    2.2878    0.8290 O   0  0  0  0  0  0  0  0  0  0  0  0
    0.7675    1.1464    2.3449 N   0  0  0  0  0  0  0  0  0  0  0  0
    1.2173    0.2734    2.5660 H   0  0  0  0  0  0  0  0  0  0  0  0
    0.8276    2.2177    3.3381 C   0  0  0  0  0  0  0  0  0  0  0  0
   -0.1802    2.5780    3.5541 H   0  0  0  0  0  0  0  0  0  0  0  0
    1.2846    1.8571    4.2598 H   0  0  0  0  0  0  0  0  0  0  0  0
    1.4153    3.0503    2.9455 H   0  0  0  0  0  0  0  0  0  0  0  0
  5  6  2  0  0  0  0
  5  7  1  0  0  0  0
  2  3  1  0  0  0  0
  2  4  1  0  0  0  0
  2  5  1  0  0  0  0
  1  2  1  0  0  0  0
 19 20  2  0  0  0  0
 19 21  1  0  0  0  0
 17 18  1  0  0  0  0
 13 14  1  0  0  0  0
 13 15  1  0  0  0  0
 13 16  1  0  0  0  0
 11 12  1  0  0  0  0
 11 13  1  0  0  0  0
 11 17  1  0  0  0  0
  9 10  1  0  0  0  0
  9 11  1  0  0  0  0
  9 19  1  0  0  0  0
  7  8  1  0  0  0  0
  7  9  1  0  0  0  0
 23 24  1  0  0  0  0
 23 25  1  0  0  0  0
 23 26  1  0  0  0  0
 21 22  1  0  0  0  0
 21 23  1  0  0  0  0
M  END
$$$$
default_name
  -OEChem-01062215323D

 26 25  0     1  0  0  0  0  0999 V2000
   -2.8882   -3.2497    1.2537 H   0  0  0  0  0  0  0  0  0  0  0  0
   -2.8032   -2.3157    0.7017 C   0  0  0  0  0  0  0  0  0  0  0  0
   -3.5012   -1.5857    1.1067 H   0  0  0  0  0  0  0  0  0  0  0  0
   -3.0182   -2.4907   -0.3513 H   0  0  0  0  0  0  0  0  0  0  0  0
   -1.3942   -1.7897    0.8407 C   0  0  0  0  0  0  0  0  0  0  0  0
   -0.5672   -2.4077    1.5007 O   0  0  0  0  0  0  0  0  0  0  0  0
   -1.1222   -0.6447    0.2217 N   0  0  0  0  0  0  0  0  0  0  0  0
   -1.8592   -0.1777   -0.2863 H   0  0  0  0  0  0  0  0  0  0  0  0
    0.1838    0.0363    0.2367 C   0  0  1  0  0  0  0  0  0  0  0  0
    0.9306   -0.6502    0.6341 H   0  0  0  0  0  0  0  0  0  0  0  0
    0.6303    0.4515   -1.1803 C   0  0  1  0  0  0  0  0  0  0  0  0
    1.5964    0.9496   -1.1011 H   0  0  0  0  0  0  0  0  0  0  0  0
    0.7881   -0.7169   -2.1513 C   0  0  0  0  0  0  0  0  0  0  0  0
   -0.1820   -1.1676   -2.3644 H   0  0  0  0  0  0  0  0  0  0  0  0
    1.2322   -0.3666   -3.0823 H   0  0  0  0  0  0  0  0  0  0  0  0
    1.4404   -1.4725   -1.7125 H   0  0  0  0  0  0  0  0  0  0  0  0
   -0.2860    1.3498   -1.7553 O   0  0  0  0  0  0  0  0  0  0  0  0
   -0.0214    1.5030   -2.6647 H   0  0  0  0  0  0  0  0  0  0  0  0
    0.1512    1.2604    1.1601 C   0  0  0  0  0  0  0  0  0  0  0  0
   -0.6493    2.1760    0.9699 O   0  0  0  0  0  0  0  0  0  0  0  0
    1.0086    1.2694    2.1903 N   0  0  0  0  0  0  0  0  0  0  0  0
    1.6252    0.4818    2.3040 H   0  0  0  0  0  0  0  0  0  0  0  0
    1.1038    2.3585    3.1611 C   0  0  0  0  0  0  0  0  0  0  0  0
    0.1186    2.5626    3.5850 H   0  0  0  0  0  0  0  0  0  0  0  0
    1.7917    2.0935    3.9643 H   0  0  0  0  0  0  0  0  0  0  0  0
    1.4604    3.2634    2.6645 H   0  0  0  0  0  0  0  0  0  0  0  0
  5  6  2  0  0  0  0
  5  7  1  0  0  0  0
  2  3  1  0  0  0  0
  2  4  1  0  0  0  0
  2  5  1  0  0  0  0
  1  2  1  0  0  0  0
 19 20  2  0  0  0  0
 19 21  1  0  0  0  0
 17 18  1  0  0  0  0
 13 14  1  0  0  0  0
 13 15  1  0  0  0  0
 13 16  1  0  0  0  0
 11 12  1  0  0  0  0
 11 13  1  0  0  0  0
 11 17  1  0  0  0  0
  9 10  1  0  0  0  0
  9 11  1  0  0  0  0
  9 19  1  0  0  0  0
  7  8  1  0  0  0  0
  7  9  1  0  0  0  0
 23 24  1  0  0  0  0
 23 25  1  0  0  0  0
 23 26  1  0  0  0  0
 21 22  1  0  0  0  0
 21 23  1  0  0  0  0
M  END
$$$$
default_name
  -OEChem-01062215323D

 26 25  0     1  0  0  0  0  0999 V2000
   -2.8882   -3.2497    1.2537 H   0  0  0  0  0  0  0  0  0  0  0  0
   -2.8032   -2.3157    0.7017 C   0  0  0  0  0  0  0  0  0  0  0  0
   -3.5012   -1.5857    1.1067 H   0  0  0  0  0  0  0  0  0  0  0  0
   -3.0182   -2.4907   -0.3513 H   0  0  0  0  0  0  0  0  0  0  0  0
   -1.3942   -1.7897    0.8407 C   0  0  0  0  0  0  0  0  0  0  0  0
   -0.5672   -2.4077    1.5007 O   0  0  0  0  0  0  0  0  0  0  0  0
   -1.1222   -0.6447    0.2217 N   0  0  0  0  0  0  0  0  0  0  0  0
   -1.8592   -0.1777   -0.2863 H   0  0  0  0  0  0  0  0  0  0  0  0
    0.1838    0.0363    0.2367 C   0  0  1  0  0  0  0  0  0  0  0  0
    0.9306   -0.6502    0.6341 H   0  0  0  0  0  0  0  0  0  0  0  0
    0.6303    0.4515   -1.1803 C   0  0  1  0  0  0  0  0  0  0  0  0
    1.5964    0.9496   -1.1011 H   0  0  0  0  0  0  0  0  0  0  0  0
    0.7881   -0.7169   -2.1513 C   0  0  0  0  0  0  0  0  0  0  0  0
   -0.1820   -1.1676   -2.3644 H   0  0  0  0  0  0  0  0  0  0  0  0
    1.2322   -0.3666   -3.0823 H   0  0  0  0  0  0  0  0  0  0  0  0
    1.4404   -1.4725   -1.7125 H   0  0  0  0  0  0  0  0  0  0  0  0
   -0.2860    1.3498   -1.7553 O   0  0  0  0  0  0  0  0  0  0  0  0
   -0.0214    1.5030   -2.6647 H   0  0  0  0  0  0  0  0  0  0  0  0
    0.1512    1.2604    1.1601 C   0  0  0  0  0  0  0  0  0  0  0  0
   -0.8044    2.0362    1.1497 O   0  0  0  0  0  0  0  0  0  0  0  0
    1.1904    1.4250    1.9905 N   0  0  0  0  0  0  0  0  0  0  0  0
    1.9326    0.7453    1.9656 H   0  0  0  0  0  0  0  0  0  0  0  0
    1.3122    2.5366    2.9324 C   0  0  0  0  0  0  0  0  0  0  0  0
    0.4159    2.5945    3.5532 H   0  0  0  0  0  0  0  0  0  0  0  0
    2.1836    2.3992    3.5728 H   0  0  0  0  0  0  0  0  0  0  0  0
    1.4127    3.4748    2.3826 H   0  0  0  0  0  0  0  0  0  0  0  0
  5  6  2  0  0  0  0
  5  7  1  0  0  0  0
  2  3  1  0  0  0  0
  2  4  1  0  0  0  0
  2  5  1  0  0  0  0
  1  2  1  0  0  0  0
 19 20  2  0  0  0  0
 19 21  1  0  0  0  0
 17 18  1  0  0  0  0
 13 14  1  0  0  0  0
 13 15  1  0  0  0  0
 13 16  1  0  0  0  0
 11 12  1  0  0  0  0
 11 13  1  0  0  0  0
 11 17  1  0  0  0  0
  9 10  1  0  0  0  0
  9 11  1  0  0  0  0
  9 19  1  0  0  0  0
  7  8  1  0  0  0  0
  7  9  1  0  0  0  0
 23 24  1  0  0  0  0
 23 25  1  0  0  0  0
 23 26  1  0  0  0  0
 21 22  1  0  0  0  0
 21 23  1  0  0  0  0
M  END
$$$$
default_name
  -OEChem-01062215323D

 26 25  0     1  0  0  0  0  0999 V2000
   -2.8882   -3.2497    1.2537 H   0  0  0  0  0  0  0  0  0  0  0  0
   -2.8032   -2.3157    0.7017 C   0  0  0  0  0  0  0  0  0  0  0  0
   -3.5012   -1.5857    1.1067 H   0  0  0  0  0  0  0  0  0  0  0  0
   -3.0182   -2.4907   -0.3513 H   0  0  0  0  0  0  0  0  0  0  0  0
   -1.3942   -1.7897    0.8407 C   0  0  0  0  0  0  0  0  0  0  0  0
   -0.5672   -2.4077    1.5007 O   0  0  0  0  0  0  0  0  0  0  0  0
   -1.1222   -0.6447    0.2217 N   0  0  0  0  0  0  0  0  0  0  0  0
   -1.8592   -0.1777   -0.2863 H   0  0  0  0  0  0  0  0  0  0  0  0
    0.1838    0.0363    0.2367 C   0  0  1  0  0  0  0  0  0  0  0  0
    0.9306   -0.6502    0.6341 H   0  0  0  0  0  0  0  0  0  0  0  0
    0.6303    0.4515   -1.1803 C   0  0  1  0  0  0  0  0  0  0  0  0
    1.5964    0.9496   -1.1011 H   0  0  0  0  0  0  0  0  0  0  0  0
    0.7881   -0.7169   -2.1513 C   0  0  0  0  0  0  0  0  0  0  0  0
   -0.1820   -1.1676   -2.3644 H   0  0  0  0  0  0  0  0  0  0  0  0
    1.2322   -0.3666   -3.0823 H   0  0  0  0  0  0  0  0  0  0  0  0
    1.4404   -1.4725   -1.7125 H   0  0  0  0  0  0  0  0  0  0  0  0
   -0.2860    1.3498   -1.7553 O   0  0  0  0  0  0  0  0  0  0  0  0
   -0.0214    1.5030   -2.6647 H   0  0  0  0  0  0  0  0  0  0  0  0
    0.1512    1.2604    1.1601 C   0  0  0  0  0  0  0  0  0  0  0  0
   -0.8953    1.8780    1.3562 O   0  0  0  0  0  0  0  0  0  0  0  0
    1.3005    1.6024    1.7591 N   0  0  0  0  0  0  0  0  0  0  0  0
    2.1186    1.0458    1.5737 H   0  0  0  0  0  0  0  0  0  0  0  0
    1.4384    2.7398    2.6675 C   0  0  0  0  0  0  0  0  0  0  0  0
    0.6916    2.6714    3.4610 H   0  0  0  0  0  0  0  0  0  0  0  0
    2.4337    2.7534    3.1121 H   0  0  0  0  0  0  0  0  0  0  0  0
    1.2754    3.6700    2.1190 H   0  0  0  0  0  0  0  0  0  0  0  0
  5  6  2  0  0  0  0
  5  7  1  0  0  0  0
  2  3  1  0  0  0  0
  2  4  1  0  0  0  0
  2  5  1  0  0  0  0
  1  2  1  0  0  0  0
 19 20  2  0  0  0  0
 19 21  1  0  0  0  0
 17 18  1  0  0  0  0
 13 14  1  0  0  0  0
 13 15  1  0  0  0  0
 13 16  1  0  0  0  0
 11 12  1  0  0  0  0
 11 13  1  0  0  0  0
 11 17  1  0  0  0  0
  9 10  1  0  0  0  0
  9 11  1  0  0  0  0
  9 19  1  0  0  0  0
  7  8  1  0  0  0  0
  7  9  1  0  0  0  0
 23 24  1  0  0  0  0
 23 25  1  0  0  0  0
 23 26  1  0  0  0  0
 21 22  1  0  0  0  0
 21 23  1  0  0  0  0
M  END
$$$$
default_name
  -OEChem-01062215323D

 26 25  0     1  0  0  0  0  0999 V2000
   -2.8882   -3.2497    1.2537 H   0  0  0  0  0  0  0  0  0  0  0  0
   -2.8032   -2.3157    0.7017 C   0  0  0  0  0  0  0  0  0  0  0  0
   -3.5012   -1.5857    1.1067 H   0  0  0  0  0  0  0  0  0  0  0  0
   -3.0182   -2.4907   -0.3513 H   0  0  0  0  0  0  0  0  0  0  0  0
   -1.3942   -1.7897    0.8407 C   0  0  0  0  0  0  0  0  0  0  0  0
   -0.5672   -2.4077    1.5007 O   0  0  0  0  0  0  0  0  0  0  0  0
   -1.1222   -0.6447    0.2217 N   0  0  0  0  0  0  0  0  0  0  0  0
   -1.8592   -0.1777   -0.2863 H   0  0  0  0  0  0  0  0  0  0  0  0
    0.1838    0.0363    0.2367 C   0  0  1  0  0  0  0  0  0  0  0  0
    0.9306   -0.6502    0.6341 H   0  0  0  0  0  0  0  0  0  0  0  0
    0.6303    0.4515   -1.1803 C   0  0  1  0  0  0  0  0  0  0  0  0
    1.5964    0.9496   -1.1011 H   0  0  0  0  0  0  0  0  0  0  0  0
    0.7881   -0.7169   -2.1513 C   0  0  0  0  0  0  0  0  0  0  0  0
   -0.1820   -1.1676   -2.3644 H   0  0  0  0  0  0  0  0  0  0  0  0
    1.2322   -0.3666   -3.0823 H   0  0  0  0  0  0  0  0  0  0  0  0
    1.4404   -1.4725   -1.7125 H   0  0  0  0  0  0  0  0  0  0  0  0
   -0.2860    1.3498   -1.7553 O   0  0  0  0  0  0  0  0  0  0  0  0
   -0.0214    1.5030   -2.6647 H   0  0  0  0  0  0  0  0  0  0  0  0
    0.1512    1.2604    1.1601 C   0  0  0  0  0  0  0  0  0  0  0  0
   -0.9158    1.7122    1.5754 O   0  0  0  0  0  0  0  0  0  0  0  0
    1.3313    1.7897    1.5119 N   0  0  0  0  0  0  0  0  0  0  0  0
    2.1704    1.3630    1.1551 H   0  0  0  0  0  0  0  0  0  0  0  0
    1.4740    2.9543    2.3843 C   0  0  0  0  0  0  0  0  0  0  0  0
    0.9269    2.7882    3.3145 H   0  0  0  0  0  0  0  0  0  0  0  0
    2.5249    3.1319    2.6134 H   0  0  0  0  0  0  0  0  0  0  0  0
    1.0580    3.8357    1.8917 H   0  0  0  0  0  0  0  0  0  0  0  0
  5  6  2  0  0  0  0
  5  7  1  0  0  0  0
  2  3  1  0  0  0  0
  2  4  1  0  0  0  0
  2  5  1  0  0  0  0
  1  2  1  0  0  0  0
 19 20  2  0  0  0  0
 19 21  1  0  0  0  0
 17 18  1  0  0  0  0
 13 14  1  0  0  0  0
 13 15  1  0  0  0  0
 13 16  1  0  0  0  0
 11 12  1  0  0  0  0
 11 13  1  0  0  0  0
 11 17  1  0  0  0  0
  9 10  1  0  0  0  0
  9 11  1  0  0  0  0
  9 19  1  0  0  0  0
  7  8  1  0  0  0  0
  7  9  1  0  0  0  0
 23 24  1  0  0  0  0
 23 25  1  0  0  0  0
 23 26  1  0  0  0  0
 21 22  1  0  0  0  0
 21 23  1  0  0  0  0
M  END
$$$$
default_name
  -OEChem-01062215323D

 26 25  0     1  0  0  0  0  0999 V2000
   -2.8882   -3.2497    1.2537 H   0  0  0  0  0  0  0  0  0  0  0  0
   -2.8032   -2.3157    0.7017 C   0  0  0  0  0  0  0  0  0  0  0  0
   -3.5012   -1.5857    1.1067 H   0  0  0  0  0  0  0  0  0  0  0  0
   -3.0182   -2.4907   -0.3513 H   0  0  0  0  0  0  0  0  0  0  0  0
   -1.3942   -1.7897    0.8407 C   0  0  0  0  0  0  0  0  0  0  0  0
   -0.5672   -2.4077    1.5007 O   0  0  0  0  0  0  0  0  0  0  0  0
   -1.1222   -0.6447    0.2217 N   0  0  0  0  0  0  0  0  0  0  0  0
   -1.8592   -0.1777   -0.2863 H   0  0  0  0  0  0  0  0  0  0  0  0
    0.1838    0.0363    0.2367 C   0  0  1  0  0  0  0  0  0  0  0  0
    0.9650   -0.7105    0.3738 H   0  0  0  0  0  0  0  0  0  0  0  0
    0.4618    0.7727   -1.0899 C   0  0  1  0  0  0  0  0  0  0  0  0
    1.4360    1.2554   -1.0144 H   0  0  0  0  0  0  0  0  0  0  0  0
    0.4887   -0.1391   -2.3150 C   0  0  0  0  0  0  0  0  0  0  0  0
   -0.5050   -0.5450   -2.5086 H   0  0  0  0  0  0  0  0  0  0  0  0
    0.8218    0.4227   -3.1868 H   0  0  0  0  0  0  0  0  0  0  0  0
    1.1803   -0.9643   -2.1425 H   0  0  0  0  0  0  0  0  0  0  0  0
   -0.5067    1.7636   -1.3298 O   0  0  0  0  0  0  0  0  0  0  0  0
   -0.3513    2.1257   -2.2046 H   0  0  0  0  0  0  0  0  0  0  0  0
    0.2761    1.0154    1.4136 C   0  0  0  0  0  0  0  0  0  0  0  0
   -0.6532    1.1354    2.2119 O   0  0  0  0  0  0  0  0  0  0  0  0
    1.4183    1.7044    1.5447 N   0  0  0  0  0  0  0  0  0  0  0  0
    2.1495    1.5477    0.8707 H   0  0  0  0  0  0  0  0  0  0  0  0
    1.6667    2.6743    2.6102 C   0  0  0  0  0  0  0  0  0  0  0  0
    1.4781    2.2123    3.5814 H   0  0  0  0  0  0  0  0  0  0  0  0
    2.6986    3.0239    2.5738 H   0  0  0  0  0  0  0  0  0  0  0  0
    0.9928    3.5260    2.4963 H   0  0  0  0  0  0  0  0  0  0  0  0
  5  6  2  0  0  0  0
  5  7  1  0  0  0  0
  2  3  1  0  0  0  0
  2  4  1  0  0  0  0
  2  5  1  0  0  0  0
  1  2  1  0  0  0  0
 19 20  2  0  0  0  0
 19 21  1  0  0  0  0
 17 18  1  0  0  0  0
 13 14  1  0  0  0  0
 13 15  1  0  0  0  0
 13 16  1  0  0  0  0
 11 12  1  0  0  0  0
 11 13  1  0  0  0  0
 11 17  1  0  0  0  0
  9 10  1  0  0  0  0
  9 11  1  0  0  0  0
  9 19  1  0  0  0  0
  7  8  1  0  0  0  0
  7  9  1  0  0  0  0
 23 24  1  0  0  0  0
 23 25  1  0  0  0  0
 23 26  1  0  0  0  0
 21 22  1  0  0  0  0
 21 23  1  0  0  0  0
M  END
$$$$
default_name
  -OEChem-01062215323D

 26 25  0     1  0  0  0  0  0999 V2000
   -2.8882   -3.2497    1.2537 H   0  0  0  0  0  0  0  0  0  0  0  0
   -2.8032   -2.3157    0.7017 C   0  0  0  0  0  0  0  0  0  0  0  0
   -3.5012   -1.5857    1.1067 H   0  0  0  0  0  0  0  0  0  0  0  0
   -3.0182   -2.4907   -0.3513 H   0  0  0  0  0  0  0  0  0  0  0  0
   -1.3942   -1.7897    0.8407 C   0  0  0  0  0  0  0  0  0  0  0  0
   -0.5672   -2.4077    1.5007 O   0  0  0  0  0  0  0  0  0  0  0  0
   -1.1222   -0.6447    0.2217 N   0  0  0  0  0  0  0  0  0  0  0  0
   -1.8592   -0.1777   -0.2863 H   0  0  0  0  0  0  0  0  0  0  0  0
    0.1838    0.0363    0.2367 C   0  0  1  0  0  0  0  0  0  0  0  0
    0.9650   -0.7105    0.3738 H   0  0  0  0  0  0  0  0  0  0  0  0
    0.4618    0.7727   -1.0899 C   0  0  1  0  0  0  0  0  0  0  0  0
    1.4360    1.2554   -1.0144 H   0  0  0  0  0  0  0  0  0  0  0  0
    0.4887   -0.1391   -2.3150 C   0  0  0  0  0  0  0  0  0  0  0  0
   -0.5050   -0.5450   -2.5086 H   0  0  0  0  0  0  0  0  0  0  0  0
    0.8218    0.4227   -3.1868 H   0  0  0  0  0  0  0  0  0  0  0  0
    1.1803   -0.9643   -2.1425 H   0  0  0  0  0  0  0  0  0  0  0  0
   -0.5067    1.7636   -1.3298 O   0  0  0  0  0  0  0  0  0  0  0  0
   -0.3513    2.1257   -2.2046 H   0  0  0  0  0  0  0  0  0  0  0  0
    0.2761    1.0154    1.4136 C   0  0  0  0  0  0  0  0  0  0  0  0
   -0.5121    0.9481    2.3567 O   0  0  0  0  0  0  0  0  0  0  0  0
    1.2655    1.9190    1.3782 N   0  0  0  0  0  0  0  0  0  0  0  0
    1.8903    1.9108    0.5889 H   0  0  0  0  0  0  0  0  0  0  0  0
    1.4918    2.9201    2.4194 C   0  0  0  0  0  0  0  0  0  0  0  0
    1.5628    2.4309    3.3929 H   0  0  0  0  0  0  0  0  0  0  0  0
    2.4136    3.4690    2.2260 H   0  0  0  0  0  0  0  0  0  0  0  0
    0.6537    3.6198    2.4448 H   0  0  0  0  0  0  0  0  0  0  0  0
  5  6  2  0  0  0  0
  5  7  1  0  0  0  0
  2  3  1  0  0  0  0
  2  4  1  0  0  0  0
  2  5  1  0  0  0  0
  1  2  1  0  0  0  0
 19 20  2  0  0  0  0
 19 21  1  0  0  0  0
 17 18  1  0  0  0  0
 13 14  1  0  0  0  0
 13 15  1  0  0  0  0
 13 16  1  0  0  0  0
 11 12  1  0  0  0  0
 11 13  1  0  0  0  0
 11 17  1  0  0  0  0
  9 10  1  0  0  0  0
  9 11  1  0  0  0  0
  9 19  1  0  0  0  0
  7  8  1  0  0  0  0
  7  9  1  0  0  0  0
 23 24  1  0  0  0  0
 23 25  1  0  0  0  0
 23 26  1  0  0  0  0
 21 22  1  0  0  0  0
 21 23  1  0  0  0  0
M  END
$$$$
default_name
  -OEChem-01062215323D

 26 25  0     1  0  0  0  0  0999 V2000
   -2.8882   -3.2497    1.2537 H   0  0  0  0  0  0  0  0  0  0  0  0
   -2.8032   -2.3157    0.7017 C   0  0  0  0  0  0  0  0  0  0  0  0
   -3.5012   -1.5857    1.1067 H   0  0  0  0  0  0  0  0  0  0  0  0
   -3.0182   -2.4907   -0.3513 H   0  0  0  0  0  0  0  0  0  0  0  0
   -1.3942   -1.7897    0.8407 C   0  0  0  0  0  0  0  0  0  0  0  0
   -0.5672   -2.4077    1.5007 O   0  0  0  0  0  0  0  0  0  0  0  0
   -1.1222   -0.6447    0.2217 N   0  0  0  0  0  0  0  0  0  0  0  0
   -1.8592   -0.1777   -0.2863 H   0  0  0  0  0  0  0  0  0  0  0  0
    0.1838    0.0363    0.2367 C   0  0  1  0  0  0  0  0  0  0  0  0
    0.9650   -0.7105    0.3738 H   0  0  0  0  0  0  0  0  0  0  0  0
    0.4618    0.7727   -1.0899 C   0  0  1  0  0  0  0  0  0  0  0  0
    1.4360    1.2554   -1.0144 H   0  0  0  0  0  0  0  0  0  0  0  0
    0.4887   -0.1391   -2.3150 C   0  0  0  0  0  0  0  0  0  0  0  0
   -0.5050   -0.5450   -2.5086 H   0  0  0  0  0  0  0  0  0  0  0  0
    0.8218    0.4227   -3.1868 H   0  0  0  0  0  0  0  0  0  0  0  0
    1.1803   -0.9643   -2.1425 H   0  0  0  0  0  0  0  0  0  0  0  0
   -0.5067    1.7636   -1.3298 O   0  0  0  0  0  0  0  0  0  0  0  0
   -0.3513    2.1257   -2.2046 H   0  0  0  0  0  0  0  0  0  0  0  0
    0.2761    1.0154    1.4136 C   0  0  0  0  0  0  0  0  0  0  0  0
   -0.3148    0.7929    2.4703 O   0  0  0  0  0  0  0  0  0  0  0  0
    1.0477    2.0985    1.2459 N   0  0  0  0  0  0  0  0  0  0  0  0
    1.5213    2.2146    0.3652 H   0  0  0  0  0  0  0  0  0  0  0  0
    1.2425    3.1258    2.2679 C   0  0  0  0  0  0  0  0  0  0  0  0
    1.5699    2.6617    3.2003 H   0  0  0  0  0  0  0  0  0  0  0  0
    1.9924    3.8477    1.9440 H   0  0  0  0  0  0  0  0  0  0  0  0
    0.2990    3.6439    2.4527 H   0  0  0  0  0  0  0  0  0  0  0  0
  5  6  2  0  0  0  0
  5  7  1  0  0  0  0
  2  3  1  0  0  0  0
  2  4  1  0  0  0  0
  2  5  1  0  0  0  0
  1  2  1  0  0  0  0
 19 20  2  0  0  0  0
 19 21  1  0  0  0  0
 17 18  1  0  0  0  0
 13 14  1  0  0  0  0
 13 15  1  0  0  0  0
 13 16  1  0  0  0  0
 11 12  1  0  0  0  0
 11 13  1  0  0  0  0
 11 17  1  0  0  0  0
  9 10  1  0  0  0  0
  9 11  1  0  0  0  0
  9 19  1  0  0  0  0
  7  8  1  0  0  0  0
  7  9  1  0  0  0  0
 23 24  1  0  0  0  0
 23 25  1  0  0  0  0
 23 26  1  0  0  0  0
 21 22  1  0  0  0  0
 21 23  1  0  0  0  0
M  END
$$$$
default_name
  -OEChem-01062215323D

 26 25  0     1  0  0  0  0  0999 V2000
   -2.8882   -3.2497    1.2537 H   0  0  0  0  0  0  0  0  0  0  0  0
   -2.8032   -2.3157    0.7017 C   0  0  0  0  0  0  0  0  0  0  0  0
   -3.5012   -1.5857    1.1067 H   0  0  0  0  0  0  0  0  0  0  0  0
   -3.0182   -2.4907   -0.3513 H   0  0  0  0  0  0  0  0  0  0  0  0
   -1.3942   -1.7897    0.8407 C   0  0  0  0  0  0  0  0  0  0  0  0
   -0.5672   -2.4077    1.5007 O   0  0  0  0  0  0  0  0  0  0  0  0
   -1.1222   -0.6447    0.2217 N   0  0  0  0  0  0  0  0  0  0  0  0
   -1.8592   -0.1777   -0.2863 H   0  0  0  0  0  0  0  0  0  0  0  0
    0.1838    0.0363    0.2367 C   0  0  1  0  0  0  0  0  0  0  0  0
    0.9650   -0.7105    0.3738 H   0  0  0  0  0  0  0  0  0  0  0  0
    0.4618    0.7727   -1.0899 C   0  0  1  0  0  0  0  0  0  0  0  0
    1.4360    1.2554   -1.0144 H   0  0  0  0  0  0  0  0  0  0  0  0
    0.4887   -0.1391   -2.3150 C   0  0  0  0  0  0  0  0  0  0  0  0
   -0.5050   -0.5450   -2.5086 H   0  0  0  0  0  0  0  0  0  0  0  0
    0.8218    0.4227   -3.1868 H   0  0  0  0  0  0  0  0  0  0  0  0
    1.1803   -0.9643   -2.1425 H   0  0  0  0  0  0  0  0  0  0  0  0
   -0.5067    1.7636   -1.3298 O   0  0  0  0  0  0  0  0  0  0  0  0
   -0.3513    2.1257   -2.2046 H   0  0  0  0  0  0  0  0  0  0  0  0
    0.2761    1.0154    1.4136 C   0  0  0  0  0  0  0  0  0  0  0  0
   -0.0746    0.6804    2.5450 O   0  0  0  0  0  0  0  0  0  0  0  0
    0.7798    2.2307    1.1570 N   0  0  0  0  0  0  0  0  0  0  0  0
    1.0675    2.4381    0.2148 H   0  0  0  0  0  0  0  0  0  0  0  0
    0.9358    3.2773    2.1659 C   0  0  0  0  0  0  0  0  0  0  0  0
    1.4992    2.8892    3.0167 H   0  0  0  0  0  0  0  0  0  0  0  0
    1.4638    4.1342    1.7471 H   0  0  0  0  0  0  0  0  0  0  0  0
   -0.0471    3.5965    2.5192 H   0  0  0  0  0  0  0  0  0  0  0  0
  5  6  2  0  0  0  0
  5  7  1  0  0  0  0
  2  3  1  0  0  0  0
  2  4  1  0  0  0  0
  2  5  1  0  0  0  0
  1  2  1  0  0  0  0
 19 20  2  0  0  0  0
 19 21  1  0  0  0  0
 17 18  1  0  0  0  0
 13 14  1  0  0  0  0
 13 15  1  0  0  0  0
 13 16  1  0  0  0  0
 11 12  1  0  0  0  0
 11 13  1  0  0  0  0
 11 17  1  0  0  0  0
  9 10  1  0  0  0  0
  9 11  1  0  0  0  0
  9 19  1  0  0  0  0
  7  8  1  0  0  0  0
  7  9  1  0  0  0  0
 23 24  1  0  0  0  0
 23 25  1  0  0  0  0
 23 26  1  0  0  0  0
 21 22  1  0  0  0  0
 21 23  1  0  0  0  0
M  END
$$$$
default_name
  -OEChem-01062215323D

 26 25  0     1  0  0  0  0  0999 V2000
   -2.8882   -3.2497    1.2537 H   0  0  0  0  0  0  0  0  0  0  0  0
   -2.8032   -2.3157    0.7017 C   0  0  0  0  0  0  0  0  0  0  0  0
   -3.5012   -1.5857    1.1067 H   0  0  0  0  0  0  0  0  0  0  0  0
   -3.0182   -2.4907   -0.3513 H   0  0  0  0  0  0  0  0  0  0  0  0
   -1.3942   -1.7897    0.8407 C   0  0  0  0  0  0  0  0  0  0  0  0
   -0.5672   -2.4077    1.5007 O   0  0  0  0  0  0  0  0  0  0  0  0
   -1.1222   -0.6447    0.2217 N   0  0  0  0  0  0  0  0  0  0  0  0
   -1.8592   -0.1777   -0.2863 H   0  0  0  0  0  0  0  0  0  0  0  0
    0.1838    0.0363    0.2367 C   0  0  1  0  0  0  0  0  0  0  0  0
    0.9650   -0.7105    0.3738 H   0  0  0  0  0  0  0  0  0  0  0  0
    0.4618    0.7727   -1.0899 C   0  0  1  0  0  0  0  0  0  0  0  0
    1.4360    1.2554   -1.0144 H   0  0  0  0  0  0  0  0  0  0  0  0
    0.4887   -0.1391   -2.3150 C   0  0  0  0  0  0  0  0  0  0  0  0
   -0.5050   -0.5450   -2.5086 H   0  0  0  0  0  0  0  0  0  0  0  0
    0.8218    0.4227   -3.1868 H   0  0  0  0  0  0  0  0  0  0  0  0
    1.1803   -0.9643   -2.1425 H   0  0  0  0  0  0  0  0  0  0  0  0
   -0.5067    1.7636   -1.3298 O   0  0  0  0  0  0  0  0  0  0  0  0
   -0.3513    2.1257   -2.2046 H   0  0  0  0  0  0  0  0  0  0  0  0
    0.2761    1.0154    1.4136 C   0  0  0  0  0  0  0  0  0  0  0  0
    0.1921    0.6183    2.5757 O   0  0  0  0  0  0  0  0  0  0  0  0
    0.4802    2.3066    1.1174 N   0  0  0  0  0  0  0  0  0  0  0  0
    0.5600    2.5663    0.1480 H   0  0  0  0  0  0  0  0  0  0  0  0
    0.5926    3.3644    2.1204 C   0  0  0  0  0  0  0  0  0  0  0  0
    1.3554    3.0976    2.8545 H   0  0  0  0  0  0  0  0  0  0  0  0
    0.8638    4.3090    1.6487 H   0  0  0  0  0  0  0  0  0  0  0  0
   -0.3609    3.4810    2.6399 H   0  0  0  0  0  0  0  0  0  0  0  0
  5  6  2  0  0  0  0
  5  7  1  0  0  0  0
  2  3  1  0  0  0  0
  2  4  1  0  0  0  0
  2  5  1  0  0  0  0
  1  2  1  0  0  0  0
 19 20  2  0  0  0  0
 19 21  1  0  0  0  0
 17 18  1  0  0  0  0
 13 14  1  0  0  0  0
 13 15  1  0  0  0  0
 13 16  1  0  0  0  0
 11 12  1  0  0  0  0
 11 13  1  0  0  0  0
 11 17  1  0  0  0  0
  9 10  1  0  0  0  0
  9 11  1  0  0  0  0
  9 19  1  0  0  0  0
  7  8  1  0  0  0  0
  7  9  1  0  0  0  0
 23 24  1  0  0  0  0
 23 25  1  0  0  0  0
 23 26  1  0  0  0  0
 21 22  1  0  0  0  0
 21 23  1  0  0  0  0
M  END
$$$$
default_name
  -OEChem-01062215323D

 26 25  0     1  0  0  0  0  0999 V2000
   -2.8882   -3.2497    1.2537 H   0  0  0  0  0  0  0  0  0  0  0  0
   -2.8032   -2.3157    0.7017 C   0  0  0  0  0  0  0  0  0  0  0  0
   -3.5012   -1.5857    1.1067 H   0  0  0  0  0  0  0  0  0  0  0  0
   -3.0182   -2.4907   -0.3513 H   0  0  0  0  0  0  0  0  0  0  0  0
   -1.3942   -1.7897    0.8407 C   0  0  0  0  0  0  0  0  0  0  0  0
   -0.5672   -2.4077    1.5007 O   0  0  0  0  0  0  0  0  0  0  0  0
   -1.1222   -0.6447    0.2217 N   0  0  0  0  0  0  0  0  0  0  0  0
   -1.8592   -0.1777   -0.2863 H   0  0  0  0  0  0  0  0  0  0  0  0
    0.1838    0.0363    0.2367 C   0  0  1  0  0  0  0  0  0  0  0  0
    0.9650   -0.7105    0.3738 H   0  0  0  0  0  0  0  0  0  0  0  0
    0.4618    0.7727   -1.0899 C   0  0  1  0  0  0  0  0  0  0  0  0
    1.4360    1.2554   -1.0144 H   0  0  0  0  0  0  0  0  0  0  0  0
    0.4887   -0.1391   -2.3150 C   0  0  0  0  0  0  0  0  0  0  0  0
   -0.5050   -0.5450   -2.5086 H   0  0  0  0  0  0  0  0  0  0  0  0
    0.8218    0.4227   -3.1868 H   0  0  0  0  0  0  0  0  0  0  0  0
    1.1803   -0.9643   -2.1425 H   0  0  0  0  0  0  0  0  0  0  0  0
   -0.5067    1.7636   -1.3298 O   0  0  0  0  0  0  0  0  0  0  0  0
   -0.3513    2.1257   -2.2046 H   0  0  0  0  0  0  0  0  0  0  0  0
    0.2761    1.0154    1.4136 C   0  0  0  0  0  0  0  0  0  0  0  0
    0.4672    0.6109    2.5604 O   0  0  0  0  0  0  0  0  0  0  0  0
    0.1691    2.3209    1.1298 N   0  0  0  0  0  0  0  0  0  0  0  0
    0.0332    2.5903    0.1693 H   0  0  0  0  0  0  0  0  0  0  0  0
    0.2362    3.3810    2.1345 C   0  0  0  0  0  0  0  0  0  0  0  0
    1.1483    3.2730    2.7249 H   0  0  0  0  0  0  0  0  0  0  0  0
    0.2332    4.3603    1.6555 H   0  0  0  0  0  0  0  0  0  0  0  0
   -0.6212    3.3053    2.8065 H   0  0  0  0  0  0  0  0  0  0  0  0
  5  6  2  0  0  0  0
  5  7  1  0  0  0  0
  2  3  1  0  0  0  0
  2  4  1  0  0  0  0
  2  5  1  0  0  0  0
  1  2  1  0  0  0  0
 19 20  2  0  0  0  0
 19 21  1  0  0  0  0
 17 18  1  0  0  0  0
 13 14  1  0  0  0  0
 13 15  1  0  0  0  0
 13 16  1  0  0  0  0
 11 12  1  0  0  0  0
 11 13  1  0  0  0  0
 11 17  1  0  0  0  0
  9 10  1  0  0  0  0
  9 11  1  0  0  0  0
  9 19  1  0  0  0  0
  7  8  1  0  0  0  0
  7  9  1  0  0  0  0
 23 24  1  0  0  0  0
 23 25  1  0  0  0  0
 23 26  1  0  0  0  0
 21 22  1  0  0  0  0
 21 23  1  0  0  0  0
M  END
$$$$
default_name
  -OEChem-01062215323D

 26 25  0     1  0  0  0  0  0999 V2000
   -2.8882   -3.2497    1.2537 H   0  0  0  0  0  0  0  0  0  0  0  0
   -2.8032   -2.3157    0.7017 C   0  0  0  0  0  0  0  0  0  0  0  0
   -3.5012   -1.5857    1.1067 H   0  0  0  0  0  0  0  0  0  0  0  0
   -3.0182   -2.4907   -0.3513 H   0  0  0  0  0  0  0  0  0  0  0  0
   -1.3942   -1.7897    0.8407 C   0  0  0  0  0  0  0  0  0  0  0  0
   -0.5672   -2.4077    1.5007 O   0  0  0  0  0  0  0  0  0  0  0  0
   -1.1222   -0.6447    0.2217 N   0  0  0  0  0  0  0  0  0  0  0  0
   -1.8592   -0.1777   -0.2863 H   0  0  0  0  0  0  0  0  0  0  0  0
    0.1838    0.0363    0.2367 C   0  0  1  0  0  0  0  0  0  0  0  0
    0.9650   -0.7105    0.3738 H   0  0  0  0  0  0  0  0  0  0  0  0
    0.4618    0.7727   -1.0899 C   0  0  1  0  0  0  0  0  0  0  0  0
    1.4360    1.2554   -1.0144 H   0  0  0  0  0  0  0  0  0  0  0  0
    0.4887   -0.1391   -2.3150 C   0  0  0  0  0  0  0  0  0  0  0  0
   -0.5050   -0.5450   -2.5086 H   0  0  0  0  0  0  0  0  0  0  0  0
    0.8218    0.4227   -3.1868 H   0  0  0  0  0  0  0  0  0  0  0  0
    1.1803   -0.9643   -2.1425 H   0  0  0  0  0  0  0  0  0  0  0  0
   -0.5067    1.7636   -1.3298 O   0  0  0  0  0  0  0  0  0  0  0  0
   -0.3513    2.1257   -2.2046 H   0  0  0  0  0  0  0  0  0  0  0  0
    0.2761    1.0154    1.4136 C   0  0  0  0  0  0  0  0  0  0  0  0
    0.7318    0.6585    2.5000 O   0  0  0  0  0  0  0  0  0  0  0  0
   -0.1322    2.2729    1.1934 N   0  0  0  0  0  0  0  0  0  0  0  0
   -0.4768    2.5085    0.2773 H   0  0  0  0  0  0  0  0  0  0  0  0
   -0.1089    3.3261    2.2072 C   0  0  0  0  0  0  0  0  0  0  0  0
    0.8919    3.4032    2.6367 H   0  0  0  0  0  0  0  0  0  0  0  0
   -0.3850    4.2844    1.7671 H   0  0  0  0  0  0  0  0  0  0  0  0
   -0.8102    3.0812    3.0077 H   0  0  0  0  0  0  0  0  0  0  0  0
  5  6  2  0  0  0  0
  5  7  1  0  0  0  0
  2  3  1  0  0  0  0
  2  4  1  0  0  0  0
  2  5  1  0  0  0  0
  1  2  1  0  0  0  0
 19 20  2  0  0  0  0
 19 21  1  0  0  0  0
 17 18  1  0  0  0  0
 13 14  1  0  0  0  0
 13 15  1  0  0  0  0
 13 16  1  0  0  0  0
 11 12  1  0  0  0  0
 11 13  1  0  0  0  0
 11 17  1  0  0  0  0
  9 10  1  0  0  0  0
  9 11  1  0  0  0  0
  9 19  1  0  0  0  0
  7  8  1  0  0  0  0
  7  9  1  0  0  0  0
 23 24  1  0  0  0  0
 23 25  1  0  0  0  0
 23 26  1  0  0  0  0
 21 22  1  0  0  0  0
 21 23  1  0  0  0  0
M  END
$$$$
default_name
  -OEChem-01062215323D

 26 25  0     1  0  0  0  0  0999 V2000
   -2.8882   -3.2497    1.2537 H   0  0  0  0  0  0  0  0  0  0  0  0
   -2.8032   -2.3157    0.7017 C   0  0  0  0  0  0  0  0  0  0  0  0
   -3.5012   -1.5857    1.1067 H   0  0  0  0  0  0  0  0  0  0  0  0
   -3.0182   -2.4907   -0.3513 H   0  0  0  0  0  0  0  0  0  0  0  0
   -1.3942   -1.7897    0.8407 C   0  0  0  0  0  0  0  0  0  0  0  0
   -0.5672   -2.4077    1.5007 O   0  0  0  0  0  0  0  0  0  0  0  0
   -1.1222   -0.6447    0.2217 N   0  0  0  0  0  0  0  0  0  0  0  0
   -1.8592   -0.1777   -0.2863 H   0  0  0  0  0  0  0  0  0  0  0  0
    0.1838    0.0363    0.2367 C   0  0  1  0  0  0  0  0  0  0  0  0
    0.9650   -0.7105    0.3738 H   0  0  0  0  0  0  0  0  0  0  0  0
    0.4618    0.7727   -1.0899 C   0  0  1  0  0  0  0  0  0  0  0  0
    1.4360    1.2554   -1.0144 H   0  0  0  0  0  0  0  0  0  0  0  0
    0.4887   -0.1391   -2.3150 C   0  0  0  0  0  0  0  0  0  0  0  0
   -0.5050   -0.5450   -2.5086 H   0  0  0  0  0  0  0  0  0  0  0  0
    0.8218    0.4227   -3.1868 H   0  0  0  0  0  0  0  0  0  0  0  0
    1.1803   -0.9643   -2.1425 H   0  0  0  0  0  0  0  0  0  0  0  0
   -0.5067    1.7636   -1.3298 O   0  0  0  0  0  0  0  0  0  0  0  0
   -0.3513    2.1257   -2.2046 H   0  0  0  0  0  0  0  0  0  0  0  0
    0.2761    1.0154    1.4136 C   0  0  0  0  0  0  0  0  0  0  0  0
    0.9679    0.7580    2.3987 O   0  0  0  0  0  0  0  0  0  0  0  0
   -0.4032    2.1656    1.3039 N   0  0  0  0  0  0  0  0  0  0  0  0
   -0.9354    2.3266    0.4646 H   0  0  0  0  0  0  0  0  0  0  0  0
   -0.4193    3.2033    2.3337 C   0  0  0  0  0  0  0  0  0  0  0  0
    0.6039    3.4795    2.5958 H   0  0  0  0  0  0  0  0  0  0  0  0
   -0.9486    4.0867    1.9758 H   0  0  0  0  0  0  0  0  0  0  0  0
   -0.9150    2.8241    3.2299 H   0  0  0  0  0  0  0  0  0  0  0  0
  5  6  2  0  0  0  0
  5  7  1  0  0  0  0
  2  3  1  0  0  0  0
  2  4  1  0  0  0  0
  2  5  1  0  0  0  0
  1  2  1  0  0  0  0
 19 20  2  0  0  0  0
 19 21  1  0  0  0  0
 17 18  1  0  0  0  0
 13 14  1  0  0  0  0
 13 15  1  0  0  0  0
 13 16  1  0  0  0  0
 11 12  1  0  0  0  0
 11 13  1  0  0  0  0
 11 17  1  0  0  0  0
  9 10  1  0  0  0  0
  9 11  1  0  0  0  0
  9 19  1  0  0  0  0
  7  8  1  0  0  0  0
  7  9  1  0  0  0  0
 23 24  1  0  0  0  0
 23 25  1  0  0  0  0
 23 26  1  0  0  0  0
 21 22  1  0  0  0  0
 21 23  1  0  0  0  0
M  END
$$$$
default_name
  -OEChem-01062215323D

 26 25  0     1  0  0  0  0  0999 V2000
   -2.8882   -3.2497    1.2537 H   0  0  0  0  0  0  0  0  0  0  0  0
   -2.8032   -2.3157    0.7017 C   0  0  0  0  0  0  0  0  0  0  0  0
   -3.5012   -1.5857    1.1067 H   0  0  0  0  0  0  0  0  0  0  0  0
   -3.0182   -2.4907   -0.3513 H   0  0  0  0  0  0  0  0  0  0  0  0
   -1.3942   -1.7897    0.8407 C   0  0  0  0  0  0  0  0  0  0  0  0
   -0.5672   -2.4077    1.5007 O   0  0  0  0  0  0  0  0  0  0  0  0
   -1.1222   -0.6447    0.2217 N   0  0  0  0  0  0  0  0  0  0  0  0
   -1.8592   -0.1777   -0.2863 H   0  0  0  0  0  0  0  0  0  0  0  0
    0.1838    0.0363    0.2367 C   0  0  1  0  0  0  0  0  0  0  0  0
    0.9650   -0.7105    0.3738 H   0  0  0  0  0  0  0  0  0  0  0  0
    0.4618    0.7727   -1.0899 C   0  0  1  0  0  0  0  0  0  0  0  0
    1.4360    1.2554   -1.0144 H   0  0  0  0  0  0  0  0  0  0  0  0
    0.4887   -0.1391   -2.3150 C   0  0  0  0  0  0  0  0  0  0  0  0
   -0.5050   -0.5450   -2.5086 H   0  0  0  0  0  0  0  0  0  0  0  0
    0.8218    0.4227   -3.1868 H   0  0  0  0  0  0  0  0  0  0  0  0
    1.1803   -0.9643   -2.1425 H   0  0  0  0  0  0  0  0  0  0  0  0
   -0.5067    1.7636   -1.3298 O   0  0  0  0  0  0  0  0  0  0  0  0
   -0.3513    2.1257   -2.2046 H   0  0  0  0  0  0  0  0  0  0  0  0
    0.2761    1.0154    1.4136 C   0  0  0  0  0  0  0  0  0  0  0  0
    1.1595    0.9026    2.2634 O   0  0  0  0  0  0  0  0  0  0  0  0
   -0.6254    2.0065    1.4537 N   0  0  0  0  0  0  0  0  0  0  0  0
   -1.3112    2.0569    0.7185 H   0  0  0  0  0  0  0  0  0  0  0  0
   -0.6739    3.0212    2.5052 C   0  0  0  0  0  0  0  0  0  0  0  0
    0.3038    3.4966    2.6051 H   0  0  0  0  0  0  0  0  0  0  0  0
   -1.4192    3.7805    2.2675 H   0  0  0  0  0  0  0  0  0  0  0  0
   -0.9285    2.5515    3.4577 H   0  0  0  0  0  0  0  0  0  0  0  0
  5  6  2  0  0  0  0
  5  7  1  0  0  0  0
  2  3  1  0  0  0  0
  2  4  1  0  0  0  0
  2  5  1  0  0  0  0
  1  2  1  0  0  0  0
 19 20  2  0  0  0  0
 19 21  1  0  0  0  0
 17 18  1  0  0  0  0
 13 14  1  0  0  0  0
 13 15  1  0  0  0  0
 13 16  1  0  0  0  0
 11 12  1  0  0  0  0
 11 13  1  0  0  0  0
 11 17  1  0  0  0  0
  9 10  1  0  0  0  0
  9 11  1  0  0  0  0
  9 19  1  0  0  0  0
  7  8  1  0  0  0  0
  7  9  1  0  0  0  0
 23 24  1  0  0  0  0
 23 25  1  0  0  0  0
 23 26  1  0  0  0  0
 21 22  1  0  0  0  0
 21 23  1  0  0  0  0
M  END
$$$$
default_name
  -OEChem-01062215323D

 26 25  0     1  0  0  0  0  0999 V2000
   -2.8882   -3.2497    1.2537 H   0  0  0  0  0  0  0  0  0  0  0  0
   -2.8032   -2.3157    0.7017 C   0  0  0  0  0  0  0  0  0  0  0  0
   -3.5012   -1.5857    1.1067 H   0  0  0  0  0  0  0  0  0  0  0  0
   -3.0182   -2.4907   -0.3513 H   0  0  0  0  0  0  0  0  0  0  0  0
   -1.3942   -1.7897    0.8407 C   0  0  0  0  0  0  0  0  0  0  0  0
   -0.5672   -2.4077    1.5007 O   0  0  0  0  0  0  0  0  0  0  0  0
   -1.1222   -0.6447    0.2217 N   0  0  0  0  0  0  0  0  0  0  0  0
   -1.8592   -0.1777   -0.2863 H   0  0  0  0  0  0  0  0  0  0  0  0
    0.1838    0.0363    0.2367 C   0  0  1  0  0  0  0  0  0  0  0  0
    0.9650   -0.7105    0.3738 H   0  0  0  0  0  0  0  0  0  0  0  0
    0.4618    0.7727   -1.0899 C   0  0  1  0  0  0  0  0  0  0  0  0
    1.4360    1.2554   -1.0144 H   0  0  0  0  0  0  0  0  0  0  0  0
    0.4887   -0.1391   -2.3150 C   0  0  0  0  0  0  0  0  0  0  0  0
   -0.5050   -0.5450   -2.5086 H   0  0  0  0  0  0  0  0  0  0  0  0
    0.8218    0.4227   -3.1868 H   0  0  0  0  0  0  0  0  0  0  0  0
    1.1803   -0.9643   -2.1425 H   0  0  0  0  0  0  0  0  0  0  0  0
   -0.5067    1.7636   -1.3298 O   0  0  0  0  0  0  0  0  0  0  0  0
   -0.3513    2.1257   -2.2046 H   0  0  0  0  0  0  0  0  0  0  0  0
    0.2761    1.0154    1.4136 C   0  0  0  0  0  0  0  0  0  0  0  0
    1.2935    1.0824    2.1033 O   0  0  0  0  0  0  0  0  0  0  0  0
   -0.7836    1.8063    1.6327 N   0  0  0  0  0  0  0  0  0  0  0  0
   -1.5788    1.7178    1.0216 H   0  0  0  0  0  0  0  0  0  0  0  0
   -0.8553    2.7919    2.7102 C   0  0  0  0  0  0  0  0  0  0  0  0
    0.0121    3.4534    2.6640 H   0  0  0  0  0  0  0  0  0  0  0  0
   -1.7647    3.3867    2.6222 H   0  0  0  0  0  0  0  0  0  0  0  0
   -0.8497    2.2819    3.6758 H   0  0  0  0  0  0  0  0  0  0  0  0
  5  6  2  0  0  0  0
  5  7  1  0  0  0  0
  2  3  1  0  0  0  0
  2  4  1  0  0  0  0
  2  5  1  0  0  0  0
  1  2  1  0  0  0  0
 19 20  2  0  0  0  0
 19 21  1  0  0  0  0
 17 18  1  0  0  0  0
 13 14  1  0  0  0  0
 13 15  1  0  0  0  0
 13 16  1  0  0  0  0
 11 12  1  0  0  0  0
 11 13  1  0  0  0  0
 11 17  1  0  0  0  0
  9 10  1  0  0  0  0
  9 11  1  0  0  0  0
  9 19  1  0  0  0  0
  7  8  1  0  0  0  0
  7  9  1  0  0  0  0
 23 24  1  0  0  0  0
 23 25  1  0  0  0  0
 23 26  1  0  0  0  0
 21 22  1  0  0  0  0
 21 23  1  0  0  0  0
M  END
$$$$
default_name
  -OEChem-01062215323D

 26 25  0     1  0  0  0  0  0999 V2000
   -2.8882   -3.2497    1.2537 H   0  0  0  0  0  0  0  0  0  0  0  0
   -2.8032   -2.3157    0.7017 C   0  0  0  0  0  0  0  0  0  0  0  0
   -3.5012   -1.5857    1.1067 H   0  0  0  0  0  0  0  0  0  0  0  0
   -3.0182   -2.4907   -0.3513 H   0  0  0  0  0  0  0  0  0  0  0  0
   -1.3942   -1.7897    0.8407 C   0  0  0  0  0  0  0  0  0  0  0  0
   -0.5672   -2.4077    1.5007 O   0  0  0  0  0  0  0  0  0  0  0  0
   -1.1222   -0.6447    0.2217 N   0  0  0  0  0  0  0  0  0  0  0  0
   -1.8592   -0.1777   -0.2863 H   0  0  0  0  0  0  0  0  0  0  0  0
    0.1838    0.0363    0.2367 C   0  0  1  0  0  0  0  0  0  0  0  0
    0.9650   -0.7105    0.3738 H   0  0  0  0  0  0  0  0  0  0  0  0
    0.4618    0.7727   -1.0899 C   0  0  1  0  0  0  0  0  0  0  0  0
    1.4360    1.2554   -1.0144 H   0  0  0  0  0  0  0  0  0  0  0  0
    0.4887   -0.1391   -2.3150 C   0  0  0  0  0  0  0  0  0  0  0  0
   -0.5050   -0.5450   -2.5086 H   0  0  0  0  0  0  0  0  0  0  0  0
    0.8218    0.4227   -3.1868 H   0  0  0  0  0  0  0  0  0  0  0  0
    1.1803   -0.9643   -2.1425 H   0  0  0  0  0  0  0  0  0  0  0  0
   -0.5067    1.7636   -1.3298 O   0  0  0  0  0  0  0  0  0  0  0  0
   -0.3513    2.1257   -2.2046 H   0  0  0  0  0  0  0  0  0  0  0  0
    0.2761    1.0154    1.4136 C   0  0  0  0  0  0  0  0  0  0  0  0
    1.3608    1.2852    1.9293 O   0  0  0  0  0  0  0  0  0  0  0  0
   -0.8671    1.5787    1.8286 N   0  0  0  0  0  0  0  0  0  0  0  0
   -1.7198    1.3323    1.3533 H   0  0  0  0  0  0  0  0  0  0  0  0
   -0.9512    2.5313    2.9345 C   0  0  0  0  0  0  0  0  0  0  0  0
   -0.2514    3.3527    2.7683 H   0  0  0  0  0  0  0  0  0  0  0  0
   -1.9617    2.9321    3.0157 H   0  0  0  0  0  0  0  0  0  0  0  0
   -0.6841    2.0338    3.8692 H   0  0  0  0  0  0  0  0  0  0  0  0
  5  6  2  0  0  0  0
  5  7  1  0  0  0  0
  2  3  1  0  0  0  0
  2  4  1  0  0  0  0
  2  5  1  0  0  0  0
  1  2  1  0  0  0  0
 19 20  2  0  0  0  0
 19 21  1  0  0  0  0
 17 18  1  0  0  0  0
 13 14  1  0  0  0  0
 13 15  1  0  0  0  0
 13 16  1  0  0  0  0
 11 12  1  0  0  0  0
 11 13  1  0  0  0  0
 11 17  1  0  0  0  0
  9 10  1  0  0  0  0
  9 11  1  0  0  0  0
  9 19  1  0  0  0  0
  7  8  1  0  0  0  0
  7  9  1  0  0  0  0
 23 24  1  0  0  0  0
 23 25  1  0  0  0  0
 23 26  1  0  0  0  0
 21 22  1  0  0  0  0
 21 23  1  0  0  0  0
M  END
$$$$
default_name
  -OEChem-01062215323D

 26 25  0     1  0  0  0  0  0999 V2000
   -2.8882   -3.2497    1.2537 H   0  0  0  0  0  0  0  0  0  0  0  0
   -2.8032   -2.3157    0.7017 C   0  0  0  0  0  0  0  0  0  0  0  0
   -3.5012   -1.5857    1.1067 H   0  0  0  0  0  0  0  0  0  0  0  0
   -3.0182   -2.4907   -0.3513 H   0  0  0  0  0  0  0  0  0  0  0  0
   -1.3942   -1.7897    0.8407 C   0  0  0  0  0  0  0  0  0  0  0  0
   -0.5672   -2.4077    1.5007 O   0  0  0  0  0  0  0  0  0  0  0  0
   -1.1222   -0.6447    0.2217 N   0  0  0  0  0  0  0  0  0  0  0  0
   -1.8592   -0.1777   -0.2863 H   0  0  0  0  0  0  0  0  0  0  0  0
    0.1838    0.0363    0.2367 C   0  0  1  0  0  0  0  0  0  0  0  0
    0.9650   -0.7105    0.3738 H   0  0  0  0  0  0  0  0  0  0  0  0
    0.4618    0.7727   -1.0899 C   0  0  1  0  0  0  0  0  0  0  0  0
    1.4360    1.2554   -1.0144 H   0  0  0  0  0  0  0  0  0  0  0  0
    0.4887   -0.1391   -2.3150 C   0  0  0  0  0  0  0  0  0  0  0  0
   -0.5050   -0.5450   -2.5086 H   0  0  0  0  0  0  0  0  0  0  0  0
    0.8218    0.4227   -3.1868 H   0  0  0  0  0  0  0  0  0  0  0  0
    1.1803   -0.9643   -2.1425 H   0  0  0  0  0  0  0  0  0  0  0  0
   -0.5067    1.7636   -1.3298 O   0  0  0  0  0  0  0  0  0  0  0  0
   -0.3513    2.1257   -2.2046 H   0  0  0  0  0  0  0  0  0  0  0  0
    0.2761    1.0154    1.4136 C   0  0  0  0  0  0  0  0  0  0  0  0
    1.3567    1.4972    1.7532 O   0  0  0  0  0  0  0  0  0  0  0  0
   -0.8703    1.3392    2.0280 N   0  0  0  0  0  0  0  0  0  0  0  0
   -1.7246    0.9268    1.6910 H   0  0  0  0  0  0  0  0  0  0  0  0
   -0.9549    2.2570    3.1629 C   0  0  0  0  0  0  0  0  0  0  0  0
   -0.4687    3.2016    2.9111 H   0  0  0  0  0  0  0  0  0  0  0  0
   -1.9967    2.4478    3.4214 H   0  0  0  0  0  0  0  0  0  0  0  0
   -0.4428    1.8240    4.0248 H   0  0  0  0  0  0  0  0  0  0  0  0
  5  6  2  0  0  0  0
  5  7  1  0  0  0  0
  2  3  1  0  0  0  0
  2  4  1  0  0  0  0
  2  5  1  0  0  0  0
  1  2  1  0  0  0  0
 19 20  2  0  0  0  0
 19 21  1  0  0  0  0
 17 18  1  0  0  0  0
 13 14  1  0  0  0  0
 13 15  1  0  0  0  0
 13 16  1  0  0  0  0
 11 12  1  0  0  0  0
 11 13  1  0  0  0  0
 11 17  1  0  0  0  0
  9 10  1  0  0  0  0
  9 11  1  0  0  0  0
  9 19  1  0  0  0  0
  7  8  1  0  0  0  0
  7  9  1  0  0  0  0
 23 24  1  0  0  0  0
 23 25  1  0  0  0  0
 23 26  1  0  0  0  0
 21 22  1  0  0  0  0
 21 23  1  0  0  0  0
M  END
$$$$
default_name
  -OEChem-01062215323D

 26 25  0     1  0  0  0  0  0999 V2000
   -2.8882   -3.2497    1.2537 H   0  0  0  0  0  0  0  0  0  0  0  0
   -2.8032   -2.3157    0.7017 C   0  0  0  0  0  0  0  0  0  0  0  0
   -3.5012   -1.5857    1.1067 H   0  0  0  0  0  0  0  0  0  0  0  0
   -3.0182   -2.4907   -0.3513 H   0  0  0  0  0  0  0  0  0  0  0  0
   -1.3942   -1.7897    0.8407 C   0  0  0  0  0  0  0  0  0  0  0  0
   -0.5672   -2.4077    1.5007 O   0  0  0  0  0  0  0  0  0  0  0  0
   -1.1222   -0.6447    0.2217 N   0  0  0  0  0  0  0  0  0  0  0  0
   -1.8592   -0.1777   -0.2863 H   0  0  0  0  0  0  0  0  0  0  0  0
    0.1838    0.0363    0.2367 C   0  0  1  0  0  0  0  0  0  0  0  0
    0.9650   -0.7105    0.3738 H   0  0  0  0  0  0  0  0  0  0  0  0
    0.4618    0.7727   -1.0899 C   0  0  1  0  0  0  0  0  0  0  0  0
    1.4360    1.2554   -1.0144 H   0  0  0  0  0  0  0  0  0  0  0  0
    0.4887   -0.1391   -2.3150 C   0  0  0  0  0  0  0  0  0  0  0  0
   -0.5050   -0.5450   -2.5086 H   0  0  0  0  0  0  0  0  0  0  0  0
    0.8218    0.4227   -3.1868 H   0  0  0  0  0  0  0  0  0  0  0  0
    1.1803   -0.9643   -2.1425 H   0  0  0  0  0  0  0  0  0  0  0  0
   -0.5067    1.7636   -1.3298 O   0  0  0  0  0  0  0  0  0  0  0  0
   -0.3513    2.1257   -2.2046 H   0  0  0  0  0  0  0  0  0  0  0  0
    0.2761    1.0154    1.4136 C   0  0  0  0  0  0  0  0  0  0  0  0
    1.2816    1.7039    1.5872 O   0  0  0  0  0  0  0  0  0  0  0  0
   -0.7927    1.1042    2.2175 N   0  0  0  0  0  0  0  0  0  0  0  0
   -1.5929    0.5290    2.0117 H   0  0  0  0  0  0  0  0  0  0  0  0
   -0.8663    1.9878    3.3800 C   0  0  0  0  0  0  0  0  0  0  0  0
   -0.6250    3.0102    3.0826 H   0  0  0  0  0  0  0  0  0  0  0  0
   -1.8673    1.9668    3.8114 H   0  0  0  0  0  0  0  0  0  0  0  0
   -0.1424    1.6668    4.1320 H   0  0  0  0  0  0  0  0  0  0  0  0
  5  6  2  0  0  0  0
  5  7  1  0  0  0  0
  2  3  1  0  0  0  0
  2  4  1  0  0  0  0
  2  5  1  0  0  0  0
  1  2  1  0  0  0  0
 19 20  2  0  0  0  0
 19 21  1  0  0  0  0
 17 18  1  0  0  0  0
 13 14  1  0  0  0  0
 13 15  1  0  0  0  0
 13 16  1  0  0  0  0
 11 12  1  0  0  0  0
 11 13  1  0  0  0  0
 11 17  1  0  0  0  0
  9 10  1  0  0  0  0
  9 11  1  0  0  0  0
  9 19  1  0  0  0  0
  7  8  1  0  0  0  0
  7  9  1  0  0  0  0
 23 24  1  0  0  0  0
 23 25  1  0  0  0  0
 23 26  1  0  0  0  0
 21 22  1  0  0  0  0
 21 23  1  0  0  0  0
M  END
$$$$
default_name
  -OEChem-01062215323D

 26 25  0     1  0  0  0  0  0999 V2000
   -2.8882   -3.2497    1.2537 H   0  0  0  0  0  0  0  0  0  0  0  0
   -2.8032   -2.3157    0.7017 C   0  0  0  0  0  0  0  0  0  0  0  0
   -3.5012   -1.5857    1.1067 H   0  0  0  0  0  0  0  0  0  0  0  0
   -3.0182   -2.4907   -0.3513 H   0  0  0  0  0  0  0  0  0  0  0  0
   -1.3942   -1.7897    0.8407 C   0  0  0  0  0  0  0  0  0  0  0  0
   -0.5672   -2.4077    1.5007 O   0  0  0  0  0  0  0  0  0  0  0  0
   -1.1222   -0.6447    0.2217 N   0  0  0  0  0  0  0  0  0  0  0  0
   -1.8592   -0.1777   -0.2863 H   0  0  0  0  0  0  0  0  0  0  0  0
    0.1838    0.0363    0.2367 C   0  0  1  0  0  0  0  0  0  0  0  0
    0.9650   -0.7105    0.3738 H   0  0  0  0  0  0  0  0  0  0  0  0
    0.4618    0.7727   -1.0899 C   0  0  1  0  0  0  0  0  0  0  0  0
    1.4360    1.2554   -1.0144 H   0  0  0  0  0  0  0  0  0  0  0  0
    0.4887   -0.1391   -2.3150 C   0  0  0  0  0  0  0  0  0  0  0  0
   -0.5050   -0.5450   -2.5086 H   0  0  0  0  0  0  0  0  0  0  0  0
    0.8218    0.4227   -3.1868 H   0  0  0  0  0  0  0  0  0  0  0  0
    1.1803   -0.9643   -2.1425 H   0  0  0  0  0  0  0  0  0  0  0  0
   -0.5067    1.7636   -1.3298 O   0  0  0  0  0  0  0  0  0  0  0  0
   -0.3513    2.1257   -2.2046 H   0  0  0  0  0  0  0  0  0  0  0  0
    0.2761    1.0154    1.4136 C   0  0  0  0  0  0  0  0  0  0  0  0
    1.1406    1.8912    1.4424 O   0  0  0  0  0  0  0  0  0  0  0  0
   -0.6399    0.8896    2.3840 N   0  0  0  0  0  0  0  0  0  0  0  0
   -1.3337    0.1658    2.2935 H   0  0  0  0  0  0  0  0  0  0  0  0
   -0.6914    1.7420    3.5708 C   0  0  0  0  0  0  0  0  0  0  0  0
   -0.7096    2.7917    3.2710 H   0  0  0  0  0  0  0  0  0  0  0  0
   -1.5823    1.5218    4.1593 H   0  0  0  0  0  0  0  0  0  0  0  0
    0.1967    1.5731    4.1834 H   0  0  0  0  0  0  0  0  0  0  0  0
  5  6  2  0  0  0  0
  5  7  1  0  0  0  0
  2  3  1  0  0  0  0
  2  4  1  0  0  0  0
  2  5  1  0  0  0  0
  1  2  1  0  0  0  0
 19 20  2  0  0  0  0
 19 21  1  0  0  0  0
 17 18  1  0  0  0  0
 13 14  1  0  0  0  0
 13 15  1  0  0  0  0
 13 16  1  0  0  0  0
 11 12  1  0  0  0  0
 11 13  1  0  0  0  0
 11 17  1  0  0  0  0
  9 10  1  0  0  0  0
  9 11  1  0  0  0  0
  9 19  1  0  0  0  0
  7  8  1  0  0  0  0
  7  9  1  0  0  0  0
 23 24  1  0  0  0  0
 23 25  1  0  0  0  0
 23 26  1  0  0  0  0
 21 22  1  0  0  0  0
 21 23  1  0  0  0  0
M  END
$$$$
default_name
  -OEChem-01062215323D

 26 25  0     1  0  0  0  0  0999 V2000
   -2.8882   -3.2497    1.2537 H   0  0  0  0  0  0  0  0  0  0  0  0
   -2.8032   -2.3157    0.7017 C   0  0  0  0  0  0  0  0  0  0  0  0
   -3.5012   -1.5857    1.1067 H   0  0  0  0  0  0  0  0  0  0  0  0
   -3.0182   -2.4907   -0.3513 H   0  0  0  0  0  0  0  0  0  0  0  0
   -1.3942   -1.7897    0.8407 C   0  0  0  0  0  0  0  0  0  0  0  0
   -0.5672   -2.4077    1.5007 O   0  0  0  0  0  0  0  0  0  0  0  0
   -1.1222   -0.6447    0.2217 N   0  0  0  0  0  0  0  0  0  0  0  0
   -1.8592   -0.1777   -0.2863 H   0  0  0  0  0  0  0  0  0  0  0  0
    0.1838    0.0363    0.2367 C   0  0  1  0  0  0  0  0  0  0  0  0
    0.9650   -0.7105    0.3738 H   0  0  0  0  0  0  0  0  0  0  0  0
    0.4618    0.7727   -1.0899 C   0  0  1  0  0  0  0  0  0  0  0  0
    1.4360    1.2554   -1.0144 H   0  0  0  0  0  0  0  0  0  0  0  0
    0.4887   -0.1391   -2.3150 C   0  0  0  0  0  0  0  0  0  0  0  0
   -0.5050   -0.5450   -2.5086 H   0  0  0  0  0  0  0  0  0  0  0  0
    0.8218    0.4227   -3.1868 H   0  0  0  0  0  0  0  0  0  0  0  0
    1.1803   -0.9643   -2.1425 H   0  0  0  0  0  0  0  0  0  0  0  0
   -0.5067    1.7636   -1.3298 O   0  0  0  0  0  0  0  0  0  0  0  0
   -0.3513    2.1257   -2.2046 H   0  0  0  0  0  0  0  0  0  0  0  0
    0.2761    1.0154    1.4136 C   0  0  0  0  0  0  0  0  0  0  0  0
    0.9433    2.0464    1.3288 O   0  0  0  0  0  0  0  0  0  0  0  0
   -0.4221    0.7101    2.5162 N   0  0  0  0  0  0  0  0  0  0  0  0
   -0.9647   -0.1379    2.5172 H   0  0  0  0  0  0  0  0  0  0  0  0
   -0.4421    1.5363    3.7223 C   0  0  0  0  0  0  0  0  0  0  0  0
   -0.7168    2.5608    3.4636 H   0  0  0  0  0  0  0  0  0  0  0  0
   -1.1611    1.1431    4.4413 H   0  0  0  0  0  0  0  0  0  0  0  0
    0.5514    1.5490    4.1756 H   0  0  0  0  0  0  0  0  0  0  0  0
  5  6  2  0  0  0  0
  5  7  1  0  0  0  0
  2  3  1  0  0  0  0
  2  4  1  0  0  0  0
  2  5  1  0  0  0  0
  1  2  1  0  0  0  0
 19 20  2  0  0  0  0
 19 21  1  0  0  0  0
 17 18  1  0  0  0  0
 13 14  1  0  0  0  0
 13 15  1  0  0  0  0
 13 16  1  0  0  0  0
 11 12  1  0  0  0  0
 11 13  1  0  0  0  0
 11 17  1  0  0  0  0
  9 10  1  0  0  0  0
  9 11  1  0  0  0  0
  9 19  1  0  0  0  0
  7  8  1  0  0  0  0
  7  9  1  0  0  0  0
 23 24  1  0  0  0  0
 23 25  1  0  0  0  0
 23 26  1  0  0  0  0
 21 22  1  0  0  0  0
 21 23  1  0  0  0  0
M  END
$$$$
default_name
  -OEChem-01062215323D

 26 25  0     1  0  0  0  0  0999 V2000
   -2.8882   -3.2497    1.2537 H   0  0  0  0  0  0  0  0  0  0  0  0
   -2.8032   -2.3157    0.7017 C   0  0  0  0  0  0  0  0  0  0  0  0
   -3.5012   -1.5857    1.1067 H   0  0  0  0  0  0  0  0  0  0  0  0
   -3.0182   -2.4907   -0.3513 H   0  0  0  0  0  0  0  0  0  0  0  0
   -1.3942   -1.7897    0.8407 C   0  0  0  0  0  0  0  0  0  0  0  0
   -0.5672   -2.4077    1.5007 O   0  0  0  0  0  0  0  0  0  0  0  0
   -1.1222   -0.6447    0.2217 N   0  0  0  0  0  0  0  0  0  0  0  0
   -1.8592   -0.1777   -0.2863 H   0  0  0  0  0  0  0  0  0  0  0  0
    0.1838    0.0363    0.2367 C   0  0  1  0  0  0  0  0  0  0  0  0
    0.9650   -0.7105    0.3738 H   0  0  0  0  0  0  0  0  0  0  0  0
    0.4618    0.7727   -1.0899 C   0  0  1  0  0  0  0  0  0  0  0  0
    1.4360    1.2554   -1.0144 H   0  0  0  0  0  0  0  0  0  0  0  0
    0.4887   -0.1391   -2.3150 C   0  0  0  0  0  0  0  0  0  0  0  0
   -0.5050   -0.5450   -2.5086 H   0  0  0  0  0  0  0  0  0  0  0  0
    0.8218    0.4227   -3.1868 H   0  0  0  0  0  0  0  0  0  0  0  0
    1.1803   -0.9643   -2.1425 H   0  0  0  0  0  0  0  0  0  0  0  0
   -0.5067    1.7636   -1.3298 O   0  0  0  0  0  0  0  0  0  0  0  0
   -0.3513    2.1257   -2.2046 H   0  0  0  0  0  0  0  0  0  0  0  0
    0.2761    1.0154    1.4136 C   0  0  0  0  0  0  0  0  0  0  0  0
    0.7030    2.1588    1.2541 O   0  0  0  0  0  0  0  0  0  0  0  0
   -0.1543    0.5779    2.6052 N   0  0  0  0  0  0  0  0  0  0  0  0
   -0.5109   -0.3615    2.6676 H   0  0  0  0  0  0  0  0  0  0  0  0
   -0.1354    1.3847    3.8243 C   0  0  0  0  0  0  0  0  0  0  0  0
   -0.6460    2.3334    3.6473 H   0  0  0  0  0  0  0  0  0  0  0  0
   -0.6325    0.8565    4.6382 H   0  0  0  0  0  0  0  0  0  0  0  0
    0.8974    1.5963    4.1091 H   0  0  0  0  0  0  0  0  0  0  0  0
  5  6  2  0  0  0  0
  5  7  1  0  0  0  0
  2  3  1  0  0  0  0
  2  4  1  0  0  0  0
  2  5  1  0  0  0  0
  1  2  1  0  0  0  0
 19 20  2  0  0  0  0
 19 21  1  0  0  0  0
 17 18  1  0  0  0  0
 13 14  1  0  0  0  0
 13 15  1  0  0  0  0
 13 16  1  0  0  0  0
 11 12  1  0  0  0  0
 11 13  1  0  0  0  0
 11 17  1  0  0  0  0
  9 10  1  0  0  0  0
  9 11  1  0  0  0  0
  9 19  1  0  0  0  0
  7  8  1  0  0  0  0
  7  9  1  0  0  0  0
 23 24  1  0  0  0  0
 23 25  1  0  0  0  0
 23 26  1  0  0  0  0
 21 22  1  0  0  0  0
 21 23  1  0  0  0  0
M  END
$$$$
default_name
  -OEChem-01062215323D

 26 25  0     1  0  0  0  0  0999 V2000
   -2.8882   -3.2497    1.2537 H   0  0  0  0  0  0  0  0  0  0  0  0
   -2.8032   -2.3157    0.7017 C   0  0  0  0  0  0  0  0  0  0  0  0
   -3.5012   -1.5857    1.1067 H   0  0  0  0  0  0  0  0  0  0  0  0
   -3.0182   -2.4907   -0.3513 H   0  0  0  0  0  0  0  0  0  0  0  0
   -1.3942   -1.7897    0.8407 C   0  0  0  0  0  0  0  0  0  0  0  0
   -0.5672   -2.4077    1.5007 O   0  0  0  0  0  0  0  0  0  0  0  0
   -1.1222   -0.6447    0.2217 N   0  0  0  0  0  0  0  0  0  0  0  0
   -1.8592   -0.1777   -0.2863 H   0  0  0  0  0  0  0  0  0  0  0  0
    0.1838    0.0363    0.2367 C   0  0  1  0  0  0  0  0  0  0  0  0
    0.9650   -0.7105    0.3738 H   0  0  0  0  0  0  0  0  0  0  0  0
    0.4618    0.7727   -1.0899 C   0  0  1  0  0  0  0  0  0  0  0  0
    1.4360    1.2554   -1.0144 H   0  0  0  0  0  0  0  0  0  0  0  0
    0.4887   -0.1391   -2.3150 C   0  0  0  0  0  0  0  0  0  0  0  0
   -0.5050   -0.5450   -2.5086 H   0  0  0  0  0  0  0  0  0  0  0  0
    0.8218    0.4227   -3.1868 H   0  0  0  0  0  0  0  0  0  0  0  0
    1.1803   -0.9643   -2.1425 H   0  0  0  0  0  0  0  0  0  0  0  0
   -0.5067    1.7636   -1.3298 O   0  0  0  0  0  0  0  0  0  0  0  0
   -0.3513    2.1257   -2.2046 H   0  0  0  0  0  0  0  0  0  0  0  0
    0.2761    1.0154    1.4136 C   0  0  0  0  0  0  0  0  0  0  0  0
    0.4363    2.2209    1.2234 O   0  0  0  0  0  0  0  0  0  0  0  0
    0.1454    0.5020    2.6448 N   0  0  0  0  0  0  0  0  0  0  0  0
   -0.0034   -0.4896    2.7344 H   0  0  0  0  0  0  0  0  0  0  0  0
    0.2078    1.2977    3.8698 C   0  0  0  0  0  0  0  0  0  0  0  0
   -0.5022    2.1250    3.8094 H   0  0  0  0  0  0  0  0  0  0  0  0
   -0.0324    0.6817    4.7366 H   0  0  0  0  0  0  0  0  0  0  0  0
    1.2113    1.7118    3.9884 H   0  0  0  0  0  0  0  0  0  0  0  0
  5  6  2  0  0  0  0
  5  7  1  0  0  0  0
  2  3  1  0  0  0  0
  2  4  1  0  0  0  0
  2  5  1  0  0  0  0
  1  2  1  0  0  0  0
 19 20  2  0  0  0  0
 19 21  1  0  0  0  0
 17 18  1  0  0  0  0
 13 14  1  0  0  0  0
 13 15  1  0  0  0  0
 13 16  1  0  0  0  0
 11 12  1  0  0  0  0
 11 13  1  0  0  0  0
 11 17  1  0  0  0  0
  9 10  1  0  0  0  0
  9 11  1  0  0  0  0
  9 19  1  0  0  0  0
  7  8  1  0  0  0  0
  7  9  1  0  0  0  0
 23 24  1  0  0  0  0
 23 25  1  0  0  0  0
 23 26  1  0  0  0  0
 21 22  1  0  0  0  0
 21 23  1  0  0  0  0
M  END
$$$$
default_name
  -OEChem-01062215323D

 26 25  0     1  0  0  0  0  0999 V2000
   -2.8882   -3.2497    1.2537 H   0  0  0  0  0  0  0  0  0  0  0  0
   -2.8032   -2.3157    0.7017 C   0  0  0  0  0  0  0  0  0  0  0  0
   -3.5012   -1.5857    1.1067 H   0  0  0  0  0  0  0  0  0  0  0  0
   -3.0182   -2.4907   -0.3513 H   0  0  0  0  0  0  0  0  0  0  0  0
   -1.3942   -1.7897    0.8407 C   0  0  0  0  0  0  0  0  0  0  0  0
   -0.5672   -2.4077    1.5007 O   0  0  0  0  0  0  0  0  0  0  0  0
   -1.1222   -0.6447    0.2217 N   0  0  0  0  0  0  0  0  0  0  0  0
   -1.8592   -0.1777   -0.2863 H   0  0  0  0  0  0  0  0  0  0  0  0
    0.1838    0.0363    0.2367 C   0  0  1  0  0  0  0  0  0  0  0  0
    0.9650   -0.7105    0.3738 H   0  0  0  0  0  0  0  0  0  0  0  0
    0.4618    0.7727   -1.0899 C   0  0  1  0  0  0  0  0  0  0  0  0
    1.4360    1.2554   -1.0144 H   0  0  0  0  0  0  0  0  0  0  0  0
    0.4887   -0.1391   -2.3150 C   0  0  0  0  0  0  0  0  0  0  0  0
   -0.5050   -0.5450   -2.5086 H   0  0  0  0  0  0  0  0  0  0  0  0
    0.8218    0.4227   -3.1868 H   0  0  0  0  0  0  0  0  0  0  0  0
    1.1803   -0.9643   -2.1425 H   0  0  0  0  0  0  0  0  0  0  0  0
   -0.5067    1.7636   -1.3298 O   0  0  0  0  0  0  0  0  0  0  0  0
   -0.3513    2.1257   -2.2046 H   0  0  0  0  0  0  0  0  0  0  0  0
    0.2761    1.0154    1.4136 C   0  0  0  0  0  0  0  0  0  0  0  0
    0.1613    2.2284    1.2387 O   0  0  0  0  0  0  0  0  0  0  0  0
    0.4565    0.4876    2.6324 N   0  0  0  0  0  0  0  0  0  0  0  0
    0.5233   -0.5136    2.7131 H   0  0  0  0  0  0  0  0  0  0  0  0
    0.5641    1.2811    3.8557 C   0  0  0  0  0  0  0  0  0  0  0  0
   -0.2951    1.9496    3.9390 H   0  0  0  0  0  0  0  0  0  0  0  0
    0.5981    0.6304    4.7298 H   0  0  0  0  0  0  0  0  0  0  0  0
    1.4716    1.8876    3.8217 H   0  0  0  0  0  0  0  0  0  0  0  0
  5  6  2  0  0  0  0
  5  7  1  0  0  0  0
  2  3  1  0  0  0  0
  2  4  1  0  0  0  0
  2  5  1  0  0  0  0
  1  2  1  0  0  0  0
 19 20  2  0  0  0  0
 19 21  1  0  0  0  0
 17 18  1  0  0  0  0
 13 14  1  0  0  0  0
 13 15  1  0  0  0  0
 13 16  1  0  0  0  0
 11 12  1  0  0  0  0
 11 13  1  0  0  0  0
 11 17  1  0  0  0  0
  9 10  1  0  0  0  0
  9 11  1  0  0  0  0
  9 19  1  0  0  0  0
  7  8  1  0  0  0  0
  7  9  1  0  0  0  0
 23 24  1  0  0  0  0
 23 25  1  0  0  0  0
 23 26  1  0  0  0  0
 21 22  1  0  0  0  0
 21 23  1  0  0  0  0
M  END
$$$$
default_name
  -OEChem-01062215323D

 26 25  0     1  0  0  0  0  0999 V2000
   -2.8882   -3.2497    1.2537 H   0  0  0  0  0  0  0  0  0  0  0  0
   -2.8032   -2.3157    0.7017 C   0  0  0  0  0  0  0  0  0  0  0  0
   -3.5012   -1.5857    1.1067 H   0  0  0  0  0  0  0  0  0  0  0  0
   -3.0182   -2.4907   -0.3513 H   0  0  0  0  0  0  0  0  0  0  0  0
   -1.3942   -1.7897    0.8407 C   0  0  0  0  0  0  0  0  0  0  0  0
   -0.5672   -2.4077    1.5007 O   0  0  0  0  0  0  0  0  0  0  0  0
   -1.1222   -0.6447    0.2217 N   0  0  0  0  0  0  0  0  0  0  0  0
   -1.8592   -0.1777   -0.2863 H   0  0  0  0  0  0  0  0  0  0  0  0
    0.1838    0.0363    0.2367 C   0  0  1  0  0  0  0  0  0  0  0  0
    0.9650   -0.7105    0.3738 H   0  0  0  0  0  0  0  0  0  0  0  0
    0.4618    0.7727   -1.0899 C   0  0  1  0  0  0  0  0  0  0  0  0
    1.4360    1.2554   -1.0144 H   0  0  0  0  0  0  0  0  0  0  0  0
    0.4887   -0.1391   -2.3150 C   0  0  0  0  0  0  0  0  0  0  0  0
   -0.5050   -0.5450   -2.5086 H   0  0  0  0  0  0  0  0  0  0  0  0
    0.8218    0.4227   -3.1868 H   0  0  0  0  0  0  0  0  0  0  0  0
    1.1803   -0.9643   -2.1425 H   0  0  0  0  0  0  0  0  0  0  0  0
   -0.5067    1.7636   -1.3298 O   0  0  0  0  0  0  0  0  0  0  0  0
   -0.3513    2.1257   -2.2046 H   0  0  0  0  0  0  0  0  0  0  0  0
    0.2761    1.0154    1.4136 C   0  0  0  0  0  0  0  0  0  0  0  0
   -0.1033    2.1808    1.2991 O   0  0  0  0  0  0  0  0  0  0  0  0
    0.7578    0.5357    2.5688 N   0  0  0  0  0  0  0  0  0  0  0  0
    1.0334   -0.4319    2.6051 H   0  0  0  0  0  0  0  0  0  0  0  0
    0.9092    1.3360    3.7830 C   0  0  0  0  0  0  0  0  0  0  0  0
   -0.0388    1.8194    4.0273 H   0  0  0  0  0  0  0  0  0  0  0  0
    1.2163    0.7063    4.6182 H   0  0  0  0  0  0  0  0  0  0  0  0
    1.6606    2.1117    3.6205 H   0  0  0  0  0  0  0  0  0  0  0  0
  5  6  2  0  0  0  0
  5  7  1  0  0  0  0
  2  3  1  0  0  0  0
  2  4  1  0  0  0  0
  2  5  1  0  0  0  0
  1  2  1  0  0  0  0
 19 20  2  0  0  0  0
 19 21  1  0  0  0  0
 17 18  1  0  0  0  0
 13 14  1  0  0  0  0
 13 15  1  0  0  0  0
 13 16  1  0  0  0  0
 11 12  1  0  0  0  0
 11 13  1  0  0  0  0
 11 17  1  0  0  0  0
  9 10  1  0  0  0  0
  9 11  1  0  0  0  0
  9 19  1  0  0  0  0
  7  8  1  0  0  0  0
  7  9  1  0  0  0  0
 23 24  1  0  0  0  0
 23 25  1  0  0  0  0
 23 26  1  0  0  0  0
 21 22  1  0  0  0  0
 21 23  1  0  0  0  0
M  END
$$$$
default_name
  -OEChem-01062215323D

 26 25  0     1  0  0  0  0  0999 V2000
   -2.8882   -3.2497    1.2537 H   0  0  0  0  0  0  0  0  0  0  0  0
   -2.8032   -2.3157    0.7017 C   0  0  0  0  0  0  0  0  0  0  0  0
   -3.5012   -1.5857    1.1067 H   0  0  0  0  0  0  0  0  0  0  0  0
   -3.0182   -2.4907   -0.3513 H   0  0  0  0  0  0  0  0  0  0  0  0
   -1.3942   -1.7897    0.8407 C   0  0  0  0  0  0  0  0  0  0  0  0
   -0.5672   -2.4077    1.5007 O   0  0  0  0  0  0  0  0  0  0  0  0
   -1.1222   -0.6447    0.2217 N   0  0  0  0  0  0  0  0  0  0  0  0
   -1.8592   -0.1777   -0.2863 H   0  0  0  0  0  0  0  0  0  0  0  0
    0.1838    0.0363    0.2367 C   0  0  1  0  0  0  0  0  0  0  0  0
    0.9650   -0.7105    0.3738 H   0  0  0  0  0  0  0  0  0  0  0  0
    0.4618    0.7727   -1.0899 C   0  0  1  0  0  0  0  0  0  0  0  0
    1.4360    1.2554   -1.0144 H   0  0  0  0  0  0  0  0  0  0  0  0
    0.4887   -0.1391   -2.3150 C   0  0  0  0  0  0  0  0  0  0  0  0
   -0.5050   -0.5450   -2.5086 H   0  0  0  0  0  0  0  0  0  0  0  0
    0.8218    0.4227   -3.1868 H   0  0  0  0  0  0  0  0  0  0  0  0
    1.1803   -0.9643   -2.1425 H   0  0  0  0  0  0  0  0  0  0  0  0
   -0.5067    1.7636   -1.3298 O   0  0  0  0  0  0  0  0  0  0  0  0
   -0.3513    2.1257   -2.2046 H   0  0  0  0  0  0  0  0  0  0  0  0
    0.2761    1.0154    1.4136 C   0  0  0  0  0  0  0  0  0  0  0  0
   -0.3394    2.0813    1.4004 O   0  0  0  0  0  0  0  0  0  0  0  0
    1.0288    0.6430    2.4583 N   0  0  0  0  0  0  0  0  0  0  0  0
    1.4919   -0.2500    2.4178 H   0  0  0  0  0  0  0  0  0  0  0  0
    1.2197    1.4587    3.6565 C   0  0  0  0  0  0  0  0  0  0  0  0
    0.2493    1.7431    4.0681 H   0  0  0  0  0  0  0  0  0  0  0  0
    1.7799    0.9040    4.4095 H   0  0  0  0  0  0  0  0  0  0  0  0
    1.7654    2.3688    3.3984 H   0  0  0  0  0  0  0  0  0  0  0  0
  5  6  2  0  0  0  0
  5  7  1  0  0  0  0
  2  3  1  0  0  0  0
  2  4  1  0  0  0  0
  2  5  1  0  0  0  0
  1  2  1  0  0  0  0
 19 20  2  0  0  0  0
 19 21  1  0  0  0  0
 17 18  1  0  0  0  0
 13 14  1  0  0  0  0
 13 15  1  0  0  0  0
 13 16  1  0  0  0  0
 11 12  1  0  0  0  0
 11 13  1  0  0  0  0
 11 17  1  0  0  0  0
  9 10  1  0  0  0  0
  9 11  1  0  0  0  0
  9 19  1  0  0  0  0
  7  8  1  0  0  0  0
  7  9  1  0  0  0  0
 23 24  1  0  0  0  0
 23 25  1  0  0  0  0
 23 26  1  0  0  0  0
 21 22  1  0  0  0  0
 21 23  1  0  0  0  0
M  END
$$$$
default_name
  -OEChem-01062215323D

 26 25  0     1  0  0  0  0  0999 V2000
   -2.8882   -3.2497    1.2537 H   0  0  0  0  0  0  0  0  0  0  0  0
   -2.8032   -2.3157    0.7017 C   0  0  0  0  0  0  0  0  0  0  0  0
   -3.5012   -1.5857    1.1067 H   0  0  0  0  0  0  0  0  0  0  0  0
   -3.0182   -2.4907   -0.3513 H   0  0  0  0  0  0  0  0  0  0  0  0
   -1.3942   -1.7897    0.8407 C   0  0  0  0  0  0  0  0  0  0  0  0
   -0.5672   -2.4077    1.5007 O   0  0  0  0  0  0  0  0  0  0  0  0
   -1.1222   -0.6447    0.2217 N   0  0  0  0  0  0  0  0  0  0  0  0
   -1.8592   -0.1777   -0.2863 H   0  0  0  0  0  0  0  0  0  0  0  0
    0.1838    0.0363    0.2367 C   0  0  1  0  0  0  0  0  0  0  0  0
    0.9650   -0.7105    0.3738 H   0  0  0  0  0  0  0  0  0  0  0  0
    0.4618    0.7727   -1.0899 C   0  0  1  0  0  0  0  0  0  0  0  0
    1.4360    1.2554   -1.0144 H   0  0  0  0  0  0  0  0  0  0  0  0
    0.4887   -0.1391   -2.3150 C   0  0  0  0  0  0  0  0  0  0  0  0
   -0.5050   -0.5450   -2.5086 H   0  0  0  0  0  0  0  0  0  0  0  0
    0.8218    0.4227   -3.1868 H   0  0  0  0  0  0  0  0  0  0  0  0
    1.1803   -0.9643   -2.1425 H   0  0  0  0  0  0  0  0  0  0  0  0
   -0.5067    1.7636   -1.3298 O   0  0  0  0  0  0  0  0  0  0  0  0
   -0.3513    2.1257   -2.2046 H   0  0  0  0  0  0  0  0  0  0  0  0
    0.2761    1.0154    1.4136 C   0  0  0  0  0  0  0  0  0  0  0  0
   -0.5310    1.9367    1.5357 O   0  0  0  0  0  0  0  0  0  0  0  0
    1.2510    0.8021    2.3085 N   0  0  0  0  0  0  0  0  0  0  0  0
    1.8678    0.0197    2.1639 H   0  0  0  0  0  0  0  0  0  0  0  0
    1.4743    1.6409    3.4850 C   0  0  0  0  0  0  0  0  0  0  0  0
    0.5494    1.7260    4.0588 H   0  0  0  0  0  0  0  0  0  0  0  0
    2.2505    1.2103    4.1178 H   0  0  0  0  0  0  0  0  0  0  0  0
    1.7789    2.6414    3.1705 H   0  0  0  0  0  0  0  0  0  0  0  0
  5  6  2  0  0  0  0
  5  7  1  0  0  0  0
  2  3  1  0  0  0  0
  2  4  1  0  0  0  0
  2  5  1  0  0  0  0
  1  2  1  0  0  0  0
 19 20  2  0  0  0  0
 19 21  1  0  0  0  0
 17 18  1  0  0  0  0
 13 14  1  0  0  0  0
 13 15  1  0  0  0  0
 13 16  1  0  0  0  0
 11 12  1  0  0  0  0
 11 13  1  0  0  0  0
 11 17  1  0  0  0  0
  9 10  1  0  0  0  0
  9 11  1  0  0  0  0
  9 19  1  0  0  0  0
  7  8  1  0  0  0  0
  7  9  1  0  0  0  0
 23 24  1  0  0  0  0
 23 25  1  0  0  0  0
 23 26  1  0  0  0  0
 21 22  1  0  0  0  0
 21 23  1  0  0  0  0
M  END
$$$$
default_name
  -OEChem-01062215323D

 26 25  0     1  0  0  0  0  0999 V2000
   -2.8882   -3.2497    1.2537 H   0  0  0  0  0  0  0  0  0  0  0  0
   -2.8032   -2.3157    0.7017 C   0  0  0  0  0  0  0  0  0  0  0  0
   -3.5012   -1.5857    1.1067 H   0  0  0  0  0  0  0  0  0  0  0  0
   -3.0182   -2.4907   -0.3513 H   0  0  0  0  0  0  0  0  0  0  0  0
   -1.3942   -1.7897    0.8407 C   0  0  0  0  0  0  0  0  0  0  0  0
   -0.5672   -2.4077    1.5007 O   0  0  0  0  0  0  0  0  0  0  0  0
   -1.1222   -0.6447    0.2217 N   0  0  0  0  0  0  0  0  0  0  0  0
   -1.8592   -0.1777   -0.2863 H   0  0  0  0  0  0  0  0  0  0  0  0
    0.1838    0.0363    0.2367 C   0  0  1  0  0  0  0  0  0  0  0  0
    0.9650   -0.7105    0.3738 H   0  0  0  0  0  0  0  0  0  0  0  0
    0.4618    0.7727   -1.0899 C   0  0  1  0  0  0  0  0  0  0  0  0
    1.4360    1.2554   -1.0144 H   0  0  0  0  0  0  0  0  0  0  0  0
    0.4887   -0.1391   -2.3150 C   0  0  0  0  0  0  0  0  0  0  0  0
   -0.5050   -0.5450   -2.5086 H   0  0  0  0  0  0  0  0  0  0  0  0
    0.8218    0.4227   -3.1868 H   0  0  0  0  0  0  0  0  0  0  0  0
    1.1803   -0.9643   -2.1425 H   0  0  0  0  0  0  0  0  0  0  0  0
   -0.5067    1.7636   -1.3298 O   0  0  0  0  0  0  0  0  0  0  0  0
   -0.3513    2.1257   -2.2046 H   0  0  0  0  0  0  0  0  0  0  0  0
    0.2761    1.0154    1.4136 C   0  0  0  0  0  0  0  0  0  0  0  0
   -0.6650    1.7568    1.6958 O   0  0  0  0  0  0  0  0  0  0  0  0
    1.4092    1.0023    2.1295 N   0  0  0  0  0  0  0  0  0  0  0  0
    2.1353    0.3589    1.8608 H   0  0  0  0  0  0  0  0  0  0  0  0
    1.6557    1.8701    3.2801 C   0  0  0  0  0  0  0  0  0  0  0  0
    0.8411    1.7692    4.0000 H   0  0  0  0  0  0  0  0  0  0  0  0
    2.5961    1.6040    3.7631 H   0  0  0  0  0  0  0  0  0  0  0  0
    1.7001    2.9110    2.9525 H   0  0  0  0  0  0  0  0  0  0  0  0
  5  6  2  0  0  0  0
  5  7  1  0  0  0  0
  2  3  1  0  0  0  0
  2  4  1  0  0  0  0
  2  5  1  0  0  0  0
  1  2  1  0  0  0  0
 19 20  2  0  0  0  0
 19 21  1  0  0  0  0
 17 18  1  0  0  0  0
 13 14  1  0  0  0  0
 13 15  1  0  0  0  0
 13 16  1  0  0  0  0
 11 12  1  0  0  0  0
 11 13  1  0  0  0  0
 11 17  1  0  0  0  0
  9 10  1  0  0  0  0
  9 11  1  0  0  0  0
  9 19  1  0  0  0  0
  7  8  1  0  0  0  0
  7  9  1  0  0  0  0
 23 24  1  0  0  0  0
 23 25  1  0  0  0  0
 23 26  1  0  0  0  0
 21 22  1  0  0  0  0
 21 23  1  0  0  0  0
M  END
$$$$
default_name
  -OEChem-01062215323D

 26 25  0     1  0  0  0  0  0999 V2000
   -2.8882   -3.2497    1.2537 H   0  0  0  0  0  0  0  0  0  0  0  0
   -2.8032   -2.3157    0.7017 C   0  0  0  0  0  0  0  0  0  0  0  0
   -3.5012   -1.5857    1.1067 H   0  0  0  0  0  0  0  0  0  0  0  0
   -3.0182   -2.4907   -0.3513 H   0  0  0  0  0  0  0  0  0  0  0  0
   -1.3942   -1.7897    0.8407 C   0  0  0  0  0  0  0  0  0  0  0  0
   -0.5672   -2.4077    1.5007 O   0  0  0  0  0  0  0  0  0  0  0  0
   -1.1222   -0.6447    0.2217 N   0  0  0  0  0  0  0  0  0  0  0  0
   -1.8592   -0.1777   -0.2863 H   0  0  0  0  0  0  0  0  0  0  0  0
    0.1838    0.0363    0.2367 C   0  0  1  0  0  0  0  0  0  0  0  0
    0.9650   -0.7105    0.3738 H   0  0  0  0  0  0  0  0  0  0  0  0
    0.4618    0.7727   -1.0899 C   0  0  1  0  0  0  0  0  0  0  0  0
    1.4360    1.2554   -1.0144 H   0  0  0  0  0  0  0  0  0  0  0  0
    0.4887   -0.1391   -2.3150 C   0  0  0  0  0  0  0  0  0  0  0  0
   -0.5050   -0.5450   -2.5086 H   0  0  0  0  0  0  0  0  0  0  0  0
    0.8218    0.4227   -3.1868 H   0  0  0  0  0  0  0  0  0  0  0  0
    1.1803   -0.9643   -2.1425 H   0  0  0  0  0  0  0  0  0  0  0  0
   -0.5067    1.7636   -1.3298 O   0  0  0  0  0  0  0  0  0  0  0  0
   -0.3513    2.1257   -2.2046 H   0  0  0  0  0  0  0  0  0  0  0  0
    0.2761    1.0154    1.4136 C   0  0  0  0  0  0  0  0  0  0  0  0
   -0.7323    1.5540    1.8698 O   0  0  0  0  0  0  0  0  0  0  0  0
    1.4927    1.2299    1.9336 N   0  0  0  0  0  0  0  0  0  0  0  0
    2.2763    0.7443    1.5291 H   0  0  0  0  0  0  0  0  0  0  0  0
    1.7515    2.1308    3.0557 C   0  0  0  0  0  0  0  0  0  0  0  0
    1.1046    1.8698    3.8956 H   0  0  0  0  0  0  0  0  0  0  0  0
    2.7931    2.0586    3.3695 H   0  0  0  0  0  0  0  0  0  0  0  0
    1.5344    3.1591    2.7590 H   0  0  0  0  0  0  0  0  0  0  0  0
  5  6  2  0  0  0  0
  5  7  1  0  0  0  0
  2  3  1  0  0  0  0
  2  4  1  0  0  0  0
  2  5  1  0  0  0  0
  1  2  1  0  0  0  0
 19 20  2  0  0  0  0
 19 21  1  0  0  0  0
 17 18  1  0  0  0  0
 13 14  1  0  0  0  0
 13 15  1  0  0  0  0
 13 16  1  0  0  0  0
 11 12  1  0  0  0  0
 11 13  1  0  0  0  0
 11 17  1  0  0  0  0
  9 10  1  0  0  0  0
  9 11  1  0  0  0  0
  9 19  1  0  0  0  0
  7  8  1  0  0  0  0
  7  9  1  0  0  0  0
 23 24  1  0  0  0  0
 23 25  1  0  0  0  0
 23 26  1  0  0  0  0
 21 22  1  0  0  0  0
 21 23  1  0  0  0  0
M  END
$$$$
default_name
  -OEChem-01062215323D

 26 25  0     1  0  0  0  0  0999 V2000
   -2.8882   -3.2497    1.2537 H   0  0  0  0  0  0  0  0  0  0  0  0
   -2.8032   -2.3157    0.7017 C   0  0  0  0  0  0  0  0  0  0  0  0
   -3.5012   -1.5857    1.1067 H   0  0  0  0  0  0  0  0  0  0  0  0
   -3.0182   -2.4907   -0.3513 H   0  0  0  0  0  0  0  0  0  0  0  0
   -1.3942   -1.7897    0.8407 C   0  0  0  0  0  0  0  0  0  0  0  0
   -0.5672   -2.4077    1.5007 O   0  0  0  0  0  0  0  0  0  0  0  0
   -1.1222   -0.6447    0.2217 N   0  0  0  0  0  0  0  0  0  0  0  0
   -1.8592   -0.1777   -0.2863 H   0  0  0  0  0  0  0  0  0  0  0  0
    0.1838    0.0363    0.2367 C   0  0  1  0  0  0  0  0  0  0  0  0
    0.9650   -0.7105    0.3738 H   0  0  0  0  0  0  0  0  0  0  0  0
    0.4618    0.7727   -1.0899 C   0  0  1  0  0  0  0  0  0  0  0  0
    1.4360    1.2554   -1.0144 H   0  0  0  0  0  0  0  0  0  0  0  0
    0.4887   -0.1391   -2.3150 C   0  0  0  0  0  0  0  0  0  0  0  0
   -0.5050   -0.5450   -2.5086 H   0  0  0  0  0  0  0  0  0  0  0  0
    0.8218    0.4227   -3.1868 H   0  0  0  0  0  0  0  0  0  0  0  0
    1.1803   -0.9643   -2.1425 H   0  0  0  0  0  0  0  0  0  0  0  0
   -0.5067    1.7636   -1.3298 O   0  0  0  0  0  0  0  0  0  0  0  0
   -0.3513    2.1257   -2.2046 H   0  0  0  0  0  0  0  0  0  0  0  0
    0.2761    1.0154    1.4136 C   0  0  0  0  0  0  0  0  0  0  0  0
   -0.7283    1.3421    2.0458 O   0  0  0  0  0  0  0  0  0  0  0  0
    1.4958    1.4693    1.7342 N   0  0  0  0  0  0  0  0  0  0  0  0
    2.2811    1.1498    1.1914 H   0  0  0  0  0  0  0  0  0  0  0  0
    1.7553    2.4050    2.8273 C   0  0  0  0  0  0  0  0  0  0  0  0
    1.3219    2.0210    3.7529 H   0  0  0  0  0  0  0  0  0  0  0  0
    2.8280    2.5429    2.9639 H   0  0  0  0  0  0  0  0  0  0  0  0
    1.2932    3.3689    2.6034 H   0  0  0  0  0  0  0  0  0  0  0  0
  5  6  2  0  0  0  0
  5  7  1  0  0  0  0
  2  3  1  0  0  0  0
  2  4  1  0  0  0  0
  2  5  1  0  0  0  0
  1  2  1  0  0  0  0
 19 20  2  0  0  0  0
 19 21  1  0  0  0  0
 17 18  1  0  0  0  0
 13 14  1  0  0  0  0
 13 15  1  0  0  0  0
 13 16  1  0  0  0  0
 11 12  1  0  0  0  0
 11 13  1  0  0  0  0
 11 17  1  0  0  0  0
  9 10  1  0  0  0  0
  9 11  1  0  0  0  0
  9 19  1  0  0  0  0
  7  8  1  0  0  0  0
  7  9  1  0  0  0  0
 23 24  1  0  0  0  0
 23 25  1  0  0  0  0
 23 26  1  0  0  0  0
 21 22  1  0  0  0  0
 21 23  1  0  0  0  0
M  END
$$$$
default_name
  -OEChem-01062215323D

 26 25  0     1  0  0  0  0  0999 V2000
   -2.8882   -3.2497    1.2537 H   0  0  0  0  0  0  0  0  0  0  0  0
   -2.8032   -2.3157    0.7017 C   0  0  0  0  0  0  0  0  0  0  0  0
   -3.5012   -1.5857    1.1067 H   0  0  0  0  0  0  0  0  0  0  0  0
   -3.0182   -2.4907   -0.3513 H   0  0  0  0  0  0  0  0  0  0  0  0
   -1.3942   -1.7897    0.8407 C   0  0  0  0  0  0  0  0  0  0  0  0
   -0.5672   -2.4077    1.5007 O   0  0  0  0  0  0  0  0  0  0  0  0
   -1.1222   -0.6447    0.2217 N   0  0  0  0  0  0  0  0  0  0  0  0
   -1.8592   -0.1777   -0.2863 H   0  0  0  0  0  0  0  0  0  0  0  0
    0.1838    0.0363    0.2367 C   0  0  1  0  0  0  0  0  0  0  0  0
    0.9673   -0.7090    0.1044 H   0  0  0  0  0  0  0  0  0  0  0  0
    0.3089    1.0619   -0.9088 C   0  0  1  0  0  0  0  0  0  0  0  0
    1.2906    1.5304   -0.8413 H   0  0  0  0  0  0  0  0  0  0  0  0
    0.1784    0.4558   -2.3047 C   0  0  0  0  0  0  0  0  0  0  0  0
   -0.8359    0.0887   -2.4663 H   0  0  0  0  0  0  0  0  0  0  0  0
    0.4108    1.2080   -3.0576 H   0  0  0  0  0  0  0  0  0  0  0  0
    0.8763   -0.3753   -2.4102 H   0  0  0  0  0  0  0  0  0  0  0  0
   -0.6700    2.0651   -0.7973 O   0  0  0  0  0  0  0  0  0  0  0  0
   -0.6167    2.6207   -1.5777 H   0  0  0  0  0  0  0  0  0  0  0  0
    0.4277    0.7208    1.5873 C   0  0  0  0  0  0  0  0  0  0  0  0
   -0.3976    0.6391    2.4969 O   0  0  0  0  0  0  0  0  0  0  0  0
    1.5851    1.3802    1.7359 N   0  0  0  0  0  0  0  0  0  0  0  0
    2.2283    1.3944    0.9615 H   0  0  0  0  0  0  0  0  0  0  0  0
    1.9705    2.0839    2.9582 C   0  0  0  0  0  0  0  0  0  0  0  0
    1.8946    1.4085    3.8127 H   0  0  0  0  0  0  0  0  0  0  0  0
    2.9945    2.4497    2.8801 H   0  0  0  0  0  0  0  0  0  0  0  0
    1.2975    2.9278    3.1241 H   0  0  0  0  0  0  0  0  0  0  0  0
  5  6  2  0  0  0  0
  5  7  1  0  0  0  0
  2  3  1  0  0  0  0
  2  4  1  0  0  0  0
  2  5  1  0  0  0  0
  1  2  1  0  0  0  0
 19 20  2  0  0  0  0
 19 21  1  0  0  0  0
 17 18  1  0  0  0  0
 13 14  1  0  0  0  0
 13 15  1  0  0  0  0
 13 16  1  0  0  0  0
 11 12  1  0  0  0  0
 11 13  1  0  0  0  0
 11 17  1  0  0  0  0
  9 10  1  0  0  0  0
  9 11  1  0  0  0  0
  9 19  1  0  0  0  0
  7  8  1  0  0  0  0
  7  9  1  0  0  0  0
 23 24  1  0  0  0  0
 23 25  1  0  0  0  0
 23 26  1  0  0  0  0
 21 22  1  0  0  0  0
 21 23  1  0  0  0  0
M  END
$$$$
default_name
  -OEChem-01062215323D

 26 25  0     1  0  0  0  0  0999 V2000
   -2.8882   -3.2497    1.2537 H   0  0  0  0  0  0  0  0  0  0  0  0
   -2.8032   -2.3157    0.7017 C   0  0  0  0  0  0  0  0  0  0  0  0
   -3.5012   -1.5857    1.1067 H   0  0  0  0  0  0  0  0  0  0  0  0
   -3.0182   -2.4907   -0.3513 H   0  0  0  0  0  0  0  0  0  0  0  0
   -1.3942   -1.7897    0.8407 C   0  0  0  0  0  0  0  0  0  0  0  0
   -0.5672   -2.4077    1.5007 O   0  0  0  0  0  0  0  0  0  0  0  0
   -1.1222   -0.6447    0.2217 N   0  0  0  0  0  0  0  0  0  0  0  0
   -1.8592   -0.1777   -0.2863 H   0  0  0  0  0  0  0  0  0  0  0  0
    0.1838    0.0363    0.2367 C   0  0  1  0  0  0  0  0  0  0  0  0
    0.9673   -0.7090    0.1044 H   0  0  0  0  0  0  0  0  0  0  0  0
    0.3089    1.0619   -0.9088 C   0  0  1  0  0  0  0  0  0  0  0  0
    1.2906    1.5304   -0.8413 H   0  0  0  0  0  0  0  0  0  0  0  0
    0.1784    0.4558   -2.3047 C   0  0  0  0  0  0  0  0  0  0  0  0
   -0.8359    0.0887   -2.4663 H   0  0  0  0  0  0  0  0  0  0  0  0
    0.4108    1.2080   -3.0576 H   0  0  0  0  0  0  0  0  0  0  0  0
    0.8763   -0.3753   -2.4102 H   0  0  0  0  0  0  0  0  0  0  0  0
   -0.6700    2.0651   -0.7973 O   0  0  0  0  0  0  0  0  0  0  0  0
   -0.6167    2.6207   -1.5777 H   0  0  0  0  0  0  0  0  0  0  0  0
    0.4277    0.7208    1.5873 C   0  0  0  0  0  0  0  0  0  0  0  0
   -0.2424    0.4259    2.5769 O   0  0  0  0  0  0  0  0  0  0  0  0
    1.4159    1.6247    1.6425 N   0  0  0  0  0  0  0  0  0  0  0  0
    1.9413    1.8082    0.8037 H   0  0  0  0  0  0  0  0  0  0  0  0
    1.7768    2.3640    2.8512 C   0  0  0  0  0  0  0  0  0  0  0  0
    1.9585    1.6659    3.6707 H   0  0  0  0  0  0  0  0  0  0  0  0
    2.6749    2.9579    2.6803 H   0  0  0  0  0  0  0  0  0  0  0  0
    0.9558    3.0252    3.1364 H   0  0  0  0  0  0  0  0  0  0  0  0
  5  6  2  0  0  0  0
  5  7  1  0  0  0  0
  2  3  1  0  0  0  0
  2  4  1  0  0  0  0
  2  5  1  0  0  0  0
  1  2  1  0  0  0  0
 19 20  2  0  0  0  0
 19 21  1  0  0  0  0
 17 18  1  0  0  0  0
 13 14  1  0  0  0  0
 13 15  1  0  0  0  0
 13 16  1  0  0  0  0
 11 12  1  0  0  0  0
 11 13  1  0  0  0  0
 11 17  1  0  0  0  0
  9 10  1  0  0  0  0
  9 11  1  0  0  0  0
  9 19  1  0  0  0  0
  7  8  1  0  0  0  0
  7  9  1  0  0  0  0
 23 24  1  0  0  0  0
 23 25  1  0  0  0  0
 23 26  1  0  0  0  0
 21 22  1  0  0  0  0
 21 23  1  0  0  0  0
M  END
$$$$
default_name
  -OEChem-01062215323D

 26 25  0     1  0  0  0  0  0999 V2000
   -2.8882   -3.2497    1.2537 H   0  0  0  0  0  0  0  0  0  0  0  0
   -2.8032   -2.3157    0.7017 C   0  0  0  0  0  0  0  0  0  0  0  0
   -3.5012   -1.5857    1.1067 H   0  0  0  0  0  0  0  0  0  0  0  0
   -3.0182   -2.4907   -0.3513 H   0  0  0  0  0  0  0  0  0  0  0  0
   -1.3942   -1.7897    0.8407 C   0  0  0  0  0  0  0  0  0  0  0  0
   -0.5672   -2.4077    1.5007 O   0  0  0  0  0  0  0  0  0  0  0  0
   -1.1222   -0.6447    0.2217 N   0  0  0  0  0  0  0  0  0  0  0  0
   -1.8592   -0.1777   -0.2863 H   0  0  0  0  0  0  0  0  0  0  0  0
    0.1838    0.0363    0.2367 C   0  0  1  0  0  0  0  0  0  0  0  0
    0.9673   -0.7090    0.1044 H   0  0  0  0  0  0  0  0  0  0  0  0
    0.3089    1.0619   -0.9088 C   0  0  1  0  0  0  0  0  0  0  0  0
    1.2906    1.5304   -0.8413 H   0  0  0  0  0  0  0  0  0  0  0  0
    0.1784    0.4558   -2.3047 C   0  0  0  0  0  0  0  0  0  0  0  0
   -0.8359    0.0887   -2.4663 H   0  0  0  0  0  0  0  0  0  0  0  0
    0.4108    1.2080   -3.0576 H   0  0  0  0  0  0  0  0  0  0  0  0
    0.8763   -0.3753   -2.4102 H   0  0  0  0  0  0  0  0  0  0  0  0
   -0.6700    2.0651   -0.7973 O   0  0  0  0  0  0  0  0  0  0  0  0
   -0.6167    2.6207   -1.5777 H   0  0  0  0  0  0  0  0  0  0  0  0
    0.4277    0.7208    1.5873 C   0  0  0  0  0  0  0  0  0  0  0  0
   -0.0346    0.2521    2.6274 O   0  0  0  0  0  0  0  0  0  0  0  0
    1.1858    1.8261    1.5820 N   0  0  0  0  0  0  0  0  0  0  0  0
    1.5516    2.1489    0.7014 H   0  0  0  0  0  0  0  0  0  0  0  0
    1.5134    2.5948    2.7818 C   0  0  0  0  0  0  0  0  0  0  0  0
    1.9451    1.9348    3.5368 H   0  0  0  0  0  0  0  0  0  0  0  0
    2.2272    3.3841    2.5452 H   0  0  0  0  0  0  0  0  0  0  0  0
    0.6049    3.0410    3.1918 H   0  0  0  0  0  0  0  0  0  0  0  0
  5  6  2  0  0  0  0
  5  7  1  0  0  0  0
  2  3  1  0  0  0  0
  2  4  1  0  0  0  0
  2  5  1  0  0  0  0
  1  2  1  0  0  0  0
 19 20  2  0  0  0  0
 19 21  1  0  0  0  0
 17 18  1  0  0  0  0
 13 14  1  0  0  0  0
 13 15  1  0  0  0  0
 13 16  1  0  0  0  0
 11 12  1  0  0  0  0
 11 13  1  0  0  0  0
 11 17  1  0  0  0  0
  9 10  1  0  0  0  0
  9 11  1  0  0  0  0
  9 19  1  0  0  0  0
  7  8  1  0  0  0  0
  7  9  1  0  0  0  0
 23 24  1  0  0  0  0
 23 25  1  0  0  0  0
 23 26  1  0  0  0  0
 21 22  1  0  0  0  0
 21 23  1  0  0  0  0
M  END
$$$$
default_name
  -OEChem-01062215323D

 26 25  0     1  0  0  0  0  0999 V2000
   -2.8882   -3.2497    1.2537 H   0  0  0  0  0  0  0  0  0  0  0  0
   -2.8032   -2.3157    0.7017 C   0  0  0  0  0  0  0  0  0  0  0  0
   -3.5012   -1.5857    1.1067 H   0  0  0  0  0  0  0  0  0  0  0  0
   -3.0182   -2.4907   -0.3513 H   0  0  0  0  0  0  0  0  0  0  0  0
   -1.3942   -1.7897    0.8407 C   0  0  0  0  0  0  0  0  0  0  0  0
   -0.5672   -2.4077    1.5007 O   0  0  0  0  0  0  0  0  0  0  0  0
   -1.1222   -0.6447    0.2217 N   0  0  0  0  0  0  0  0  0  0  0  0
   -1.8592   -0.1777   -0.2863 H   0  0  0  0  0  0  0  0  0  0  0  0
    0.1838    0.0363    0.2367 C   0  0  1  0  0  0  0  0  0  0  0  0
    0.9673   -0.7090    0.1044 H   0  0  0  0  0  0  0  0  0  0  0  0
    0.3089    1.0619   -0.9088 C   0  0  1  0  0  0  0  0  0  0  0  0
    1.2906    1.5304   -0.8413 H   0  0  0  0  0  0  0  0  0  0  0  0
    0.1784    0.4558   -2.3047 C   0  0  0  0  0  0  0  0  0  0  0  0
   -0.8359    0.0887   -2.4663 H   0  0  0  0  0  0  0  0  0  0  0  0
    0.4108    1.2080   -3.0576 H   0  0  0  0  0  0  0  0  0  0  0  0
    0.8763   -0.3753   -2.4102 H   0  0  0  0  0  0  0  0  0  0  0  0
   -0.6700    2.0651   -0.7973 O   0  0  0  0  0  0  0  0  0  0  0  0
   -0.6167    2.6207   -1.5777 H   0  0  0  0  0  0  0  0  0  0  0  0
    0.4277    0.7208    1.5873 C   0  0  0  0  0  0  0  0  0  0  0  0
    0.2115    0.1295    2.6451 O   0  0  0  0  0  0  0  0  0  0  0  0
    0.9108    1.9707    1.5584 N   0  0  0  0  0  0  0  0  0  0  0  0
    1.0856    2.3935    0.6616 H   0  0  0  0  0  0  0  0  0  0  0  0
    1.1984    2.7606    2.7547 C   0  0  0  0  0  0  0  0  0  0  0  0
    1.8555    2.1971    3.4201 H   0  0  0  0  0  0  0  0  0  0  0  0
    1.6821    3.6993    2.4839 H   0  0  0  0  0  0  0  0  0  0  0  0
    0.2688    2.9739    3.2865 H   0  0  0  0  0  0  0  0  0  0  0  0
  5  6  2  0  0  0  0
  5  7  1  0  0  0  0
  2  3  1  0  0  0  0
  2  4  1  0  0  0  0
  2  5  1  0  0  0  0
  1  2  1  0  0  0  0
 19 20  2  0  0  0  0
 19 21  1  0  0  0  0
 17 18  1  0  0  0  0
 13 14  1  0  0  0  0
 13 15  1  0  0  0  0
 13 16  1  0  0  0  0
 11 12  1  0  0  0  0
 11 13  1  0  0  0  0
 11 17  1  0  0  0  0
  9 10  1  0  0  0  0
  9 11  1  0  0  0  0
  9 19  1  0  0  0  0
  7  8  1  0  0  0  0
  7  9  1  0  0  0  0
 23 24  1  0  0  0  0
 23 25  1  0  0  0  0
 23 26  1  0  0  0  0
 21 22  1  0  0  0  0
 21 23  1  0  0  0  0
M  END
$$$$
default_name
  -OEChem-01062215323D

 26 25  0     1  0  0  0  0  0999 V2000
   -2.8882   -3.2497    1.2537 H   0  0  0  0  0  0  0  0  0  0  0  0
   -2.8032   -2.3157    0.7017 C   0  0  0  0  0  0  0  0  0  0  0  0
   -3.5012   -1.5857    1.1067 H   0  0  0  0  0  0  0  0  0  0  0  0
   -3.0182   -2.4907   -0.3513 H   0  0  0  0  0  0  0  0  0  0  0  0
   -1.3942   -1.7897    0.8407 C   0  0  0  0  0  0  0  0  0  0  0  0
   -0.5672   -2.4077    1.5007 O   0  0  0  0  0  0  0  0  0  0  0  0
   -1.1222   -0.6447    0.2217 N   0  0  0  0  0  0  0  0  0  0  0  0
   -1.8592   -0.1777   -0.2863 H   0  0  0  0  0  0  0  0  0  0  0  0
    0.1838    0.0363    0.2367 C   0  0  1  0  0  0  0  0  0  0  0  0
    0.9673   -0.7090    0.1044 H   0  0  0  0  0  0  0  0  0  0  0  0
    0.3089    1.0619   -0.9088 C   0  0  1  0  0  0  0  0  0  0  0  0
    1.2906    1.5304   -0.8413 H   0  0  0  0  0  0  0  0  0  0  0  0
    0.1784    0.4558   -2.3047 C   0  0  0  0  0  0  0  0  0  0  0  0
   -0.8359    0.0887   -2.4663 H   0  0  0  0  0  0  0  0  0  0  0  0
    0.4108    1.2080   -3.0576 H   0  0  0  0  0  0  0  0  0  0  0  0
    0.8763   -0.3753   -2.4102 H   0  0  0  0  0  0  0  0  0  0  0  0
   -0.6700    2.0651   -0.7973 O   0  0  0  0  0  0  0  0  0  0  0  0
   -0.6167    2.6207   -1.5777 H   0  0  0  0  0  0  0  0  0  0  0  0
    0.4277    0.7208    1.5873 C   0  0  0  0  0  0  0  0  0  0  0  0
    0.4793    0.0665    2.6287 O   0  0  0  0  0  0  0  0  0  0  0  0
    0.6094    2.0487    1.5733 N   0  0  0  0  0  0  0  0  0  0  0  0
    0.5753    2.5251    0.6871 H   0  0  0  0  0  0  0  0  0  0  0  0
    0.8533    2.8500    2.7717 C   0  0  0  0  0  0  0  0  0  0  0  0
    1.6956    2.4348    3.3285 H   0  0  0  0  0  0  0  0  0  0  0  0
    1.0766    3.8821    2.5006 H   0  0  0  0  0  0  0  0  0  0  0  0
   -0.0296    2.8286    3.4141 H   0  0  0  0  0  0  0  0  0  0  0  0
  5  6  2  0  0  0  0
  5  7  1  0  0  0  0
  2  3  1  0  0  0  0
  2  4  1  0  0  0  0
  2  5  1  0  0  0  0
  1  2  1  0  0  0  0
 19 20  2  0  0  0  0
 19 21  1  0  0  0  0
 17 18  1  0  0  0  0
 13 14  1  0  0  0  0
 13 15  1  0  0  0  0
 13 16  1  0  0  0  0
 11 12  1  0  0  0  0
 11 13  1  0  0  0  0
 11 17  1  0  0  0  0
  9 10  1  0  0  0  0
  9 11  1  0  0  0  0
  9 19  1  0  0  0  0
  7  8  1  0  0  0  0
  7  9  1  0  0  0  0
 23 24  1  0  0  0  0
 23 25  1  0  0  0  0
 23 26  1  0  0  0  0
 21 22  1  0  0  0  0
 21 23  1  0  0  0  0
M  END
$$$$
default_name
  -OEChem-01062215323D

 26 25  0     1  0  0  0  0  0999 V2000
   -2.8882   -3.2497    1.2537 H   0  0  0  0  0  0  0  0  0  0  0  0
   -2.8032   -2.3157    0.7017 C   0  0  0  0  0  0  0  0  0  0  0  0
   -3.5012   -1.5857    1.1067 H   0  0  0  0  0  0  0  0  0  0  0  0
   -3.0182   -2.4907   -0.3513 H   0  0  0  0  0  0  0  0  0  0  0  0
   -1.3942   -1.7897    0.8407 C   0  0  0  0  0  0  0  0  0  0  0  0
   -0.5672   -2.4077    1.5007 O   0  0  0  0  0  0  0  0  0  0  0  0
   -1.1222   -0.6447    0.2217 N   0  0  0  0  0  0  0  0  0  0  0  0
   -1.8592   -0.1777   -0.2863 H   0  0  0  0  0  0  0  0  0  0  0  0
    0.1838    0.0363    0.2367 C   0  0  1  0  0  0  0  0  0  0  0  0
    0.9673   -0.7090    0.1044 H   0  0  0  0  0  0  0  0  0  0  0  0
    0.3089    1.0619   -0.9088 C   0  0  1  0  0  0  0  0  0  0  0  0
    1.2906    1.5304   -0.8413 H   0  0  0  0  0  0  0  0  0  0  0  0
    0.1784    0.4558   -2.3047 C   0  0  0  0  0  0  0  0  0  0  0  0
   -0.8359    0.0887   -2.4663 H   0  0  0  0  0  0  0  0  0  0  0  0
    0.4108    1.2080   -3.0576 H   0  0  0  0  0  0  0  0  0  0  0  0
    0.8763   -0.3753   -2.4102 H   0  0  0  0  0  0  0  0  0  0  0  0
   -0.6700    2.0651   -0.7973 O   0  0  0  0  0  0  0  0  0  0  0  0
   -0.6167    2.6207   -1.5777 H   0  0  0  0  0  0  0  0  0  0  0  0
    0.4277    0.7208    1.5873 C   0  0  0  0  0  0  0  0  0  0  0  0
    0.7504    0.0673    2.5793 O   0  0  0  0  0  0  0  0  0  0  0  0
    0.3022    2.0547    1.6258 N   0  0  0  0  0  0  0  0  0  0  0  0
    0.0552    2.5348    0.7761 H   0  0  0  0  0  0  0  0  0  0  0  0
    0.5014    2.8571    2.8316 C   0  0  0  0  0  0  0  0  0  0  0  0
    1.4764    2.6317    3.2683 H   0  0  0  0  0  0  0  0  0  0  0  0
    0.4520    3.9199    2.5942 H   0  0  0  0  0  0  0  0  0  0  0  0
   -0.2700    2.6150    3.5657 H   0  0  0  0  0  0  0  0  0  0  0  0
  5  6  2  0  0  0  0
  5  7  1  0  0  0  0
  2  3  1  0  0  0  0
  2  4  1  0  0  0  0
  2  5  1  0  0  0  0
  1  2  1  0  0  0  0
 19 20  2  0  0  0  0
 19 21  1  0  0  0  0
 17 18  1  0  0  0  0
 13 14  1  0  0  0  0
 13 15  1  0  0  0  0
 13 16  1  0  0  0  0
 11 12  1  0  0  0  0
 11 13  1  0  0  0  0
 11 17  1  0  0  0  0
  9 10  1  0  0  0  0
  9 11  1  0  0  0  0
  9 19  1  0  0  0  0
  7  8  1  0  0  0  0
  7  9  1  0  0  0  0
 23 24  1  0  0  0  0
 23 25  1  0  0  0  0
 23 26  1  0  0  0  0
 21 22  1  0  0  0  0
 21 23  1  0  0  0  0
M  END
$$$$
default_name
  -OEChem-01062215323D

 26 25  0     1  0  0  0  0  0999 V2000
   -2.8882   -3.2497    1.2537 H   0  0  0  0  0  0  0  0  0  0  0  0
   -2.8032   -2.3157    0.7017 C   0  0  0  0  0  0  0  0  0  0  0  0
   -3.5012   -1.5857    1.1067 H   0  0  0  0  0  0  0  0  0  0  0  0
   -3.0182   -2.4907   -0.3513 H   0  0  0  0  0  0  0  0  0  0  0  0
   -1.3942   -1.7897    0.8407 C   0  0  0  0  0  0  0  0  0  0  0  0
   -0.5672   -2.4077    1.5007 O   0  0  0  0  0  0  0  0  0  0  0  0
   -1.1222   -0.6447    0.2217 N   0  0  0  0  0  0  0  0  0  0  0  0
   -1.8592   -0.1777   -0.2863 H   0  0  0  0  0  0  0  0  0  0  0  0
    0.1838    0.0363    0.2367 C   0  0  1  0  0  0  0  0  0  0  0  0
    0.9673   -0.7090    0.1044 H   0  0  0  0  0  0  0  0  0  0  0  0
    0.3089    1.0619   -0.9088 C   0  0  1  0  0  0  0  0  0  0  0  0
    1.2906    1.5304   -0.8413 H   0  0  0  0  0  0  0  0  0  0  0  0
    0.1784    0.4558   -2.3047 C   0  0  0  0  0  0  0  0  0  0  0  0
   -0.8359    0.0887   -2.4663 H   0  0  0  0  0  0  0  0  0  0  0  0
    0.4108    1.2080   -3.0576 H   0  0  0  0  0  0  0  0  0  0  0  0
    0.8763   -0.3753   -2.4102 H   0  0  0  0  0  0  0  0  0  0  0  0
   -0.6700    2.0651   -0.7973 O   0  0  0  0  0  0  0  0  0  0  0  0
   -0.6167    2.6207   -1.5777 H   0  0  0  0  0  0  0  0  0  0  0  0
    0.4277    0.7208    1.5873 C   0  0  0  0  0  0  0  0  0  0  0  0
    1.0063    0.1319    2.5004 O   0  0  0  0  0  0  0  0  0  0  0  0
    0.0102    1.9883    1.7121 N   0  0  0  0  0  0  0  0  0  0  0  0
   -0.4391    2.4220    0.9225 H   0  0  0  0  0  0  0  0  0  0  0  0
    0.1669    2.7812    2.9305 C   0  0  0  0  0  0  0  0  0  0  0  0
    1.2129    2.7744    3.2436 H   0  0  0  0  0  0  0  0  0  0  0  0
   -0.1491    3.8102    2.7584 H   0  0  0  0  0  0  0  0  0  0  0  0
   -0.4361    2.3477    3.7312 H   0  0  0  0  0  0  0  0  0  0  0  0
  5  6  2  0  0  0  0
  5  7  1  0  0  0  0
  2  3  1  0  0  0  0
  2  4  1  0  0  0  0
  2  5  1  0  0  0  0
  1  2  1  0  0  0  0
 19 20  2  0  0  0  0
 19 21  1  0  0  0  0
 17 18  1  0  0  0  0
 13 14  1  0  0  0  0
 13 15  1  0  0  0  0
 13 16  1  0  0  0  0
 11 12  1  0  0  0  0
 11 13  1  0  0  0  0
 11 17  1  0  0  0  0
  9 10  1  0  0  0  0
  9 11  1  0  0  0  0
  9 19  1  0  0  0  0
  7  8  1  0  0  0  0
  7  9  1  0  0  0  0
 23 24  1  0  0  0  0
 23 25  1  0  0  0  0
 23 26  1  0  0  0  0
 21 22  1  0  0  0  0
 21 23  1  0  0  0  0
M  END
$$$$
default_name
  -OEChem-01062215323D

 26 25  0     1  0  0  0  0  0999 V2000
   -2.8882   -3.2497    1.2537 H   0  0  0  0  0  0  0  0  0  0  0  0
   -2.8032   -2.3157    0.7017 C   0  0  0  0  0  0  0  0  0  0  0  0
   -3.5012   -1.5857    1.1067 H   0  0  0  0  0  0  0  0  0  0  0  0
   -3.0182   -2.4907   -0.3513 H   0  0  0  0  0  0  0  0  0  0  0  0
   -1.3942   -1.7897    0.8407 C   0  0  0  0  0  0  0  0  0  0  0  0
   -0.5672   -2.4077    1.5007 O   0  0  0  0  0  0  0  0  0  0  0  0
   -1.1222   -0.6447    0.2217 N   0  0  0  0  0  0  0  0  0  0  0  0
   -1.8592   -0.1777   -0.2863 H   0  0  0  0  0  0  0  0  0  0  0  0
    0.1838    0.0363    0.2367 C   0  0  1  0  0  0  0  0  0  0  0  0
    0.9673   -0.7090    0.1044 H   0  0  0  0  0  0  0  0  0  0  0  0
    0.3089    1.0619   -0.9088 C   0  0  1  0  0  0  0  0  0  0  0  0
    1.2906    1.5304   -0.8413 H   0  0  0  0  0  0  0  0  0  0  0  0
    0.1784    0.4558   -2.3047 C   0  0  0  0  0  0  0  0  0  0  0  0
   -0.8359    0.0887   -2.4663 H   0  0  0  0  0  0  0  0  0  0  0  0
    0.4108    1.2080   -3.0576 H   0  0  0  0  0  0  0  0  0  0  0  0
    0.8763   -0.3753   -2.4102 H   0  0  0  0  0  0  0  0  0  0  0  0
   -0.6700    2.0651   -0.7973 O   0  0  0  0  0  0  0  0  0  0  0  0
   -0.6167    2.6207   -1.5777 H   0  0  0  0  0  0  0  0  0  0  0  0
    0.4277    0.7208    1.5873 C   0  0  0  0  0  0  0  0  0  0  0  0
    1.2297    0.2559    2.3972 O   0  0  0  0  0  0  0  0  0  0  0  0
   -0.2468    1.8541    1.8266 N   0  0  0  0  0  0  0  0  0  0  0  0
   -0.8739    2.1944    1.1164 H   0  0  0  0  0  0  0  0  0  0  0  0
   -0.1275    2.6276    3.0615 C   0  0  0  0  0  0  0  0  0  0  0  0
    0.9229    2.8532    3.2560 H   0  0  0  0  0  0  0  0  0  0  0  0
   -0.6858    3.5606    2.9818 H   0  0  0  0  0  0  0  0  0  0  0  0
   -0.5164    2.0448    3.8992 H   0  0  0  0  0  0  0  0  0  0  0  0
  5  6  2  0  0  0  0
  5  7  1  0  0  0  0
  2  3  1  0  0  0  0
  2  4  1  0  0  0  0
  2  5  1  0  0  0  0
  1  2  1  0  0  0  0
 19 20  2  0  0  0  0
 19 21  1  0  0  0  0
 17 18  1  0  0  0  0
 13 14  1  0  0  0  0
 13 15  1  0  0  0  0
 13 16  1  0  0  0  0
 11 12  1  0  0  0  0
 11 13  1  0  0  0  0
 11 17  1  0  0  0  0
  9 10  1  0  0  0  0
  9 11  1  0  0  0  0
  9 19  1  0  0  0  0
  7  8  1  0  0  0  0
  7  9  1  0  0  0  0
 23 24  1  0  0  0  0
 23 25  1  0  0  0  0
 23 26  1  0  0  0  0
 21 22  1  0  0  0  0
 21 23  1  0  0  0  0
M  END
$$$$
default_name
  -OEChem-01062215323D

 26 25  0     1  0  0  0  0  0999 V2000
   -2.8882   -3.2497    1.2537 H   0  0  0  0  0  0  0  0  0  0  0  0
   -2.8032   -2.3157    0.7017 C   0  0  0  0  0  0  0  0  0  0  0  0
   -3.5012   -1.5857    1.1067 H   0  0  0  0  0  0  0  0  0  0  0  0
   -3.0182   -2.4907   -0.3513 H   0  0  0  0  0  0  0  0  0  0  0  0
   -1.3942   -1.7897    0.8407 C   0  0  0  0  0  0  0  0  0  0  0  0
   -0.5672   -2.4077    1.5007 O   0  0  0  0  0  0  0  0  0  0  0  0
   -1.1222   -0.6447    0.2217 N   0  0  0  0  0  0  0  0  0  0  0  0
   -1.8592   -0.1777   -0.2863 H   0  0  0  0  0  0  0  0  0  0  0  0
    0.1838    0.0363    0.2367 C   0  0  1  0  0  0  0  0  0  0  0  0
    0.9673   -0.7090    0.1044 H   0  0  0  0  0  0  0  0  0  0  0  0
    0.3089    1.0619   -0.9088 C   0  0  1  0  0  0  0  0  0  0  0  0
    1.2906    1.5304   -0.8413 H   0  0  0  0  0  0  0  0  0  0  0  0
    0.1784    0.4558   -2.3047 C   0  0  0  0  0  0  0  0  0  0  0  0
   -0.8359    0.0887   -2.4663 H   0  0  0  0  0  0  0  0  0  0  0  0
    0.4108    1.2080   -3.0576 H   0  0  0  0  0  0  0  0  0  0  0  0
    0.8763   -0.3753   -2.4102 H   0  0  0  0  0  0  0  0  0  0  0  0
   -0.6700    2.0651   -0.7973 O   0  0  0  0  0  0  0  0  0  0  0  0
   -0.6167    2.6207   -1.5777 H   0  0  0  0  0  0  0  0  0  0  0  0
    0.4277    0.7208    1.5873 C   0  0  0  0  0  0  0  0  0  0  0  0
    1.4054    0.4308    2.2768 O   0  0  0  0  0  0  0  0  0  0  0  0
   -0.4511    1.6612    1.9613 N   0  0  0  0  0  0  0  0  0  0  0  0
   -1.2196    1.8675    1.3445 H   0  0  0  0  0  0  0  0  0  0  0  0
   -0.3617    2.4067    3.2158 C   0  0  0  0  0  0  0  0  0  0  0  0
    0.6263    2.8627    3.3047 H   0  0  0  0  0  0  0  0  0  0  0  0
   -1.1214    3.1879    3.2494 H   0  0  0  0  0  0  0  0  0  0  0  0
   -0.5055    1.7270    4.0583 H   0  0  0  0  0  0  0  0  0  0  0  0
  5  6  2  0  0  0  0
  5  7  1  0  0  0  0
  2  3  1  0  0  0  0
  2  4  1  0  0  0  0
  2  5  1  0  0  0  0
  1  2  1  0  0  0  0
 19 20  2  0  0  0  0
 19 21  1  0  0  0  0
 17 18  1  0  0  0  0
 13 14  1  0  0  0  0
 13 15  1  0  0  0  0
 13 16  1  0  0  0  0
 11 12  1  0  0  0  0
 11 13  1  0  0  0  0
 11 17  1  0  0  0  0
  9 10  1  0  0  0  0
  9 11  1  0  0  0  0
  9 19  1  0  0  0  0
  7  8  1  0  0  0  0
  7  9  1  0  0  0  0
 23 24  1  0  0  0  0
 23 25  1  0  0  0  0
 23 26  1  0  0  0  0
 21 22  1  0  0  0  0
 21 23  1  0  0  0  0
M  END
$$$$
default_name
  -OEChem-01062215323D

 26 25  0     1  0  0  0  0  0999 V2000
   -2.8882   -3.2497    1.2537 H   0  0  0  0  0  0  0  0  0  0  0  0
   -2.8032   -2.3157    0.7017 C   0  0  0  0  0  0  0  0  0  0  0  0
   -3.5012   -1.5857    1.1067 H   0  0  0  0  0  0  0  0  0  0  0  0
   -3.0182   -2.4907   -0.3513 H   0  0  0  0  0  0  0  0  0  0  0  0
   -1.3942   -1.7897    0.8407 C   0  0  0  0  0  0  0  0  0  0  0  0
   -0.5672   -2.4077    1.5007 O   0  0  0  0  0  0  0  0  0  0  0  0
   -1.1222   -0.6447    0.2217 N   0  0  0  0  0  0  0  0  0  0  0  0
   -1.8592   -0.1777   -0.2863 H   0  0  0  0  0  0  0  0  0  0  0  0
    0.1838    0.0363    0.2367 C   0  0  1  0  0  0  0  0  0  0  0  0
    0.9673   -0.7090    0.1044 H   0  0  0  0  0  0  0  0  0  0  0  0
    0.3089    1.0619   -0.9088 C   0  0  1  0  0  0  0  0  0  0  0  0
    1.2906    1.5304   -0.8413 H   0  0  0  0  0  0  0  0  0  0  0  0
    0.1784    0.4558   -2.3047 C   0  0  0  0  0  0  0  0  0  0  0  0
   -0.8359    0.0887   -2.4663 H   0  0  0  0  0  0  0  0  0  0  0  0
    0.4108    1.2080   -3.0576 H   0  0  0  0  0  0  0  0  0  0  0  0
    0.8763   -0.3753   -2.4102 H   0  0  0  0  0  0  0  0  0  0  0  0
   -0.6700    2.0651   -0.7973 O   0  0  0  0  0  0  0  0  0  0  0  0
   -0.6167    2.6207   -1.5777 H   0  0  0  0  0  0  0  0  0  0  0  0
    0.4277    0.7208    1.5873 C   0  0  0  0  0  0  0  0  0  0  0  0
    1.5212    0.6448    2.1474 O   0  0  0  0  0  0  0  0  0  0  0  0
   -0.5890    1.4227    2.1070 N   0  0  0  0  0  0  0  0  0  0  0  0
   -1.4527    1.4634    1.5914 H   0  0  0  0  0  0  0  0  0  0  0  0
   -0.5198    2.1337    3.3827 C   0  0  0  0  0  0  0  0  0  0  0  0
    0.3433    2.8023    3.3865 H   0  0  0  0  0  0  0  0  0  0  0  0
   -1.4264    2.7175    3.5428 H   0  0  0  0  0  0  0  0  0  0  0  0
   -0.4042    1.4159    4.1977 H   0  0  0  0  0  0  0  0  0  0  0  0
  5  6  2  0  0  0  0
  5  7  1  0  0  0  0
  2  3  1  0  0  0  0
  2  4  1  0  0  0  0
  2  5  1  0  0  0  0
  1  2  1  0  0  0  0
 19 20  2  0  0  0  0
 19 21  1  0  0  0  0
 17 18  1  0  0  0  0
 13 14  1  0  0  0  0
 13 15  1  0  0  0  0
 13 16  1  0  0  0  0
 11 12  1  0  0  0  0
 11 13  1  0  0  0  0
 11 17  1  0  0  0  0
  9 10  1  0  0  0  0
  9 11  1  0  0  0  0
  9 19  1  0  0  0  0
  7  8  1  0  0  0  0
  7  9  1  0  0  0  0
 23 24  1  0  0  0  0
 23 25  1  0  0  0  0
 23 26  1  0  0  0  0
 21 22  1  0  0  0  0
 21 23  1  0  0  0  0
M  END
$$$$
default_name
  -OEChem-01062215323D

 26 25  0     1  0  0  0  0  0999 V2000
   -2.8882   -3.2497    1.2537 H   0  0  0  0  0  0  0  0  0  0  0  0
   -2.8032   -2.3157    0.7017 C   0  0  0  0  0  0  0  0  0  0  0  0
   -3.5012   -1.5857    1.1067 H   0  0  0  0  0  0  0  0  0  0  0  0
   -3.0182   -2.4907   -0.3513 H   0  0  0  0  0  0  0  0  0  0  0  0
   -1.3942   -1.7897    0.8407 C   0  0  0  0  0  0  0  0  0  0  0  0
   -0.5672   -2.4077    1.5007 O   0  0  0  0  0  0  0  0  0  0  0  0
   -1.1222   -0.6447    0.2217 N   0  0  0  0  0  0  0  0  0  0  0  0
   -1.8592   -0.1777   -0.2863 H   0  0  0  0  0  0  0  0  0  0  0  0
    0.1838    0.0363    0.2367 C   0  0  1  0  0  0  0  0  0  0  0  0
    0.9673   -0.7090    0.1044 H   0  0  0  0  0  0  0  0  0  0  0  0
    0.3089    1.0619   -0.9088 C   0  0  1  0  0  0  0  0  0  0  0  0
    1.2906    1.5304   -0.8413 H   0  0  0  0  0  0  0  0  0  0  0  0
    0.1784    0.4558   -2.3047 C   0  0  0  0  0  0  0  0  0  0  0  0
   -0.8359    0.0887   -2.4663 H   0  0  0  0  0  0  0  0  0  0  0  0
    0.4108    1.2080   -3.0576 H   0  0  0  0  0  0  0  0  0  0  0  0
    0.8763   -0.3753   -2.4102 H   0  0  0  0  0  0  0  0  0  0  0  0
   -0.6700    2.0651   -0.7973 O   0  0  0  0  0  0  0  0  0  0  0  0
   -0.6167    2.6207   -1.5777 H   0  0  0  0  0  0  0  0  0  0  0  0
    0.4277    0.7208    1.5873 C   0  0  0  0  0  0  0  0  0  0  0  0
    1.5694    0.8832    2.0179 O   0  0  0  0  0  0  0  0  0  0  0  0
   -0.6510    1.1549    2.2540 N   0  0  0  0  0  0  0  0  0  0  0  0
   -1.5572    1.0099    1.8401 H   0  0  0  0  0  0  0  0  0  0  0  0
   -0.5910    1.8270    3.5510 C   0  0  0  0  0  0  0  0  0  0  0  0
    0.0931    2.6761    3.4956 H   0  0  0  0  0  0  0  0  0  0  0  0
   -1.5799    2.1817    3.8421 H   0  0  0  0  0  0  0  0  0  0  0  0
   -0.2193    1.1328    4.3077 H   0  0  0  0  0  0  0  0  0  0  0  0
  5  6  2  0  0  0  0
  5  7  1  0  0  0  0
  2  3  1  0  0  0  0
  2  4  1  0  0  0  0
  2  5  1  0  0  0  0
  1  2  1  0  0  0  0
 19 20  2  0  0  0  0
 19 21  1  0  0  0  0
 17 18  1  0  0  0  0
 13 14  1  0  0  0  0
 13 15  1  0  0  0  0
 13 16  1  0  0  0  0
 11 12  1  0  0  0  0
 11 13  1  0  0  0  0
 11 17  1  0  0  0  0
  9 10  1  0  0  0  0
  9 11  1  0  0  0  0
  9 19  1  0  0  0  0
  7  8  1  0  0  0  0
  7  9  1  0  0  0  0
 23 24  1  0  0  0  0
 23 25  1  0  0  0  0
 23 26  1  0  0  0  0
 21 22  1  0  0  0  0
 21 23  1  0  0  0  0
M  END
$$$$
default_name
  -OEChem-01062215323D

 26 25  0     1  0  0  0  0  0999 V2000
   -2.8882   -3.2497    1.2537 H   0  0  0  0  0  0  0  0  0  0  0  0
   -2.8032   -2.3157    0.7017 C   0  0  0  0  0  0  0  0  0  0  0  0
   -3.5012   -1.5857    1.1067 H   0  0  0  0  0  0  0  0  0  0  0  0
   -3.0182   -2.4907   -0.3513 H   0  0  0  0  0  0  0  0  0  0  0  0
   -1.3942   -1.7897    0.8407 C   0  0  0  0  0  0  0  0  0  0  0  0
   -0.5672   -2.4077    1.5007 O   0  0  0  0  0  0  0  0  0  0  0  0
   -1.1222   -0.6447    0.2217 N   0  0  0  0  0  0  0  0  0  0  0  0
   -1.8592   -0.1777   -0.2863 H   0  0  0  0  0  0  0  0  0  0  0  0
    0.1838    0.0363    0.2367 C   0  0  1  0  0  0  0  0  0  0  0  0
    0.9673   -0.7090    0.1044 H   0  0  0  0  0  0  0  0  0  0  0  0
    0.3089    1.0619   -0.9088 C   0  0  1  0  0  0  0  0  0  0  0  0
    1.2906    1.5304   -0.8413 H   0  0  0  0  0  0  0  0  0  0  0  0
    0.1784    0.4558   -2.3047 C   0  0  0  0  0  0  0  0  0  0  0  0
   -0.8359    0.0887   -2.4663 H   0  0  0  0  0  0  0  0  0  0  0  0
    0.4108    1.2080   -3.0576 H   0  0  0  0  0  0  0  0  0  0  0  0
    0.8763   -0.3753   -2.4102 H   0  0  0  0  0  0  0  0  0  0  0  0
   -0.6700    2.0651   -0.7973 O   0  0  0  0  0  0  0  0  0  0  0  0
   -0.6167    2.6207   -1.5777 H   0  0  0  0  0  0  0  0  0  0  0  0
    0.4277    0.7208    1.5873 C   0  0  0  0  0  0  0  0  0  0  0  0
    1.5467    1.1298    1.8971 O   0  0  0  0  0  0  0  0  0  0  0  0
   -0.6329    0.8760    2.3920 N   0  0  0  0  0  0  0  0  0  0  0  0
   -1.5261    0.5378    2.0738 H   0  0  0  0  0  0  0  0  0  0  0  0
   -0.5704    1.5076    3.7091 C   0  0  0  0  0  0  0  0  0  0  0  0
   -0.1072    2.4927    3.6248 H   0  0  0  0  0  0  0  0  0  0  0  0
   -1.5714    1.6167    4.1269 H   0  0  0  0  0  0  0  0  0  0  0  0
    0.0365    0.8970    4.3811 H   0  0  0  0  0  0  0  0  0  0  0  0
  5  6  2  0  0  0  0
  5  7  1  0  0  0  0
  2  3  1  0  0  0  0
  2  4  1  0  0  0  0
  2  5  1  0  0  0  0
  1  2  1  0  0  0  0
 19 20  2  0  0  0  0
 19 21  1  0  0  0  0
 17 18  1  0  0  0  0
 13 14  1  0  0  0  0
 13 15  1  0  0  0  0
 13 16  1  0  0  0  0
 11 12  1  0  0  0  0
 11 13  1  0  0  0  0
 11 17  1  0  0  0  0
  9 10  1  0  0  0  0
  9 11  1  0  0  0  0
  9 19  1  0  0  0  0
  7  8  1  0  0  0  0
  7  9  1  0  0  0  0
 23 24  1  0  0  0  0
 23 25  1  0  0  0  0
 23 26  1  0  0  0  0
 21 22  1  0  0  0  0
 21 23  1  0  0  0  0
M  END
$$$$
default_name
  -OEChem-01062215323D

 26 25  0     1  0  0  0  0  0999 V2000
   -2.8882   -3.2497    1.2537 H   0  0  0  0  0  0  0  0  0  0  0  0
   -2.8032   -2.3157    0.7017 C   0  0  0  0  0  0  0  0  0  0  0  0
   -3.5012   -1.5857    1.1067 H   0  0  0  0  0  0  0  0  0  0  0  0
   -3.0182   -2.4907   -0.3513 H   0  0  0  0  0  0  0  0  0  0  0  0
   -1.3942   -1.7897    0.8407 C   0  0  0  0  0  0  0  0  0  0  0  0
   -0.5672   -2.4077    1.5007 O   0  0  0  0  0  0  0  0  0  0  0  0
   -1.1222   -0.6447    0.2217 N   0  0  0  0  0  0  0  0  0  0  0  0
   -1.8592   -0.1777   -0.2863 H   0  0  0  0  0  0  0  0  0  0  0  0
    0.1838    0.0363    0.2367 C   0  0  1  0  0  0  0  0  0  0  0  0
    0.9673   -0.7090    0.1044 H   0  0  0  0  0  0  0  0  0  0  0  0
    0.3089    1.0619   -0.9088 C   0  0  1  0  0  0  0  0  0  0  0  0
    1.2906    1.5304   -0.8413 H   0  0  0  0  0  0  0  0  0  0  0  0
    0.1784    0.4558   -2.3047 C   0  0  0  0  0  0  0  0  0  0  0  0
   -0.8359    0.0887   -2.4663 H   0  0  0  0  0  0  0  0  0  0  0  0
    0.4108    1.2080   -3.0576 H   0  0  0  0  0  0  0  0  0  0  0  0
    0.8763   -0.3753   -2.4102 H   0  0  0  0  0  0  0  0  0  0  0  0
   -0.6700    2.0651   -0.7973 O   0  0  0  0  0  0  0  0  0  0  0  0
   -0.6167    2.6207   -1.5777 H   0  0  0  0  0  0  0  0  0  0  0  0
    0.4277    0.7208    1.5873 C   0  0  0  0  0  0  0  0  0  0  0  0
    1.4545    1.3677    1.7931 O   0  0  0  0  0  0  0  0  0  0  0  0
   -0.5359    0.6051    2.5118 N   0  0  0  0  0  0  0  0  0  0  0  0
   -1.3614    0.0792    2.2764 H   0  0  0  0  0  0  0  0  0  0  0  0
   -0.4595    1.1973    3.8464 C   0  0  0  0  0  0  0  0  0  0  0  0
   -0.2440    2.2645    3.7651 H   0  0  0  0  0  0  0  0  0  0  0  0
   -1.4016    1.0613    4.3777 H   0  0  0  0  0  0  0  0  0  0  0  0
    0.3458    0.7245    4.4126 H   0  0  0  0  0  0  0  0  0  0  0  0
  5  6  2  0  0  0  0
  5  7  1  0  0  0  0
  2  3  1  0  0  0  0
  2  4  1  0  0  0  0
  2  5  1  0  0  0  0
  1  2  1  0  0  0  0
 19 20  2  0  0  0  0
 19 21  1  0  0  0  0
 17 18  1  0  0  0  0
 13 14  1  0  0  0  0
 13 15  1  0  0  0  0
 13 16  1  0  0  0  0
 11 12  1  0  0  0  0
 11 13  1  0  0  0  0
 11 17  1  0  0  0  0
  9 10  1  0  0  0  0
  9 11  1  0  0  0  0
  9 19  1  0  0  0  0
  7  8  1  0  0  0  0
  7  9  1  0  0  0  0
 23 24  1  0  0  0  0
 23 25  1  0  0  0  0
 23 26  1  0  0  0  0
 21 22  1  0  0  0  0
 21 23  1  0  0  0  0
M  END
$$$$
default_name
  -OEChem-01062215323D

 26 25  0     1  0  0  0  0  0999 V2000
   -2.8882   -3.2497    1.2537 H   0  0  0  0  0  0  0  0  0  0  0  0
   -2.8032   -2.3157    0.7017 C   0  0  0  0  0  0  0  0  0  0  0  0
   -3.5012   -1.5857    1.1067 H   0  0  0  0  0  0  0  0  0  0  0  0
   -3.0182   -2.4907   -0.3513 H   0  0  0  0  0  0  0  0  0  0  0  0
   -1.3942   -1.7897    0.8407 C   0  0  0  0  0  0  0  0  0  0  0  0
   -0.5672   -2.4077    1.5007 O   0  0  0  0  0  0  0  0  0  0  0  0
   -1.1222   -0.6447    0.2217 N   0  0  0  0  0  0  0  0  0  0  0  0
   -1.8592   -0.1777   -0.2863 H   0  0  0  0  0  0  0  0  0  0  0  0
    0.1838    0.0363    0.2367 C   0  0  1  0  0  0  0  0  0  0  0  0
    0.9673   -0.7090    0.1044 H   0  0  0  0  0  0  0  0  0  0  0  0
    0.3089    1.0619   -0.9088 C   0  0  1  0  0  0  0  0  0  0  0  0
    1.2906    1.5304   -0.8413 H   0  0  0  0  0  0  0  0  0  0  0  0
    0.1784    0.4558   -2.3047 C   0  0  0  0  0  0  0  0  0  0  0  0
   -0.8359    0.0887   -2.4663 H   0  0  0  0  0  0  0  0  0  0  0  0
    0.4108    1.2080   -3.0576 H   0  0  0  0  0  0  0  0  0  0  0  0
    0.8763   -0.3753   -2.4102 H   0  0  0  0  0  0  0  0  0  0  0  0
   -0.6700    2.0651   -0.7973 O   0  0  0  0  0  0  0  0  0  0  0  0
   -0.6167    2.6207   -1.5777 H   0  0  0  0  0  0  0  0  0  0  0  0
    0.4277    0.7208    1.5873 C   0  0  0  0  0  0  0  0  0  0  0  0
    1.2993    1.5809    1.7131 O   0  0  0  0  0  0  0  0  0  0  0  0
   -0.3666    0.3606    2.6051 N   0  0  0  0  0  0  0  0  0  0  0  0
   -1.0745   -0.3345    2.4343 H   0  0  0  0  0  0  0  0  0  0  0  0
   -0.2657    0.9172    3.9533 C   0  0  0  0  0  0  0  0  0  0  0  0
   -0.3078    2.0072    3.9070 H   0  0  0  0  0  0  0  0  0  0  0  0
   -1.0820    0.5531    4.5776 H   0  0  0  0  0  0  0  0  0  0  0  0
    0.6875    0.6270    4.4003 H   0  0  0  0  0  0  0  0  0  0  0  0
  5  6  2  0  0  0  0
  5  7  1  0  0  0  0
  2  3  1  0  0  0  0
  2  4  1  0  0  0  0
  2  5  1  0  0  0  0
  1  2  1  0  0  0  0
 19 20  2  0  0  0  0
 19 21  1  0  0  0  0
 17 18  1  0  0  0  0
 13 14  1  0  0  0  0
 13 15  1  0  0  0  0
 13 16  1  0  0  0  0
 11 12  1  0  0  0  0
 11 13  1  0  0  0  0
 11 17  1  0  0  0  0
  9 10  1  0  0  0  0
  9 11  1  0  0  0  0
  9 19  1  0  0  0  0
  7  8  1  0  0  0  0
  7  9  1  0  0  0  0
 23 24  1  0  0  0  0
 23 25  1  0  0  0  0
 23 26  1  0  0  0  0
 21 22  1  0  0  0  0
 21 23  1  0  0  0  0
M  END
$$$$
default_name
  -OEChem-01062215323D

 26 25  0     1  0  0  0  0  0999 V2000
   -2.8882   -3.2497    1.2537 H   0  0  0  0  0  0  0  0  0  0  0  0
   -2.8032   -2.3157    0.7017 C   0  0  0  0  0  0  0  0  0  0  0  0
   -3.5012   -1.5857    1.1067 H   0  0  0  0  0  0  0  0  0  0  0  0
   -3.0182   -2.4907   -0.3513 H   0  0  0  0  0  0  0  0  0  0  0  0
   -1.3942   -1.7897    0.8407 C   0  0  0  0  0  0  0  0  0  0  0  0
   -0.5672   -2.4077    1.5007 O   0  0  0  0  0  0  0  0  0  0  0  0
   -1.1222   -0.6447    0.2217 N   0  0  0  0  0  0  0  0  0  0  0  0
   -1.8592   -0.1777   -0.2863 H   0  0  0  0  0  0  0  0  0  0  0  0
    0.1838    0.0363    0.2367 C   0  0  1  0  0  0  0  0  0  0  0  0
    0.9673   -0.7090    0.1044 H   0  0  0  0  0  0  0  0  0  0  0  0
    0.3089    1.0619   -0.9088 C   0  0  1  0  0  0  0  0  0  0  0  0
    1.2906    1.5304   -0.8413 H   0  0  0  0  0  0  0  0  0  0  0  0
    0.1784    0.4558   -2.3047 C   0  0  0  0  0  0  0  0  0  0  0  0
   -0.8359    0.0887   -2.4663 H   0  0  0  0  0  0  0  0  0  0  0  0
    0.4108    1.2080   -3.0576 H   0  0  0  0  0  0  0  0  0  0  0  0
    0.8763   -0.3753   -2.4102 H   0  0  0  0  0  0  0  0  0  0  0  0
   -0.6700    2.0651   -0.7973 O   0  0  0  0  0  0  0  0  0  0  0  0
   -0.6167    2.6207   -1.5777 H   0  0  0  0  0  0  0  0  0  0  0  0
    0.4277    0.7208    1.5873 C   0  0  0  0  0  0  0  0  0  0  0  0
    1.0915    1.7547    1.6626 O   0  0  0  0  0  0  0  0  0  0  0  0
   -0.1366    0.1592    2.6656 N   0  0  0  0  0  0  0  0  0  0  0  0
   -0.6847   -0.6753    2.5366 H   0  0  0  0  0  0  0  0  0  0  0  0
   -0.0024    0.6864    4.0227 C   0  0  0  0  0  0  0  0  0  0  0  0
   -0.2945    1.7383    4.0409 H   0  0  0  0  0  0  0  0  0  0  0  0
   -0.6343    0.1269    4.7127 H   0  0  0  0  0  0  0  0  0  0  0  0
    1.0384    0.6113    4.3449 H   0  0  0  0  0  0  0  0  0  0  0  0
  5  6  2  0  0  0  0
  5  7  1  0  0  0  0
  2  3  1  0  0  0  0
  2  4  1  0  0  0  0
  2  5  1  0  0  0  0
  1  2  1  0  0  0  0
 19 20  2  0  0  0  0
 19 21  1  0  0  0  0
 17 18  1  0  0  0  0
 13 14  1  0  0  0  0
 13 15  1  0  0  0  0
 13 16  1  0  0  0  0
 11 12  1  0  0  0  0
 11 13  1  0  0  0  0
 11 17  1  0  0  0  0
  9 10  1  0  0  0  0
  9 11  1  0  0  0  0
  9 19  1  0  0  0  0
  7  8  1  0  0  0  0
  7  9  1  0  0  0  0
 23 24  1  0  0  0  0
 23 25  1  0  0  0  0
 23 26  1  0  0  0  0
 21 22  1  0  0  0  0
 21 23  1  0  0  0  0
M  END
$$$$
default_name
  -OEChem-01062215323D

 26 25  0     1  0  0  0  0  0999 V2000
   -2.8882   -3.2497    1.2537 H   0  0  0  0  0  0  0  0  0  0  0  0
   -2.8032   -2.3157    0.7017 C   0  0  0  0  0  0  0  0  0  0  0  0
   -3.5012   -1.5857    1.1067 H   0  0  0  0  0  0  0  0  0  0  0  0
   -3.0182   -2.4907   -0.3513 H   0  0  0  0  0  0  0  0  0  0  0  0
   -1.3942   -1.7897    0.8407 C   0  0  0  0  0  0  0  0  0  0  0  0
   -0.5672   -2.4077    1.5007 O   0  0  0  0  0  0  0  0  0  0  0  0
   -1.1222   -0.6447    0.2217 N   0  0  0  0  0  0  0  0  0  0  0  0
   -1.8592   -0.1777   -0.2863 H   0  0  0  0  0  0  0  0  0  0  0  0
    0.1838    0.0363    0.2367 C   0  0  1  0  0  0  0  0  0  0  0  0
    0.9673   -0.7090    0.1044 H   0  0  0  0  0  0  0  0  0  0  0  0
    0.3089    1.0619   -0.9088 C   0  0  1  0  0  0  0  0  0  0  0  0
    1.2906    1.5304   -0.8413 H   0  0  0  0  0  0  0  0  0  0  0  0
    0.1784    0.4558   -2.3047 C   0  0  0  0  0  0  0  0  0  0  0  0
   -0.8359    0.0887   -2.4663 H   0  0  0  0  0  0  0  0  0  0  0  0
    0.4108    1.2080   -3.0576 H   0  0  0  0  0  0  0  0  0  0  0  0
    0.8763   -0.3753   -2.4102 H   0  0  0  0  0  0  0  0  0  0  0  0
   -0.6700    2.0651   -0.7973 O   0  0  0  0  0  0  0  0  0  0  0  0
   -0.6167    2.6207   -1.5777 H   0  0  0  0  0  0  0  0  0  0  0  0
    0.4277    0.7208    1.5873 C   0  0  0  0  0  0  0  0  0  0  0  0
    0.8454    1.8773    1.6449 O   0  0  0  0  0  0  0  0  0  0  0  0
    0.1385    0.0146    2.6892 N   0  0  0  0  0  0  0  0  0  0  0  0
   -0.2188   -0.9198    2.5764 H   0  0  0  0  0  0  0  0  0  0  0  0
    0.3126    0.5206    4.0499 C   0  0  0  0  0  0  0  0  0  0  0  0
   -0.2048    1.4760    4.1576 H   0  0  0  0  0  0  0  0  0  0  0  0
   -0.0892   -0.1883    4.7740 H   0  0  0  0  0  0  0  0  0  0  0  0
    1.3745    0.6784    4.2502 H   0  0  0  0  0  0  0  0  0  0  0  0
  5  6  2  0  0  0  0
  5  7  1  0  0  0  0
  2  3  1  0  0  0  0
  2  4  1  0  0  0  0
  2  5  1  0  0  0  0
  1  2  1  0  0  0  0
 19 20  2  0  0  0  0
 19 21  1  0  0  0  0
 17 18  1  0  0  0  0
 13 14  1  0  0  0  0
 13 15  1  0  0  0  0
 13 16  1  0  0  0  0
 11 12  1  0  0  0  0
 11 13  1  0  0  0  0
 11 17  1  0  0  0  0
  9 10  1  0  0  0  0
  9 11  1  0  0  0  0
  9 19  1  0  0  0  0
  7  8  1  0  0  0  0
  7  9  1  0  0  0  0
 23 24  1  0  0  0  0
 23 25  1  0  0  0  0
 23 26  1  0  0  0  0
 21 22  1  0  0  0  0
 21 23  1  0  0  0  0
M  END
$$$$
default_name
  -OEChem-01062215323D

 26 25  0     1  0  0  0  0  0999 V2000
   -2.8882   -3.2497    1.2537 H   0  0  0  0  0  0  0  0  0  0  0  0
   -2.8032   -2.3157    0.7017 C   0  0  0  0  0  0  0  0  0  0  0  0
   -3.5012   -1.5857    1.1067 H   0  0  0  0  0  0  0  0  0  0  0  0
   -3.0182   -2.4907   -0.3513 H   0  0  0  0  0  0  0  0  0  0  0  0
   -1.3942   -1.7897    0.8407 C   0  0  0  0  0  0  0  0  0  0  0  0
   -0.5672   -2.4077    1.5007 O   0  0  0  0  0  0  0  0  0  0  0  0
   -1.1222   -0.6447    0.2217 N   0  0  0  0  0  0  0  0  0  0  0  0
   -1.8592   -0.1777   -0.2863 H   0  0  0  0  0  0  0  0  0  0  0  0
    0.1838    0.0363    0.2367 C   0  0  1  0  0  0  0  0  0  0  0  0
    0.9673   -0.7090    0.1044 H   0  0  0  0  0  0  0  0  0  0  0  0
    0.3089    1.0619   -0.9088 C   0  0  1  0  0  0  0  0  0  0  0  0
    1.2906    1.5304   -0.8413 H   0  0  0  0  0  0  0  0  0  0  0  0
    0.1784    0.4558   -2.3047 C   0  0  0  0  0  0  0  0  0  0  0  0
   -0.8359    0.0887   -2.4663 H   0  0  0  0  0  0  0  0  0  0  0  0
    0.4108    1.2080   -3.0576 H   0  0  0  0  0  0  0  0  0  0  0  0
    0.8763   -0.3753   -2.4102 H   0  0  0  0  0  0  0  0  0  0  0  0
   -0.6700    2.0651   -0.7973 O   0  0  0  0  0  0  0  0  0  0  0  0
   -0.6167    2.6207   -1.5777 H   0  0  0  0  0  0  0  0  0  0  0  0
    0.4277    0.7208    1.5873 C   0  0  0  0  0  0  0  0  0  0  0  0
    0.5776    1.9403    1.6613 O   0  0  0  0  0  0  0  0  0  0  0  0
    0.4399   -0.0633    2.6743 N   0  0  0  0  0  0  0  0  0  0  0  0
    0.2916   -1.0514    2.5509 H   0  0  0  0  0  0  0  0  0  0  0  0
    0.6578    0.4312    4.0329 C   0  0  0  0  0  0  0  0  0  0  0  0
   -0.0449    1.2383    4.2492 H   0  0  0  0  0  0  0  0  0  0  0  0
    0.5163   -0.3711    4.7573 H   0  0  0  0  0  0  0  0  0  0  0  0
    1.6729    0.8237    4.1227 H   0  0  0  0  0  0  0  0  0  0  0  0
  5  6  2  0  0  0  0
  5  7  1  0  0  0  0
  2  3  1  0  0  0  0
  2  4  1  0  0  0  0
  2  5  1  0  0  0  0
  1  2  1  0  0  0  0
 19 20  2  0  0  0  0
 19 21  1  0  0  0  0
 17 18  1  0  0  0  0
 13 14  1  0  0  0  0
 13 15  1  0  0  0  0
 13 16  1  0  0  0  0
 11 12  1  0  0  0  0
 11 13  1  0  0  0  0
 11 17  1  0  0  0  0
  9 10  1  0  0  0  0
  9 11  1  0  0  0  0
  9 19  1  0  0  0  0
  7  8  1  0  0  0  0
  7  9  1  0  0  0  0
 23 24  1  0  0  0  0
 23 25  1  0  0  0  0
 23 26  1  0  0  0  0
 21 22  1  0  0  0  0
 21 23  1  0  0  0  0
M  END
$$$$
default_name
  -OEChem-01062215323D

 26 25  0     1  0  0  0  0  0999 V2000
   -2.8882   -3.2497    1.2537 H   0  0  0  0  0  0  0  0  0  0  0  0
   -2.8032   -2.3157    0.7017 C   0  0  0  0  0  0  0  0  0  0  0  0
   -3.5012   -1.5857    1.1067 H   0  0  0  0  0  0  0  0  0  0  0  0
   -3.0182   -2.4907   -0.3513 H   0  0  0  0  0  0  0  0  0  0  0  0
   -1.3942   -1.7897    0.8407 C   0  0  0  0  0  0  0  0  0  0  0  0
   -0.5672   -2.4077    1.5007 O   0  0  0  0  0  0  0  0  0  0  0  0
   -1.1222   -0.6447    0.2217 N   0  0  0  0  0  0  0  0  0  0  0  0
   -1.8592   -0.1777   -0.2863 H   0  0  0  0  0  0  0  0  0  0  0  0
    0.1838    0.0363    0.2367 C   0  0  1  0  0  0  0  0  0  0  0  0
    0.9673   -0.7090    0.1044 H   0  0  0  0  0  0  0  0  0  0  0  0
    0.3089    1.0619   -0.9088 C   0  0  1  0  0  0  0  0  0  0  0  0
    1.2906    1.5304   -0.8413 H   0  0  0  0  0  0  0  0  0  0  0  0
    0.1784    0.4558   -2.3047 C   0  0  0  0  0  0  0  0  0  0  0  0
   -0.8359    0.0887   -2.4663 H   0  0  0  0  0  0  0  0  0  0  0  0
    0.4108    1.2080   -3.0576 H   0  0  0  0  0  0  0  0  0  0  0  0
    0.8763   -0.3753   -2.4102 H   0  0  0  0  0  0  0  0  0  0  0  0
   -0.6700    2.0651   -0.7973 O   0  0  0  0  0  0  0  0  0  0  0  0
   -0.6167    2.6207   -1.5777 H   0  0  0  0  0  0  0  0  0  0  0  0
    0.4277    0.7208    1.5873 C   0  0  0  0  0  0  0  0  0  0  0  0
    0.3065    1.9395    1.7107 O   0  0  0  0  0  0  0  0  0  0  0  0
    0.7470   -0.0693    2.6219 N   0  0  0  0  0  0  0  0  0  0  0  0
    0.8117   -1.0612    2.4619 H   0  0  0  0  0  0  0  0  0  0  0  0
    1.0096    0.4241    3.9729 C   0  0  0  0  0  0  0  0  0  0  0  0
    0.1743    1.0414    4.3094 H   0  0  0  0  0  0  0  0  0  0  0  0
    1.1409   -0.4090    4.6637 H   0  0  0  0  0  0  0  0  0  0  0  0
    1.9133    1.0373    3.9710 H   0  0  0  0  0  0  0  0  0  0  0  0
  5  6  2  0  0  0  0
  5  7  1  0  0  0  0
  2  3  1  0  0  0  0
  2  4  1  0  0  0  0
  2  5  1  0  0  0  0
  1  2  1  0  0  0  0
 19 20  2  0  0  0  0
 19 21  1  0  0  0  0
 17 18  1  0  0  0  0
 13 14  1  0  0  0  0
 13 15  1  0  0  0  0
 13 16  1  0  0  0  0
 11 12  1  0  0  0  0
 11 13  1  0  0  0  0
 11 17  1  0  0  0  0
  9 10  1  0  0  0  0
  9 11  1  0  0  0  0
  9 19  1  0  0  0  0
  7  8  1  0  0  0  0
  7  9  1  0  0  0  0
 23 24  1  0  0  0  0
 23 25  1  0  0  0  0
 23 26  1  0  0  0  0
 21 22  1  0  0  0  0
 21 23  1  0  0  0  0
M  END
$$$$
default_name
  -OEChem-01062215323D

 26 25  0     1  0  0  0  0  0999 V2000
   -2.8882   -3.2497    1.2537 H   0  0  0  0  0  0  0  0  0  0  0  0
   -2.8032   -2.3157    0.7017 C   0  0  0  0  0  0  0  0  0  0  0  0
   -3.5012   -1.5857    1.1067 H   0  0  0  0  0  0  0  0  0  0  0  0
   -3.0182   -2.4907   -0.3513 H   0  0  0  0  0  0  0  0  0  0  0  0
   -1.3942   -1.7897    0.8407 C   0  0  0  0  0  0  0  0  0  0  0  0
   -0.5672   -2.4077    1.5007 O   0  0  0  0  0  0  0  0  0  0  0  0
   -1.1222   -0.6447    0.2217 N   0  0  0  0  0  0  0  0  0  0  0  0
   -1.8592   -0.1777   -0.2863 H   0  0  0  0  0  0  0  0  0  0  0  0
    0.1838    0.0363    0.2367 C   0  0  1  0  0  0  0  0  0  0  0  0
    0.9673   -0.7090    0.1044 H   0  0  0  0  0  0  0  0  0  0  0  0
    0.3089    1.0619   -0.9088 C   0  0  1  0  0  0  0  0  0  0  0  0
    1.2906    1.5304   -0.8413 H   0  0  0  0  0  0  0  0  0  0  0  0
    0.1784    0.4558   -2.3047 C   0  0  0  0  0  0  0  0  0  0  0  0
   -0.8359    0.0887   -2.4663 H   0  0  0  0  0  0  0  0  0  0  0  0
    0.4108    1.2080   -3.0576 H   0  0  0  0  0  0  0  0  0  0  0  0
    0.8763   -0.3753   -2.4102 H   0  0  0  0  0  0  0  0  0  0  0  0
   -0.6700    2.0651   -0.7973 O   0  0  0  0  0  0  0  0  0  0  0  0
   -0.6167    2.6207   -1.5777 H   0  0  0  0  0  0  0  0  0  0  0  0
    0.4277    0.7208    1.5873 C   0  0  0  0  0  0  0  0  0  0  0  0
    0.0506    1.8749    1.7896 O   0  0  0  0  0  0  0  0  0  0  0  0
    1.0391   -0.0029    2.5355 N   0  0  0  0  0  0  0  0  0  0  0  0
    1.3060   -0.9484    2.3155 H   0  0  0  0  0  0  0  0  0  0  0  0
    1.3441    0.5000    3.8740 C   0  0  0  0  0  0  0  0  0  0  0  0
    0.4378    0.8987    4.3342 H   0  0  0  0  0  0  0  0  0  0  0  0
    1.7420   -0.2993    4.4995 H   0  0  0  0  0  0  0  0  0  0  0  0
    2.0793    1.3046    3.8055 H   0  0  0  0  0  0  0  0  0  0  0  0
  5  6  2  0  0  0  0
  5  7  1  0  0  0  0
  2  3  1  0  0  0  0
  2  4  1  0  0  0  0
  2  5  1  0  0  0  0
  1  2  1  0  0  0  0
 19 20  2  0  0  0  0
 19 21  1  0  0  0  0
 17 18  1  0  0  0  0
 13 14  1  0  0  0  0
 13 15  1  0  0  0  0
 13 16  1  0  0  0  0
 11 12  1  0  0  0  0
 11 13  1  0  0  0  0
 11 17  1  0  0  0  0
  9 10  1  0  0  0  0
  9 11  1  0  0  0  0
  9 19  1  0  0  0  0
  7  8  1  0  0  0  0
  7  9  1  0  0  0  0
 23 24  1  0  0  0  0
 23 25  1  0  0  0  0
 23 26  1  0  0  0  0
 21 22  1  0  0  0  0
 21 23  1  0  0  0  0
M  END
$$$$
default_name
  -OEChem-01062215323D

 26 25  0     1  0  0  0  0  0999 V2000
   -2.8882   -3.2497    1.2537 H   0  0  0  0  0  0  0  0  0  0  0  0
   -2.8032   -2.3157    0.7017 C   0  0  0  0  0  0  0  0  0  0  0  0
   -3.5012   -1.5857    1.1067 H   0  0  0  0  0  0  0  0  0  0  0  0
   -3.0182   -2.4907   -0.3513 H   0  0  0  0  0  0  0  0  0  0  0  0
   -1.3942   -1.7897    0.8407 C   0  0  0  0  0  0  0  0  0  0  0  0
   -0.5672   -2.4077    1.5007 O   0  0  0  0  0  0  0  0  0  0  0  0
   -1.1222   -0.6447    0.2217 N   0  0  0  0  0  0  0  0  0  0  0  0
   -1.8592   -0.1777   -0.2863 H   0  0  0  0  0  0  0  0  0  0  0  0
    0.1838    0.0363    0.2367 C   0  0  1  0  0  0  0  0  0  0  0  0
    0.9673   -0.7090    0.1044 H   0  0  0  0  0  0  0  0  0  0  0  0
    0.3089    1.0619   -0.9088 C   0  0  1  0  0  0  0  0  0  0  0  0
    1.2906    1.5304   -0.8413 H   0  0  0  0  0  0  0  0  0  0  0  0
    0.1784    0.4558   -2.3047 C   0  0  0  0  0  0  0  0  0  0  0  0
   -0.8359    0.0887   -2.4663 H   0  0  0  0  0  0  0  0  0  0  0  0
    0.4108    1.2080   -3.0576 H   0  0  0  0  0  0  0  0  0  0  0  0
    0.8763   -0.3753   -2.4102 H   0  0  0  0  0  0  0  0  0  0  0  0
   -0.6700    2.0651   -0.7973 O   0  0  0  0  0  0  0  0  0  0  0  0
   -0.6167    2.6207   -1.5777 H   0  0  0  0  0  0  0  0  0  0  0  0
    0.4277    0.7208    1.5873 C   0  0  0  0  0  0  0  0  0  0  0  0
   -0.1729    1.7509    1.8928 O   0  0  0  0  0  0  0  0  0  0  0  0
    1.2960    0.1313    2.4211 N   0  0  0  0  0  0  0  0  0  0  0  0
    1.7408   -0.7207    2.1216 H   0  0  0  0  0  0  0  0  0  0  0  0
    1.6385    0.6536    3.7430 C   0  0  0  0  0  0  0  0  0  0  0  0
    0.7278    0.8198    4.3218 H   0  0  0  0  0  0  0  0  0  0  0  0
    2.2787   -0.0496    4.2761 H   0  0  0  0  0  0  0  0  0  0  0  0
    2.1596    1.6075    3.6375 H   0  0  0  0  0  0  0  0  0  0  0  0
  5  6  2  0  0  0  0
  5  7  1  0  0  0  0
  2  3  1  0  0  0  0
  2  4  1  0  0  0  0
  2  5  1  0  0  0  0
  1  2  1  0  0  0  0
 19 20  2  0  0  0  0
 19 21  1  0  0  0  0
 17 18  1  0  0  0  0
 13 14  1  0  0  0  0
 13 15  1  0  0  0  0
 13 16  1  0  0  0  0
 11 12  1  0  0  0  0
 11 13  1  0  0  0  0
 11 17  1  0  0  0  0
  9 10  1  0  0  0  0
  9 11  1  0  0  0  0
  9 19  1  0  0  0  0
  7  8  1  0  0  0  0
  7  9  1  0  0  0  0
 23 24  1  0  0  0  0
 23 25  1  0  0  0  0
 23 26  1  0  0  0  0
 21 22  1  0  0  0  0
 21 23  1  0  0  0  0
M  END
$$$$
default_name
  -OEChem-01062215323D

 26 25  0     1  0  0  0  0  0999 V2000
   -2.8882   -3.2497    1.2537 H   0  0  0  0  0  0  0  0  0  0  0  0
   -2.8032   -2.3157    0.7017 C   0  0  0  0  0  0  0  0  0  0  0  0
   -3.5012   -1.5857    1.1067 H   0  0  0  0  0  0  0  0  0  0  0  0
   -3.0182   -2.4907   -0.3513 H   0  0  0  0  0  0  0  0  0  0  0  0
   -1.3942   -1.7897    0.8407 C   0  0  0  0  0  0  0  0  0  0  0  0
   -0.5672   -2.4077    1.5007 O   0  0  0  0  0  0  0  0  0  0  0  0
   -1.1222   -0.6447    0.2217 N   0  0  0  0  0  0  0  0  0  0  0  0
   -1.8592   -0.1777   -0.2863 H   0  0  0  0  0  0  0  0  0  0  0  0
    0.1838    0.0363    0.2367 C   0  0  1  0  0  0  0  0  0  0  0  0
    0.9673   -0.7090    0.1044 H   0  0  0  0  0  0  0  0  0  0  0  0
    0.3089    1.0619   -0.9088 C   0  0  1  0  0  0  0  0  0  0  0  0
    1.2906    1.5304   -0.8413 H   0  0  0  0  0  0  0  0  0  0  0  0
    0.1784    0.4558   -2.3047 C   0  0  0  0  0  0  0  0  0  0  0  0
   -0.8359    0.0887   -2.4663 H   0  0  0  0  0  0  0  0  0  0  0  0
    0.4108    1.2080   -3.0576 H   0  0  0  0  0  0  0  0  0  0  0  0
    0.8763   -0.3753   -2.4102 H   0  0  0  0  0  0  0  0  0  0  0  0
   -0.6700    2.0651   -0.7973 O   0  0  0  0  0  0  0  0  0  0  0  0
   -0.6167    2.6207   -1.5777 H   0  0  0  0  0  0  0  0  0  0  0  0
    0.4277    0.7208    1.5873 C   0  0  0  0  0  0  0  0  0  0  0  0
   -0.3485    1.5760    2.0132 O   0  0  0  0  0  0  0  0  0  0  0  0
    1.5004    0.3242    2.2864 N   0  0  0  0  0  0  0  0  0  0  0  0
    2.0865   -0.3938    1.8934 H   0  0  0  0  0  0  0  0  0  0  0  0
    1.8728    0.8745    3.5888 C   0  0  0  0  0  0  0  0  0  0  0  0
    1.0244    0.8103    4.2730 H   0  0  0  0  0  0  0  0  0  0  0  0
    2.7143    0.3231    4.0085 H   0  0  0  0  0  0  0  0  0  0  0  0
    2.1488    1.9253    3.4784 H   0  0  0  0  0  0  0  0  0  0  0  0
  5  6  2  0  0  0  0
  5  7  1  0  0  0  0
  2  3  1  0  0  0  0
  2  4  1  0  0  0  0
  2  5  1  0  0  0  0
  1  2  1  0  0  0  0
 19 20  2  0  0  0  0
 19 21  1  0  0  0  0
 17 18  1  0  0  0  0
 13 14  1  0  0  0  0
 13 15  1  0  0  0  0
 13 16  1  0  0  0  0
 11 12  1  0  0  0  0
 11 13  1  0  0  0  0
 11 17  1  0  0  0  0
  9 10  1  0  0  0  0
  9 11  1  0  0  0  0
  9 19  1  0  0  0  0
  7  8  1  0  0  0  0
  7  9  1  0  0  0  0
 23 24  1  0  0  0  0
 23 25  1  0  0  0  0
 23 26  1  0  0  0  0
 21 22  1  0  0  0  0
 21 23  1  0  0  0  0
M  END
$$$$
default_name
  -OEChem-01062215323D

 26 25  0     1  0  0  0  0  0999 V2000
   -2.8882   -3.2497    1.2537 H   0  0  0  0  0  0  0  0  0  0  0  0
   -2.8032   -2.3157    0.7017 C   0  0  0  0  0  0  0  0  0  0  0  0
   -3.5012   -1.5857    1.1067 H   0  0  0  0  0  0  0  0  0  0  0  0
   -3.0182   -2.4907   -0.3513 H   0  0  0  0  0  0  0  0  0  0  0  0
   -1.3942   -1.7897    0.8407 C   0  0  0  0  0  0  0  0  0  0  0  0
   -0.5672   -2.4077    1.5007 O   0  0  0  0  0  0  0  0  0  0  0  0
   -1.1222   -0.6447    0.2217 N   0  0  0  0  0  0  0  0  0  0  0  0
   -1.8592   -0.1777   -0.2863 H   0  0  0  0  0  0  0  0  0  0  0  0
    0.1838    0.0363    0.2367 C   0  0  1  0  0  0  0  0  0  0  0  0
    0.9673   -0.7090    0.1044 H   0  0  0  0  0  0  0  0  0  0  0  0
    0.3089    1.0619   -0.9088 C   0  0  1  0  0  0  0  0  0  0  0  0
    1.2906    1.5304   -0.8413 H   0  0  0  0  0  0  0  0  0  0  0  0
    0.1784    0.4558   -2.3047 C   0  0  0  0  0  0  0  0  0  0  0  0
   -0.8359    0.0887   -2.4663 H   0  0  0  0  0  0  0  0  0  0  0  0
    0.4108    1.2080   -3.0576 H   0  0  0  0  0  0  0  0  0  0  0  0
    0.8763   -0.3753   -2.4102 H   0  0  0  0  0  0  0  0  0  0  0  0
   -0.6700    2.0651   -0.7973 O   0  0  0  0  0  0  0  0  0  0  0  0
   -0.6167    2.6207   -1.5777 H   0  0  0  0  0  0  0  0  0  0  0  0
    0.4277    0.7208    1.5873 C   0  0  0  0  0  0  0  0  0  0  0  0
   -0.4643    1.3620    2.1425 O   0  0  0  0  0  0  0  0  0  0  0  0
    1.6383    0.5627    2.1406 N   0  0  0  0  0  0  0  0  0  0  0  0
    2.3196    0.0102    1.6466 H   0  0  0  0  0  0  0  0  0  0  0  0
    2.0308    1.1475    3.4218 C   0  0  0  0  0  0  0  0  0  0  0  0
    1.3074    0.8707    4.1913 H   0  0  0  0  0  0  0  0  0  0  0  0
    3.0193    0.7934    3.7151 H   0  0  0  0  0  0  0  0  0  0  0  0
    2.0474    2.2364    3.3391 H   0  0  0  0  0  0  0  0  0  0  0  0
  5  6  2  0  0  0  0
  5  7  1  0  0  0  0
  2  3  1  0  0  0  0
  2  4  1  0  0  0  0
  2  5  1  0  0  0  0
  1  2  1  0  0  0  0
 19 20  2  0  0  0  0
 19 21  1  0  0  0  0
 17 18  1  0  0  0  0
 13 14  1  0  0  0  0
 13 15  1  0  0  0  0
 13 16  1  0  0  0  0
 11 12  1  0  0  0  0
 11 13  1  0  0  0  0
 11 17  1  0  0  0  0
  9 10  1  0  0  0  0
  9 11  1  0  0  0  0
  9 19  1  0  0  0  0
  7  8  1  0  0  0  0
  7  9  1  0  0  0  0
 23 24  1  0  0  0  0
 23 25  1  0  0  0  0
 23 26  1  0  0  0  0
 21 22  1  0  0  0  0
 21 23  1  0  0  0  0
M  END
$$$$
default_name
  -OEChem-01062215323D

 26 25  0     1  0  0  0  0  0999 V2000
   -2.8882   -3.2497    1.2537 H   0  0  0  0  0  0  0  0  0  0  0  0
   -2.8032   -2.3157    0.7017 C   0  0  0  0  0  0  0  0  0  0  0  0
   -3.5012   -1.5857    1.1067 H   0  0  0  0  0  0  0  0  0  0  0  0
   -3.0182   -2.4907   -0.3513 H   0  0  0  0  0  0  0  0  0  0  0  0
   -1.3942   -1.7897    0.8407 C   0  0  0  0  0  0  0  0  0  0  0  0
   -0.5672   -2.4077    1.5007 O   0  0  0  0  0  0  0  0  0  0  0  0
   -1.1222   -0.6447    0.2217 N   0  0  0  0  0  0  0  0  0  0  0  0
   -1.8592   -0.1777   -0.2863 H   0  0  0  0  0  0  0  0  0  0  0  0
    0.1838    0.0363    0.2367 C   0  0  1  0  0  0  0  0  0  0  0  0
    0.9673   -0.7090    0.1044 H   0  0  0  0  0  0  0  0  0  0  0  0
    0.3089    1.0619   -0.9088 C   0  0  1  0  0  0  0  0  0  0  0  0
    1.2906    1.5304   -0.8413 H   0  0  0  0  0  0  0  0  0  0  0  0
    0.1784    0.4558   -2.3047 C   0  0  0  0  0  0  0  0  0  0  0  0
   -0.8359    0.0887   -2.4663 H   0  0  0  0  0  0  0  0  0  0  0  0
    0.4108    1.2080   -3.0576 H   0  0  0  0  0  0  0  0  0  0  0  0
    0.8763   -0.3753   -2.4102 H   0  0  0  0  0  0  0  0  0  0  0  0
   -0.6700    2.0651   -0.7973 O   0  0  0  0  0  0  0  0  0  0  0  0
   -0.6167    2.6207   -1.5777 H   0  0  0  0  0  0  0  0  0  0  0  0
    0.4277    0.7208    1.5873 C   0  0  0  0  0  0  0  0  0  0  0  0
   -0.5125    1.1236    2.2721 O   0  0  0  0  0  0  0  0  0  0  0  0
    1.7003    0.8305    1.9937 N   0  0  0  0  0  0  0  0  0  0  0  0
    2.4241    0.4637    1.3979 H   0  0  0  0  0  0  0  0  0  0  0  0
    2.1020    1.4542    3.2535 C   0  0  0  0  0  0  0  0  0  0  0  0
    1.5576    0.9969    4.0821 H   0  0  0  0  0  0  0  0  0  0  0  0
    3.1728    1.3293    3.4158 H   0  0  0  0  0  0  0  0  0  0  0  0
    1.8626    2.5194    3.2290 H   0  0  0  0  0  0  0  0  0  0  0  0
  5  6  2  0  0  0  0
  5  7  1  0  0  0  0
  2  3  1  0  0  0  0
  2  4  1  0  0  0  0
  2  5  1  0  0  0  0
  1  2  1  0  0  0  0
 19 20  2  0  0  0  0
 19 21  1  0  0  0  0
 17 18  1  0  0  0  0
 13 14  1  0  0  0  0
 13 15  1  0  0  0  0
 13 16  1  0  0  0  0
 11 12  1  0  0  0  0
 11 13  1  0  0  0  0
 11 17  1  0  0  0  0
  9 10  1  0  0  0  0
  9 11  1  0  0  0  0
  9 19  1  0  0  0  0
  7  8  1  0  0  0  0
  7  9  1  0  0  0  0
 23 24  1  0  0  0  0
 23 25  1  0  0  0  0
 23 26  1  0  0  0  0
 21 22  1  0  0  0  0
 21 23  1  0  0  0  0
M  END
$$$$
default_name
  -OEChem-01062215323D

 26 25  0     1  0  0  0  0  0999 V2000
   -2.8882   -3.2497    1.2537 H   0  0  0  0  0  0  0  0  0  0  0  0
   -2.8032   -2.3157    0.7017 C   0  0  0  0  0  0  0  0  0  0  0  0
   -3.5012   -1.5857    1.1067 H   0  0  0  0  0  0  0  0  0  0  0  0
   -3.0182   -2.4907   -0.3513 H   0  0  0  0  0  0  0  0  0  0  0  0
   -1.3942   -1.7897    0.8407 C   0  0  0  0  0  0  0  0  0  0  0  0
   -0.5672   -2.4077    1.5007 O   0  0  0  0  0  0  0  0  0  0  0  0
   -1.1222   -0.6447    0.2217 N   0  0  0  0  0  0  0  0  0  0  0  0
   -1.8592   -0.1777   -0.2863 H   0  0  0  0  0  0  0  0  0  0  0  0
    0.1838    0.0363    0.2367 C   0  0  1  0  0  0  0  0  0  0  0  0
    0.9673   -0.7090    0.1044 H   0  0  0  0  0  0  0  0  0  0  0  0
    0.3089    1.0619   -0.9088 C   0  0  1  0  0  0  0  0  0  0  0  0
    1.2906    1.5304   -0.8413 H   0  0  0  0  0  0  0  0  0  0  0  0
    0.1784    0.4558   -2.3047 C   0  0  0  0  0  0  0  0  0  0  0  0
   -0.8359    0.0887   -2.4663 H   0  0  0  0  0  0  0  0  0  0  0  0
    0.4108    1.2080   -3.0576 H   0  0  0  0  0  0  0  0  0  0  0  0
    0.8763   -0.3753   -2.4102 H   0  0  0  0  0  0  0  0  0  0  0  0
   -0.6700    2.0651   -0.7973 O   0  0  0  0  0  0  0  0  0  0  0  0
   -0.6167    2.6207   -1.5777 H   0  0  0  0  0  0  0  0  0  0  0  0
    0.4277    0.7208    1.5873 C   0  0  0  0  0  0  0  0  0  0  0  0
   -0.4898    0.8771    2.3929 O   0  0  0  0  0  0  0  0  0  0  0  0
    1.6822    1.1093    1.8556 N   0  0  0  0  0  0  0  0  0  0  0  0
    2.3930    0.9359    1.1642 H   0  0  0  0  0  0  0  0  0  0  0  0
    2.0814    1.7736    3.0954 C   0  0  0  0  0  0  0  0  0  0  0  0
    1.7579    1.1804    3.9530 H   0  0  0  0  0  0  0  0  0  0  0  0
    3.1643    1.8942    3.1310 H   0  0  0  0  0  0  0  0  0  0  0  0
    1.6068    2.7553    3.1557 H   0  0  0  0  0  0  0  0  0  0  0  0
  5  6  2  0  0  0  0
  5  7  1  0  0  0  0
  2  3  1  0  0  0  0
  2  4  1  0  0  0  0
  2  5  1  0  0  0  0
  1  2  1  0  0  0  0
 19 20  2  0  0  0  0
 19 21  1  0  0  0  0
 17 18  1  0  0  0  0
 13 14  1  0  0  0  0
 13 15  1  0  0  0  0
 13 16  1  0  0  0  0
 11 12  1  0  0  0  0
 11 13  1  0  0  0  0
 11 17  1  0  0  0  0
  9 10  1  0  0  0  0
  9 11  1  0  0  0  0
  9 19  1  0  0  0  0
  7  8  1  0  0  0  0
  7  9  1  0  0  0  0
 23 24  1  0  0  0  0
 23 25  1  0  0  0  0
 23 26  1  0  0  0  0
 21 22  1  0  0  0  0
 21 23  1  0  0  0  0
M  END
$$$$
default_name
  -OEChem-01062215323D

 26 25  0     1  0  0  0  0  0999 V2000
   -2.8882   -3.2497    1.2537 H   0  0  0  0  0  0  0  0  0  0  0  0
   -2.8032   -2.3157    0.7017 C   0  0  0  0  0  0  0  0  0  0  0  0
   -3.5012   -1.5857    1.1067 H   0  0  0  0  0  0  0  0  0  0  0  0
   -3.0182   -2.4907   -0.3513 H   0  0  0  0  0  0  0  0  0  0  0  0
   -1.3942   -1.7897    0.8407 C   0  0  0  0  0  0  0  0  0  0  0  0
   -0.5672   -2.4077    1.5007 O   0  0  0  0  0  0  0  0  0  0  0  0
   -1.1222   -0.6447    0.2217 N   0  0  0  0  0  0  0  0  0  0  0  0
   -1.8592   -0.1777   -0.2863 H   0  0  0  0  0  0  0  0  0  0  0  0
    0.1838    0.0363    0.2367 C   0  0  1  0  0  0  0  0  0  0  0  0
    0.9373   -0.6457   -0.1557 H   0  0  0  0  0  0  0  0  0  0  0  0
    0.1822    1.2992   -0.6492 C   0  0  1  0  0  0  0  0  0  0  0  0
    1.1701    1.7560   -0.5936 H   0  0  0  0  0  0  0  0  0  0  0  0
   -0.1217    1.0273   -2.1212 C   0  0  0  0  0  0  0  0  0  0  0  0
   -1.1522    0.6903   -2.2405 H   0  0  0  0  0  0  0  0  0  0  0  0
    0.0272    1.9359   -2.7034 H   0  0  0  0  0  0  0  0  0  0  0  0
    0.5490    0.2542   -2.4972 H   0  0  0  0  0  0  0  0  0  0  0  0
   -0.7649    2.2337   -0.1943 O   0  0  0  0  0  0  0  0  0  0  0  0
   -0.7992    2.9542   -0.8269 H   0  0  0  0  0  0  0  0  0  0  0  0
    0.5957    0.3968    1.6694 C   0  0  0  0  0  0  0  0  0  0  0  0
   -0.1154    0.0950    2.6277 O   0  0  0  0  0  0  0  0  0  0  0  0
    1.7700    1.0237    1.8262 N   0  0  0  0  0  0  0  0  0  0  0  0
    2.3158    1.2258    1.0047 H   0  0  0  0  0  0  0  0  0  0  0  0
    2.3072    1.4346    3.1224 C   0  0  0  0  0  0  0  0  0  0  0  0
    2.3267    0.5801    3.8018 H   0  0  0  0  0  0  0  0  0  0  0  0
    3.3185    1.8255    3.0088 H   0  0  0  0  0  0  0  0  0  0  0  0
    1.6685    2.2067    3.5568 H   0  0  0  0  0  0  0  0  0  0  0  0
  5  6  2  0  0  0  0
  5  7  1  0  0  0  0
  2  3  1  0  0  0  0
  2  4  1  0  0  0  0
  2  5  1  0  0  0  0
  1  2  1  0  0  0  0
 19 20  2  0  0  0  0
 19 21  1  0  0  0  0
 17 18  1  0  0  0  0
 13 14  1  0  0  0  0
 13 15  1  0  0  0  0
 13 16  1  0  0  0  0
 11 12  1  0  0  0  0
 11 13  1  0  0  0  0
 11 17  1  0  0  0  0
  9 10  1  0  0  0  0
  9 11  1  0  0  0  0
  9 19  1  0  0  0  0
  7  8  1  0  0  0  0
  7  9  1  0  0  0  0
 23 24  1  0  0  0  0
 23 25  1  0  0  0  0
 23 26  1  0  0  0  0
 21 22  1  0  0  0  0
 21 23  1  0  0  0  0
M  END
$$$$
default_name
  -OEChem-01062215323D

 26 25  0     1  0  0  0  0  0999 V2000
   -2.8882   -3.2497    1.2537 H   0  0  0  0  0  0  0  0  0  0  0  0
   -2.8032   -2.3157    0.7017 C   0  0  0  0  0  0  0  0  0  0  0  0
   -3.5012   -1.5857    1.1067 H   0  0  0  0  0  0  0  0  0  0  0  0
   -3.0182   -2.4907   -0.3513 H   0  0  0  0  0  0  0  0  0  0  0  0
   -1.3942   -1.7897    0.8407 C   0  0  0  0  0  0  0  0  0  0  0  0
   -0.5672   -2.4077    1.5007 O   0  0  0  0  0  0  0  0  0  0  0  0
   -1.1222   -0.6447    0.2217 N   0  0  0  0  0  0  0  0  0  0  0  0
   -1.8592   -0.1777   -0.2863 H   0  0  0  0  0  0  0  0  0  0  0  0
    0.1838    0.0363    0.2367 C   0  0  1  0  0  0  0  0  0  0  0  0
    0.9373   -0.6457   -0.1557 H   0  0  0  0  0  0  0  0  0  0  0  0
    0.1822    1.2992   -0.6492 C   0  0  1  0  0  0  0  0  0  0  0  0
    1.1701    1.7560   -0.5936 H   0  0  0  0  0  0  0  0  0  0  0  0
   -0.1217    1.0273   -2.1212 C   0  0  0  0  0  0  0  0  0  0  0  0
   -1.1522    0.6903   -2.2405 H   0  0  0  0  0  0  0  0  0  0  0  0
    0.0272    1.9359   -2.7034 H   0  0  0  0  0  0  0  0  0  0  0  0
    0.5490    0.2542   -2.4972 H   0  0  0  0  0  0  0  0  0  0  0  0
   -0.7649    2.2337   -0.1943 O   0  0  0  0  0  0  0  0  0  0  0  0
   -0.7992    2.9542   -0.8269 H   0  0  0  0  0  0  0  0  0  0  0  0
    0.5957    0.3968    1.6694 C   0  0  0  0  0  0  0  0  0  0  0  0
    0.0459   -0.1282    2.6375 O   0  0  0  0  0  0  0  0  0  0  0  0
    1.5935    1.2802    1.8124 N   0  0  0  0  0  0  0  0  0  0  0  0
    2.0166    1.6599    0.9815 H   0  0  0  0  0  0  0  0  0  0  0  0
    2.1052    1.7285    3.1065 C   0  0  0  0  0  0  0  0  0  0  0  0
    2.3760    0.8642    3.7161 H   0  0  0  0  0  0  0  0  0  0  0  0
    2.9830    2.3606    2.9707 H   0  0  0  0  0  0  0  0  0  0  0  0
    1.3319    2.2930    3.6319 H   0  0  0  0  0  0  0  0  0  0  0  0
  5  6  2  0  0  0  0
  5  7  1  0  0  0  0
  2  3  1  0  0  0  0
  2  4  1  0  0  0  0
  2  5  1  0  0  0  0
  1  2  1  0  0  0  0
 19 20  2  0  0  0  0
 19 21  1  0  0  0  0
 17 18  1  0  0  0  0
 13 14  1  0  0  0  0
 13 15  1  0  0  0  0
 13 16  1  0  0  0  0
 11 12  1  0  0  0  0
 11 13  1  0  0  0  0
 11 17  1  0  0  0  0
  9 10  1  0  0  0  0
  9 11  1  0  0  0  0
  9 19  1  0  0  0  0
  7  8  1  0  0  0  0
  7  9  1  0  0  0  0
 23 24  1  0  0  0  0
 23 25  1  0  0  0  0
 23 26  1  0  0  0  0
 21 22  1  0  0  0  0
 21 23  1  0  0  0  0
M  END
$$$$
default_name
  -OEChem-01062215323D

 26 25  0     1  0  0  0  0  0999 V2000
   -2.8882   -3.2497    1.2537 H   0  0  0  0  0  0  0  0  0  0  0  0
   -2.8032   -2.3157    0.7017 C   0  0  0  0  0  0  0  0  0  0  0  0
   -3.5012   -1.5857    1.1067 H   0  0  0  0  0  0  0  0  0  0  0  0
   -3.0182   -2.4907   -0.3513 H   0  0  0  0  0  0  0  0  0  0  0  0
   -1.3942   -1.7897    0.8407 C   0  0  0  0  0  0  0  0  0  0  0  0
   -0.5672   -2.4077    1.5007 O   0  0  0  0  0  0  0  0  0  0  0  0
   -1.1222   -0.6447    0.2217 N   0  0  0  0  0  0  0  0  0  0  0  0
   -1.8592   -0.1777   -0.2863 H   0  0  0  0  0  0  0  0  0  0  0  0
    0.1838    0.0363    0.2367 C   0  0  1  0  0  0  0  0  0  0  0  0
    0.9373   -0.6457   -0.1557 H   0  0  0  0  0  0  0  0  0  0  0  0
    0.1822    1.2992   -0.6492 C   0  0  1  0  0  0  0  0  0  0  0  0
    1.1701    1.7560   -0.5936 H   0  0  0  0  0  0  0  0  0  0  0  0
   -0.1217    1.0273   -2.1212 C   0  0  0  0  0  0  0  0  0  0  0  0
   -1.1522    0.6903   -2.2405 H   0  0  0  0  0  0  0  0  0  0  0  0
    0.0272    1.9359   -2.7034 H   0  0  0  0  0  0  0  0  0  0  0  0
    0.5490    0.2542   -2.4972 H   0  0  0  0  0  0  0  0  0  0  0  0
   -0.7649    2.2337   -0.1943 O   0  0  0  0  0  0  0  0  0  0  0  0
   -0.7992    2.9542   -0.8269 H   0  0  0  0  0  0  0  0  0  0  0  0
    0.5957    0.3968    1.6694 C   0  0  0  0  0  0  0  0  0  0  0  0
    0.2562   -0.3055    2.6216 O   0  0  0  0  0  0  0  0  0  0  0  0
    1.3602    1.4863    1.8276 N   0  0  0  0  0  0  0  0  0  0  0  0
    1.6213    2.0085    1.0075 H   0  0  0  0  0  0  0  0  0  0  0  0
    1.8381    1.9647    3.1239 C   0  0  0  0  0  0  0  0  0  0  0  0
    2.3497    1.1564    3.6501 H   0  0  0  0  0  0  0  0  0  0  0  0
    2.5272    2.7989    2.9914 H   0  0  0  0  0  0  0  0  0  0  0  0
    0.9904    2.2898    3.7309 H   0  0  0  0  0  0  0  0  0  0  0  0
  5  6  2  0  0  0  0
  5  7  1  0  0  0  0
  2  3  1  0  0  0  0
  2  4  1  0  0  0  0
  2  5  1  0  0  0  0
  1  2  1  0  0  0  0
 19 20  2  0  0  0  0
 19 21  1  0  0  0  0
 17 18  1  0  0  0  0
 13 14  1  0  0  0  0
 13 15  1  0  0  0  0
 13 16  1  0  0  0  0
 11 12  1  0  0  0  0
 11 13  1  0  0  0  0
 11 17  1  0  0  0  0
  9 10  1  0  0  0  0
  9 11  1  0  0  0  0
  9 19  1  0  0  0  0
  7  8  1  0  0  0  0
  7  9  1  0  0  0  0
 23 24  1  0  0  0  0
 23 25  1  0  0  0  0
 23 26  1  0  0  0  0
 21 22  1  0  0  0  0
 21 23  1  0  0  0  0
M  END
$$$$
default_name
  -OEChem-01062215323D

 26 25  0     1  0  0  0  0  0999 V2000
   -2.8882   -3.2497    1.2537 H   0  0  0  0  0  0  0  0  0  0  0  0
   -2.8032   -2.3157    0.7017 C   0  0  0  0  0  0  0  0  0  0  0  0
   -3.5012   -1.5857    1.1067 H   0  0  0  0  0  0  0  0  0  0  0  0
   -3.0182   -2.4907   -0.3513 H   0  0  0  0  0  0  0  0  0  0  0  0
   -1.3942   -1.7897    0.8407 C   0  0  0  0  0  0  0  0  0  0  0  0
   -0.5672   -2.4077    1.5007 O   0  0  0  0  0  0  0  0  0  0  0  0
   -1.1222   -0.6447    0.2217 N   0  0  0  0  0  0  0  0  0  0  0  0
   -1.8592   -0.1777   -0.2863 H   0  0  0  0  0  0  0  0  0  0  0  0
    0.1838    0.0363    0.2367 C   0  0  1  0  0  0  0  0  0  0  0  0
    0.9373   -0.6457   -0.1557 H   0  0  0  0  0  0  0  0  0  0  0  0
    0.1822    1.2992   -0.6492 C   0  0  1  0  0  0  0  0  0  0  0  0
    1.1701    1.7560   -0.5936 H   0  0  0  0  0  0  0  0  0  0  0  0
   -0.1217    1.0273   -2.1212 C   0  0  0  0  0  0  0  0  0  0  0  0
   -1.1522    0.6903   -2.2405 H   0  0  0  0  0  0  0  0  0  0  0  0
    0.0272    1.9359   -2.7034 H   0  0  0  0  0  0  0  0  0  0  0  0
    0.5490    0.2542   -2.4972 H   0  0  0  0  0  0  0  0  0  0  0  0
   -0.7649    2.2337   -0.1943 O   0  0  0  0  0  0  0  0  0  0  0  0
   -0.7992    2.9542   -0.8269 H   0  0  0  0  0  0  0  0  0  0  0  0
    0.5957    0.3968    1.6694 C   0  0  0  0  0  0  0  0  0  0  0  0
    0.5013   -0.4248    2.5812 O   0  0  0  0  0  0  0  0  0  0  0  0
    1.0859    1.6279    1.8708 N   0  0  0  0  0  0  0  0  0  0  0  0
    1.1568    2.2478    1.0808 H   0  0  0  0  0  0  0  0  0  0  0  0
    1.5240    2.1270    3.1734 C   0  0  0  0  0  0  0  0  0  0  0  0
    2.2497    1.4369    3.6083 H   0  0  0  0  0  0  0  0  0  0  0  0
    1.9823    3.1107    3.0697 H   0  0  0  0  0  0  0  0  0  0  0  0
    0.6673    2.1972    3.8471 H   0  0  0  0  0  0  0  0  0  0  0  0
  5  6  2  0  0  0  0
  5  7  1  0  0  0  0
  2  3  1  0  0  0  0
  2  4  1  0  0  0  0
  2  5  1  0  0  0  0
  1  2  1  0  0  0  0
 19 20  2  0  0  0  0
 19 21  1  0  0  0  0
 17 18  1  0  0  0  0
 13 14  1  0  0  0  0
 13 15  1  0  0  0  0
 13 16  1  0  0  0  0
 11 12  1  0  0  0  0
 11 13  1  0  0  0  0
 11 17  1  0  0  0  0
  9 10  1  0  0  0  0
  9 11  1  0  0  0  0
  9 19  1  0  0  0  0
  7  8  1  0  0  0  0
  7  9  1  0  0  0  0
 23 24  1  0  0  0  0
 23 25  1  0  0  0  0
 23 26  1  0  0  0  0
 21 22  1  0  0  0  0
 21 23  1  0  0  0  0
M  END
$$$$
default_name
  -OEChem-01062215323D

 26 25  0     1  0  0  0  0  0999 V2000
   -2.8882   -3.2497    1.2537 H   0  0  0  0  0  0  0  0  0  0  0  0
   -2.8032   -2.3157    0.7017 C   0  0  0  0  0  0  0  0  0  0  0  0
   -3.5012   -1.5857    1.1067 H   0  0  0  0  0  0  0  0  0  0  0  0
   -3.0182   -2.4907   -0.3513 H   0  0  0  0  0  0  0  0  0  0  0  0
   -1.3942   -1.7897    0.8407 C   0  0  0  0  0  0  0  0  0  0  0  0
   -0.5672   -2.4077    1.5007 O   0  0  0  0  0  0  0  0  0  0  0  0
   -1.1222   -0.6447    0.2217 N   0  0  0  0  0  0  0  0  0  0  0  0
   -1.8592   -0.1777   -0.2863 H   0  0  0  0  0  0  0  0  0  0  0  0
    0.1838    0.0363    0.2367 C   0  0  1  0  0  0  0  0  0  0  0  0
    0.9373   -0.6457   -0.1557 H   0  0  0  0  0  0  0  0  0  0  0  0
    0.1822    1.2992   -0.6492 C   0  0  1  0  0  0  0  0  0  0  0  0
    1.1701    1.7560   -0.5936 H   0  0  0  0  0  0  0  0  0  0  0  0
   -0.1217    1.0273   -2.1212 C   0  0  0  0  0  0  0  0  0  0  0  0
   -1.1522    0.6903   -2.2405 H   0  0  0  0  0  0  0  0  0  0  0  0
    0.0272    1.9359   -2.7034 H   0  0  0  0  0  0  0  0  0  0  0  0
    0.5490    0.2542   -2.4972 H   0  0  0  0  0  0  0  0  0  0  0  0
   -0.7649    2.2337   -0.1943 O   0  0  0  0  0  0  0  0  0  0  0  0
   -0.7992    2.9542   -0.8269 H   0  0  0  0  0  0  0  0  0  0  0  0
    0.5957    0.3968    1.6694 C   0  0  0  0  0  0  0  0  0  0  0  0
    0.7644   -0.4779    2.5189 O   0  0  0  0  0  0  0  0  0  0  0  0
    0.7894    1.6953    1.9391 N   0  0  0  0  0  0  0  0  0  0  0  0
    0.6546    2.3616    1.1966 H   0  0  0  0  0  0  0  0  0  0  0  0
    1.1844    2.2045    3.2515 C   0  0  0  0  0  0  0  0  0  0  0  0
    2.0827    1.6866    3.5935 H   0  0  0  0  0  0  0  0  0  0  0  0
    1.3853    3.2747    3.2001 H   0  0  0  0  0  0  0  0  0  0  0  0
    0.3847    2.0216    3.9725 H   0  0  0  0  0  0  0  0  0  0  0  0
  5  6  2  0  0  0  0
  5  7  1  0  0  0  0
  2  3  1  0  0  0  0
  2  4  1  0  0  0  0
  2  5  1  0  0  0  0
  1  2  1  0  0  0  0
 19 20  2  0  0  0  0
 19 21  1  0  0  0  0
 17 18  1  0  0  0  0
 13 14  1  0  0  0  0
 13 15  1  0  0  0  0
 13 16  1  0  0  0  0
 11 12  1  0  0  0  0
 11 13  1  0  0  0  0
 11 17  1  0  0  0  0
  9 10  1  0  0  0  0
  9 11  1  0  0  0  0
  9 19  1  0  0  0  0
  7  8  1  0  0  0  0
  7  9  1  0  0  0  0
 23 24  1  0  0  0  0
 23 25  1  0  0  0  0
 23 26  1  0  0  0  0
 21 22  1  0  0  0  0
 21 23  1  0  0  0  0
M  END
$$$$
default_name
  -OEChem-01062215323D

 26 25  0     1  0  0  0  0  0999 V2000
   -2.8882   -3.2497    1.2537 H   0  0  0  0  0  0  0  0  0  0  0  0
   -2.8032   -2.3157    0.7017 C   0  0  0  0  0  0  0  0  0  0  0  0
   -3.5012   -1.5857    1.1067 H   0  0  0  0  0  0  0  0  0  0  0  0
   -3.0182   -2.4907   -0.3513 H   0  0  0  0  0  0  0  0  0  0  0  0
   -1.3942   -1.7897    0.8407 C   0  0  0  0  0  0  0  0  0  0  0  0
   -0.5672   -2.4077    1.5007 O   0  0  0  0  0  0  0  0  0  0  0  0
   -1.1222   -0.6447    0.2217 N   0  0  0  0  0  0  0  0  0  0  0  0
   -1.8592   -0.1777   -0.2863 H   0  0  0  0  0  0  0  0  0  0  0  0
    0.1838    0.0363    0.2367 C   0  0  1  0  0  0  0  0  0  0  0  0
    0.9373   -0.6457   -0.1557 H   0  0  0  0  0  0  0  0  0  0  0  0
    0.1822    1.2992   -0.6492 C   0  0  1  0  0  0  0  0  0  0  0  0
    1.1701    1.7560   -0.5936 H   0  0  0  0  0  0  0  0  0  0  0  0
   -0.1217    1.0273   -2.1212 C   0  0  0  0  0  0  0  0  0  0  0  0
   -1.1522    0.6903   -2.2405 H   0  0  0  0  0  0  0  0  0  0  0  0
    0.0272    1.9359   -2.7034 H   0  0  0  0  0  0  0  0  0  0  0  0
    0.5490    0.2542   -2.4972 H   0  0  0  0  0  0  0  0  0  0  0  0
   -0.7649    2.2337   -0.1943 O   0  0  0  0  0  0  0  0  0  0  0  0
   -0.7992    2.9542   -0.8269 H   0  0  0  0  0  0  0  0  0  0  0  0
    0.5957    0.3968    1.6694 C   0  0  0  0  0  0  0  0  0  0  0  0
    1.0276   -0.4613    2.4390 O   0  0  0  0  0  0  0  0  0  0  0  0
    0.4909    1.6841    2.0278 N   0  0  0  0  0  0  0  0  0  0  0  0
    0.1491    2.3421    1.3468 H   0  0  0  0  0  0  0  0  0  0  0  0
    0.8424    2.1917    3.3531 C   0  0  0  0  0  0  0  0  0  0  0  0
    1.8601    1.8884    3.6068 H   0  0  0  0  0  0  0  0  0  0  0  0
    0.7769    3.2797    3.3737 H   0  0  0  0  0  0  0  0  0  0  0  0
    0.1619    1.7750    4.0987 H   0  0  0  0  0  0  0  0  0  0  0  0
  5  6  2  0  0  0  0
  5  7  1  0  0  0  0
  2  3  1  0  0  0  0
  2  4  1  0  0  0  0
  2  5  1  0  0  0  0
  1  2  1  0  0  0  0
 19 20  2  0  0  0  0
 19 21  1  0  0  0  0
 17 18  1  0  0  0  0
 13 14  1  0  0  0  0
 13 15  1  0  0  0  0
 13 16  1  0  0  0  0
 11 12  1  0  0  0  0
 11 13  1  0  0  0  0
 11 17  1  0  0  0  0
  9 10  1  0  0  0  0
  9 11  1  0  0  0  0
  9 19  1  0  0  0  0
  7  8  1  0  0  0  0
  7  9  1  0  0  0  0
 23 24  1  0  0  0  0
 23 25  1  0  0  0  0
 23 26  1  0  0  0  0
 21 22  1  0  0  0  0
 21 23  1  0  0  0  0
M  END
$$$$
default_name
  -OEChem-01062215323D

 26 25  0     1  0  0  0  0  0999 V2000
   -2.8882   -3.2497    1.2537 H   0  0  0  0  0  0  0  0  0  0  0  0
   -2.8032   -2.3157    0.7017 C   0  0  0  0  0  0  0  0  0  0  0  0
   -3.5012   -1.5857    1.1067 H   0  0  0  0  0  0  0  0  0  0  0  0
   -3.0182   -2.4907   -0.3513 H   0  0  0  0  0  0  0  0  0  0  0  0
   -1.3942   -1.7897    0.8407 C   0  0  0  0  0  0  0  0  0  0  0  0
   -0.5672   -2.4077    1.5007 O   0  0  0  0  0  0  0  0  0  0  0  0
   -1.1222   -0.6447    0.2217 N   0  0  0  0  0  0  0  0  0  0  0  0
   -1.8592   -0.1777   -0.2863 H   0  0  0  0  0  0  0  0  0  0  0  0
    0.1838    0.0363    0.2367 C   0  0  1  0  0  0  0  0  0  0  0  0
    0.9373   -0.6457   -0.1557 H   0  0  0  0  0  0  0  0  0  0  0  0
    0.1822    1.2992   -0.6492 C   0  0  1  0  0  0  0  0  0  0  0  0
    1.1701    1.7560   -0.5936 H   0  0  0  0  0  0  0  0  0  0  0  0
   -0.1217    1.0273   -2.1212 C   0  0  0  0  0  0  0  0  0  0  0  0
   -1.1522    0.6903   -2.2405 H   0  0  0  0  0  0  0  0  0  0  0  0
    0.0272    1.9359   -2.7034 H   0  0  0  0  0  0  0  0  0  0  0  0
    0.5490    0.2542   -2.4972 H   0  0  0  0  0  0  0  0  0  0  0  0
   -0.7649    2.2337   -0.1943 O   0  0  0  0  0  0  0  0  0  0  0  0
   -0.7992    2.9542   -0.8269 H   0  0  0  0  0  0  0  0  0  0  0  0
    0.5957    0.3968    1.6694 C   0  0  0  0  0  0  0  0  0  0  0  0
    1.2730   -0.3761    2.3470 O   0  0  0  0  0  0  0  0  0  0  0  0
    0.2106    1.5948    2.1309 N   0  0  0  0  0  0  0  0  0  0  0  0
   -0.3252    2.1905    1.5214 H   0  0  0  0  0  0  0  0  0  0  0  0
    0.5213    2.0896    3.4711 C   0  0  0  0  0  0  0  0  0  0  0  0
    1.5971    2.0286    3.6471 H   0  0  0  0  0  0  0  0  0  0  0  0
    0.1986    3.1254    3.5788 H   0  0  0  0  0  0  0  0  0  0  0  0
    0.0139    1.4741    4.2169 H   0  0  0  0  0  0  0  0  0  0  0  0
  5  6  2  0  0  0  0
  5  7  1  0  0  0  0
  2  3  1  0  0  0  0
  2  4  1  0  0  0  0
  2  5  1  0  0  0  0
  1  2  1  0  0  0  0
 19 20  2  0  0  0  0
 19 21  1  0  0  0  0
 17 18  1  0  0  0  0
 13 14  1  0  0  0  0
 13 15  1  0  0  0  0
 13 16  1  0  0  0  0
 11 12  1  0  0  0  0
 11 13  1  0  0  0  0
 11 17  1  0  0  0  0
  9 10  1  0  0  0  0
  9 11  1  0  0  0  0
  9 19  1  0  0  0  0
  7  8  1  0  0  0  0
  7  9  1  0  0  0  0
 23 24  1  0  0  0  0
 23 25  1  0  0  0  0
 23 26  1  0  0  0  0
 21 22  1  0  0  0  0
 21 23  1  0  0  0  0
M  END
$$$$
default_name
  -OEChem-01062215323D

 26 25  0     1  0  0  0  0  0999 V2000
   -2.8882   -3.2497    1.2537 H   0  0  0  0  0  0  0  0  0  0  0  0
   -2.8032   -2.3157    0.7017 C   0  0  0  0  0  0  0  0  0  0  0  0
   -3.5012   -1.5857    1.1067 H   0  0  0  0  0  0  0  0  0  0  0  0
   -3.0182   -2.4907   -0.3513 H   0  0  0  0  0  0  0  0  0  0  0  0
   -1.3942   -1.7897    0.8407 C   0  0  0  0  0  0  0  0  0  0  0  0
   -0.5672   -2.4077    1.5007 O   0  0  0  0  0  0  0  0  0  0  0  0
   -1.1222   -0.6447    0.2217 N   0  0  0  0  0  0  0  0  0  0  0  0
   -1.8592   -0.1777   -0.2863 H   0  0  0  0  0  0  0  0  0  0  0  0
    0.1838    0.0363    0.2367 C   0  0  1  0  0  0  0  0  0  0  0  0
    0.9373   -0.6457   -0.1557 H   0  0  0  0  0  0  0  0  0  0  0  0
    0.1822    1.2992   -0.6492 C   0  0  1  0  0  0  0  0  0  0  0  0
    1.1701    1.7560   -0.5936 H   0  0  0  0  0  0  0  0  0  0  0  0
   -0.1217    1.0273   -2.1212 C   0  0  0  0  0  0  0  0  0  0  0  0
   -1.1522    0.6903   -2.2405 H   0  0  0  0  0  0  0  0  0  0  0  0
    0.0272    1.9359   -2.7034 H   0  0  0  0  0  0  0  0  0  0  0  0
    0.5490    0.2542   -2.4972 H   0  0  0  0  0  0  0  0  0  0  0  0
   -0.7649    2.2337   -0.1943 O   0  0  0  0  0  0  0  0  0  0  0  0
   -0.7992    2.9542   -0.8269 H   0  0  0  0  0  0  0  0  0  0  0  0
    0.5957    0.3968    1.6694 C   0  0  0  0  0  0  0  0  0  0  0  0
    1.4838   -0.2281    2.2492 O   0  0  0  0  0  0  0  0  0  0  0  0
   -0.0323    1.4337    2.2412 N   0  0  0  0  0  0  0  0  0  0  0  0
   -0.7362    1.9173    1.7083 H   0  0  0  0  0  0  0  0  0  0  0  0
    0.2430    1.9052    3.5975 C   0  0  0  0  0  0  0  0  0  0  0  0
    1.3117    2.0976    3.7118 H   0  0  0  0  0  0  0  0  0  0  0  0
   -0.3102    2.8222    3.8014 H   0  0  0  0  0  0  0  0  0  0  0  0
   -0.0491    1.1394    4.3192 H   0  0  0  0  0  0  0  0  0  0  0  0
  5  6  2  0  0  0  0
  5  7  1  0  0  0  0
  2  3  1  0  0  0  0
  2  4  1  0  0  0  0
  2  5  1  0  0  0  0
  1  2  1  0  0  0  0
 19 20  2  0  0  0  0
 19 21  1  0  0  0  0
 17 18  1  0  0  0  0
 13 14  1  0  0  0  0
 13 15  1  0  0  0  0
 13 16  1  0  0  0  0
 11 12  1  0  0  0  0
 11 13  1  0  0  0  0
 11 17  1  0  0  0  0
  9 10  1  0  0  0  0
  9 11  1  0  0  0  0
  9 19  1  0  0  0  0
  7  8  1  0  0  0  0
  7  9  1  0  0  0  0
 23 24  1  0  0  0  0
 23 25  1  0  0  0  0
 23 26  1  0  0  0  0
 21 22  1  0  0  0  0
 21 23  1  0  0  0  0
M  END
$$$$
default_name
  -OEChem-01062215323D

 26 25  0     1  0  0  0  0  0999 V2000
   -2.8882   -3.2497    1.2537 H   0  0  0  0  0  0  0  0  0  0  0  0
   -2.8032   -2.3157    0.7017 C   0  0  0  0  0  0  0  0  0  0  0  0
   -3.5012   -1.5857    1.1067 H   0  0  0  0  0  0  0  0  0  0  0  0
   -3.0182   -2.4907   -0.3513 H   0  0  0  0  0  0  0  0  0  0  0  0
   -1.3942   -1.7897    0.8407 C   0  0  0  0  0  0  0  0  0  0  0  0
   -0.5672   -2.4077    1.5007 O   0  0  0  0  0  0  0  0  0  0  0  0
   -1.1222   -0.6447    0.2217 N   0  0  0  0  0  0  0  0  0  0  0  0
   -1.8592   -0.1777   -0.2863 H   0  0  0  0  0  0  0  0  0  0  0  0
    0.1838    0.0363    0.2367 C   0  0  1  0  0  0  0  0  0  0  0  0
    0.9373   -0.6457   -0.1557 H   0  0  0  0  0  0  0  0  0  0  0  0
    0.1822    1.2992   -0.6492 C   0  0  1  0  0  0  0  0  0  0  0  0
    1.1701    1.7560   -0.5936 H   0  0  0  0  0  0  0  0  0  0  0  0
   -0.1217    1.0273   -2.1212 C   0  0  0  0  0  0  0  0  0  0  0  0
   -1.1522    0.6903   -2.2405 H   0  0  0  0  0  0  0  0  0  0  0  0
    0.0272    1.9359   -2.7034 H   0  0  0  0  0  0  0  0  0  0  0  0
    0.5490    0.2542   -2.4972 H   0  0  0  0  0  0  0  0  0  0  0  0
   -0.7649    2.2337   -0.1943 O   0  0  0  0  0  0  0  0  0  0  0  0
   -0.7992    2.9542   -0.8269 H   0  0  0  0  0  0  0  0  0  0  0  0
    0.5957    0.3968    1.6694 C   0  0  0  0  0  0  0  0  0  0  0  0
    1.6457   -0.0273    2.1521 O   0  0  0  0  0  0  0  0  0  0  0  0
   -0.2212    1.2116    2.3514 N   0  0  0  0  0  0  0  0  0  0  0  0
   -1.0558    1.5411    1.8948 H   0  0  0  0  0  0  0  0  0  0  0  0
    0.0265    1.6510    3.7237 C   0  0  0  0  0  0  0  0  0  0  0  0
    1.0232    2.0908    3.7965 H   0  0  0  0  0  0  0  0  0  0  0  0
   -0.7148    2.3909    4.0263 H   0  0  0  0  0  0  0  0  0  0  0  0
   -0.0228    0.7939    4.3986 H   0  0  0  0  0  0  0  0  0  0  0  0
  5  6  2  0  0  0  0
  5  7  1  0  0  0  0
  2  3  1  0  0  0  0
  2  4  1  0  0  0  0
  2  5  1  0  0  0  0
  1  2  1  0  0  0  0
 19 20  2  0  0  0  0
 19 21  1  0  0  0  0
 17 18  1  0  0  0  0
 13 14  1  0  0  0  0
 13 15  1  0  0  0  0
 13 16  1  0  0  0  0
 11 12  1  0  0  0  0
 11 13  1  0  0  0  0
 11 17  1  0  0  0  0
  9 10  1  0  0  0  0
  9 11  1  0  0  0  0
  9 19  1  0  0  0  0
  7  8  1  0  0  0  0
  7  9  1  0  0  0  0
 23 24  1  0  0  0  0
 23 25  1  0  0  0  0
 23 26  1  0  0  0  0
 21 22  1  0  0  0  0
 21 23  1  0  0  0  0
M  END
$$$$
default_name
  -OEChem-01062215323D

 26 25  0     1  0  0  0  0  0999 V2000
   -2.8882   -3.2497    1.2537 H   0  0  0  0  0  0  0  0  0  0  0  0
   -2.8032   -2.3157    0.7017 C   0  0  0  0  0  0  0  0  0  0  0  0
   -3.5012   -1.5857    1.1067 H   0  0  0  0  0  0  0  0  0  0  0  0
   -3.0182   -2.4907   -0.3513 H   0  0  0  0  0  0  0  0  0  0  0  0
   -1.3942   -1.7897    0.8407 C   0  0  0  0  0  0  0  0  0  0  0  0
   -0.5672   -2.4077    1.5007 O   0  0  0  0  0  0  0  0  0  0  0  0
   -1.1222   -0.6447    0.2217 N   0  0  0  0  0  0  0  0  0  0  0  0
   -1.8592   -0.1777   -0.2863 H   0  0  0  0  0  0  0  0  0  0  0  0
    0.1838    0.0363    0.2367 C   0  0  1  0  0  0  0  0  0  0  0  0
    0.9373   -0.6457   -0.1557 H   0  0  0  0  0  0  0  0  0  0  0  0
    0.1822    1.2992   -0.6492 C   0  0  1  0  0  0  0  0  0  0  0  0
    1.1701    1.7560   -0.5936 H   0  0  0  0  0  0  0  0  0  0  0  0
   -0.1217    1.0273   -2.1212 C   0  0  0  0  0  0  0  0  0  0  0  0
   -1.1522    0.6903   -2.2405 H   0  0  0  0  0  0  0  0  0  0  0  0
    0.0272    1.9359   -2.7034 H   0  0  0  0  0  0  0  0  0  0  0  0
    0.5490    0.2542   -2.4972 H   0  0  0  0  0  0  0  0  0  0  0  0
   -0.7649    2.2337   -0.1943 O   0  0  0  0  0  0  0  0  0  0  0  0
   -0.7992    2.9542   -0.8269 H   0  0  0  0  0  0  0  0  0  0  0  0
    0.5957    0.3968    1.6694 C   0  0  0  0  0  0  0  0  0  0  0  0
    1.7476    0.2125    2.0625 O   0  0  0  0  0  0  0  0  0  0  0  0
   -0.3433    0.9438    2.4539 N   0  0  0  0  0  0  0  0  0  0  0  0
   -1.2621    1.0874    2.0683 H   0  0  0  0  0  0  0  0  0  0  0  0
   -0.1135    1.3443    3.8411 C   0  0  0  0  0  0  0  0  0  0  0  0
    0.7513    2.0086    3.8953 H   0  0  0  0  0  0  0  0  0  0  0  0
   -0.9877    1.8608    4.2381 H   0  0  0  0  0  0  0  0  0  0  0  0
    0.0909    0.4609    4.4497 H   0  0  0  0  0  0  0  0  0  0  0  0
  5  6  2  0  0  0  0
  5  7  1  0  0  0  0
  2  3  1  0  0  0  0
  2  4  1  0  0  0  0
  2  5  1  0  0  0  0
  1  2  1  0  0  0  0
 19 20  2  0  0  0  0
 19 21  1  0  0  0  0
 17 18  1  0  0  0  0
 13 14  1  0  0  0  0
 13 15  1  0  0  0  0
 13 16  1  0  0  0  0
 11 12  1  0  0  0  0
 11 13  1  0  0  0  0
 11 17  1  0  0  0  0
  9 10  1  0  0  0  0
  9 11  1  0  0  0  0
  9 19  1  0  0  0  0
  7  8  1  0  0  0  0
  7  9  1  0  0  0  0
 23 24  1  0  0  0  0
 23 25  1  0  0  0  0
 23 26  1  0  0  0  0
 21 22  1  0  0  0  0
 21 23  1  0  0  0  0
M  END
$$$$
default_name
  -OEChem-01062215323D

 26 25  0     1  0  0  0  0  0999 V2000
   -2.8882   -3.2497    1.2537 H   0  0  0  0  0  0  0  0  0  0  0  0
   -2.8032   -2.3157    0.7017 C   0  0  0  0  0  0  0  0  0  0  0  0
   -3.5012   -1.5857    1.1067 H   0  0  0  0  0  0  0  0  0  0  0  0
   -3.0182   -2.4907   -0.3513 H   0  0  0  0  0  0  0  0  0  0  0  0
   -1.3942   -1.7897    0.8407 C   0  0  0  0  0  0  0  0  0  0  0  0
   -0.5672   -2.4077    1.5007 O   0  0  0  0  0  0  0  0  0  0  0  0
   -1.1222   -0.6447    0.2217 N   0  0  0  0  0  0  0  0  0  0  0  0
   -1.8592   -0.1777   -0.2863 H   0  0  0  0  0  0  0  0  0  0  0  0
    0.1838    0.0363    0.2367 C   0  0  1  0  0  0  0  0  0  0  0  0
    0.9373   -0.6457   -0.1557 H   0  0  0  0  0  0  0  0  0  0  0  0
    0.1822    1.2992   -0.6492 C   0  0  1  0  0  0  0  0  0  0  0  0
    1.1701    1.7560   -0.5936 H   0  0  0  0  0  0  0  0  0  0  0  0
   -0.1217    1.0273   -2.1212 C   0  0  0  0  0  0  0  0  0  0  0  0
   -1.1522    0.6903   -2.2405 H   0  0  0  0  0  0  0  0  0  0  0  0
    0.0272    1.9359   -2.7034 H   0  0  0  0  0  0  0  0  0  0  0  0
    0.5490    0.2542   -2.4972 H   0  0  0  0  0  0  0  0  0  0  0  0
   -0.7649    2.2337   -0.1943 O   0  0  0  0  0  0  0  0  0  0  0  0
   -0.7992    2.9542   -0.8269 H   0  0  0  0  0  0  0  0  0  0  0  0
    0.5957    0.3968    1.6694 C   0  0  0  0  0  0  0  0  0  0  0  0
    1.7826    0.4750    1.9863 O   0  0  0  0  0  0  0  0  0  0  0  0
   -0.3903    0.6485    2.5417 N   0  0  0  0  0  0  0  0  0  0  0  0
   -1.3412    0.5872    2.2169 H   0  0  0  0  0  0  0  0  0  0  0  0
   -0.1675    1.0061    3.9418 C   0  0  0  0  0  0  0  0  0  0  0  0
    0.5146    1.8566    4.0016 H   0  0  0  0  0  0  0  0  0  0  0  0
   -1.1102    1.2681    4.4225 H   0  0  0  0  0  0  0  0  0  0  0  0
    0.2844    0.1632    4.4690 H   0  0  0  0  0  0  0  0  0  0  0  0
  5  6  2  0  0  0  0
  5  7  1  0  0  0  0
  2  3  1  0  0  0  0
  2  4  1  0  0  0  0
  2  5  1  0  0  0  0
  1  2  1  0  0  0  0
 19 20  2  0  0  0  0
 19 21  1  0  0  0  0
 17 18  1  0  0  0  0
 13 14  1  0  0  0  0
 13 15  1  0  0  0  0
 13 16  1  0  0  0  0
 11 12  1  0  0  0  0
 11 13  1  0  0  0  0
 11 17  1  0  0  0  0
  9 10  1  0  0  0  0
  9 11  1  0  0  0  0
  9 19  1  0  0  0  0
  7  8  1  0  0  0  0
  7  9  1  0  0  0  0
 23 24  1  0  0  0  0
 23 25  1  0  0  0  0
 23 26  1  0  0  0  0
 21 22  1  0  0  0  0
 21 23  1  0  0  0  0
M  END
$$$$
default_name
  -OEChem-01062215323D

 26 25  0     1  0  0  0  0  0999 V2000
   -2.8882   -3.2497    1.2537 H   0  0  0  0  0  0  0  0  0  0  0  0
   -2.8032   -2.3157    0.7017 C   0  0  0  0  0  0  0  0  0  0  0  0
   -3.5012   -1.5857    1.1067 H   0  0  0  0  0  0  0  0  0  0  0  0
   -3.0182   -2.4907   -0.3513 H   0  0  0  0  0  0  0  0  0  0  0  0
   -1.3942   -1.7897    0.8407 C   0  0  0  0  0  0  0  0  0  0  0  0
   -0.5672   -2.4077    1.5007 O   0  0  0  0  0  0  0  0  0  0  0  0
   -1.1222   -0.6447    0.2217 N   0  0  0  0  0  0  0  0  0  0  0  0
   -1.8592   -0.1777   -0.2863 H   0  0  0  0  0  0  0  0  0  0  0  0
    0.1838    0.0363    0.2367 C   0  0  1  0  0  0  0  0  0  0  0  0
    0.9373   -0.6457   -0.1557 H   0  0  0  0  0  0  0  0  0  0  0  0
    0.1822    1.2992   -0.6492 C   0  0  1  0  0  0  0  0  0  0  0  0
    1.1701    1.7560   -0.5936 H   0  0  0  0  0  0  0  0  0  0  0  0
   -0.1217    1.0273   -2.1212 C   0  0  0  0  0  0  0  0  0  0  0  0
   -1.1522    0.6903   -2.2405 H   0  0  0  0  0  0  0  0  0  0  0  0
    0.0272    1.9359   -2.7034 H   0  0  0  0  0  0  0  0  0  0  0  0
    0.5490    0.2542   -2.4972 H   0  0  0  0  0  0  0  0  0  0  0  0
   -0.7649    2.2337   -0.1943 O   0  0  0  0  0  0  0  0  0  0  0  0
   -0.7992    2.9542   -0.8269 H   0  0  0  0  0  0  0  0  0  0  0  0
    0.5957    0.3968    1.6694 C   0  0  0  0  0  0  0  0  0  0  0  0
    1.7483    0.7423    1.9289 O   0  0  0  0  0  0  0  0  0  0  0  0
   -0.3589    0.3457    2.6089 N   0  0  0  0  0  0  0  0  0  0  0  0
   -1.2876    0.0747    2.3304 H   0  0  0  0  0  0  0  0  0  0  0  0
   -0.1317    0.6594    4.0187 C   0  0  0  0  0  0  0  0  0  0  0  0
    0.3292    1.6451    4.1082 H   0  0  0  0  0  0  0  0  0  0  0  0
   -1.0740    0.6531    4.5668 H   0  0  0  0  0  0  0  0  0  0  0  0
    0.5445   -0.0789    4.4551 H   0  0  0  0  0  0  0  0  0  0  0  0
  5  6  2  0  0  0  0
  5  7  1  0  0  0  0
  2  3  1  0  0  0  0
  2  4  1  0  0  0  0
  2  5  1  0  0  0  0
  1  2  1  0  0  0  0
 19 20  2  0  0  0  0
 19 21  1  0  0  0  0
 17 18  1  0  0  0  0
 13 14  1  0  0  0  0
 13 15  1  0  0  0  0
 13 16  1  0  0  0  0
 11 12  1  0  0  0  0
 11 13  1  0  0  0  0
 11 17  1  0  0  0  0
  9 10  1  0  0  0  0
  9 11  1  0  0  0  0
  9 19  1  0  0  0  0
  7  8  1  0  0  0  0
  7  9  1  0  0  0  0
 23 24  1  0  0  0  0
 23 25  1  0  0  0  0
 23 26  1  0  0  0  0
 21 22  1  0  0  0  0
 21 23  1  0  0  0  0
M  END
$$$$
default_name
  -OEChem-01062215323D

 26 25  0     1  0  0  0  0  0999 V2000
   -2.8882   -3.2497    1.2537 H   0  0  0  0  0  0  0  0  0  0  0  0
   -2.8032   -2.3157    0.7017 C   0  0  0  0  0  0  0  0  0  0  0  0
   -3.5012   -1.5857    1.1067 H   0  0  0  0  0  0  0  0  0  0  0  0
   -3.0182   -2.4907   -0.3513 H   0  0  0  0  0  0  0  0  0  0  0  0
   -1.3942   -1.7897    0.8407 C   0  0  0  0  0  0  0  0  0  0  0  0
   -0.5672   -2.4077    1.5007 O   0  0  0  0  0  0  0  0  0  0  0  0
   -1.1222   -0.6447    0.2217 N   0  0  0  0  0  0  0  0  0  0  0  0
   -1.8592   -0.1777   -0.2863 H   0  0  0  0  0  0  0  0  0  0  0  0
    0.1838    0.0363    0.2367 C   0  0  1  0  0  0  0  0  0  0  0  0
    0.9373   -0.6457   -0.1557 H   0  0  0  0  0  0  0  0  0  0  0  0
    0.1822    1.2992   -0.6492 C   0  0  1  0  0  0  0  0  0  0  0  0
    1.1701    1.7560   -0.5936 H   0  0  0  0  0  0  0  0  0  0  0  0
   -0.1217    1.0273   -2.1212 C   0  0  0  0  0  0  0  0  0  0  0  0
   -1.1522    0.6903   -2.2405 H   0  0  0  0  0  0  0  0  0  0  0  0
    0.0272    1.9359   -2.7034 H   0  0  0  0  0  0  0  0  0  0  0  0
    0.5490    0.2542   -2.4972 H   0  0  0  0  0  0  0  0  0  0  0  0
   -0.7649    2.2337   -0.1943 O   0  0  0  0  0  0  0  0  0  0  0  0
   -0.7992    2.9542   -0.8269 H   0  0  0  0  0  0  0  0  0  0  0  0
    0.5957    0.3968    1.6694 C   0  0  0  0  0  0  0  0  0  0  0  0
    1.6471    0.9963    1.8942 O   0  0  0  0  0  0  0  0  0  0  0  0
   -0.2513    0.0562    2.6508 N   0  0  0  0  0  0  0  0  0  0  0  0
   -1.1050   -0.4153    2.4012 H   0  0  0  0  0  0  0  0  0  0  0  0
   -0.0086    0.3277    4.0668 C   0  0  0  0  0  0  0  0  0  0  0  0
    0.2077    1.3886    4.2076 H   0  0  0  0  0  0  0  0  0  0  0  0
   -0.8816    0.0579    4.6613 H   0  0  0  0  0  0  0  0  0  0  0  0
    0.8534   -0.2489    4.4091 H   0  0  0  0  0  0  0  0  0  0  0  0
  5  6  2  0  0  0  0
  5  7  1  0  0  0  0
  2  3  1  0  0  0  0
  2  4  1  0  0  0  0
  2  5  1  0  0  0  0
  1  2  1  0  0  0  0
 19 20  2  0  0  0  0
 19 21  1  0  0  0  0
 17 18  1  0  0  0  0
 13 14  1  0  0  0  0
 13 15  1  0  0  0  0
 13 16  1  0  0  0  0
 11 12  1  0  0  0  0
 11 13  1  0  0  0  0
 11 17  1  0  0  0  0
  9 10  1  0  0  0  0
  9 11  1  0  0  0  0
  9 19  1  0  0  0  0
  7  8  1  0  0  0  0
  7  9  1  0  0  0  0
 23 24  1  0  0  0  0
 23 25  1  0  0  0  0
 23 26  1  0  0  0  0
 21 22  1  0  0  0  0
 21 23  1  0  0  0  0
M  END
$$$$
default_name
  -OEChem-01062215323D

 26 25  0     1  0  0  0  0  0999 V2000
   -2.8882   -3.2497    1.2537 H   0  0  0  0  0  0  0  0  0  0  0  0
   -2.8032   -2.3157    0.7017 C   0  0  0  0  0  0  0  0  0  0  0  0
   -3.5012   -1.5857    1.1067 H   0  0  0  0  0  0  0  0  0  0  0  0
   -3.0182   -2.4907   -0.3513 H   0  0  0  0  0  0  0  0  0  0  0  0
   -1.3942   -1.7897    0.8407 C   0  0  0  0  0  0  0  0  0  0  0  0
   -0.5672   -2.4077    1.5007 O   0  0  0  0  0  0  0  0  0  0  0  0
   -1.1222   -0.6447    0.2217 N   0  0  0  0  0  0  0  0  0  0  0  0
   -1.8592   -0.1777   -0.2863 H   0  0  0  0  0  0  0  0  0  0  0  0
    0.1838    0.0363    0.2367 C   0  0  1  0  0  0  0  0  0  0  0  0
    0.9373   -0.6457   -0.1557 H   0  0  0  0  0  0  0  0  0  0  0  0
    0.1822    1.2992   -0.6492 C   0  0  1  0  0  0  0  0  0  0  0  0
    1.1701    1.7560   -0.5936 H   0  0  0  0  0  0  0  0  0  0  0  0
   -0.1217    1.0273   -2.1212 C   0  0  0  0  0  0  0  0  0  0  0  0
   -1.1522    0.6903   -2.2405 H   0  0  0  0  0  0  0  0  0  0  0  0
    0.0272    1.9359   -2.7034 H   0  0  0  0  0  0  0  0  0  0  0  0
    0.5490    0.2542   -2.4972 H   0  0  0  0  0  0  0  0  0  0  0  0
   -0.7649    2.2337   -0.1943 O   0  0  0  0  0  0  0  0  0  0  0  0
   -0.7992    2.9542   -0.8269 H   0  0  0  0  0  0  0  0  0  0  0  0
    0.5957    0.3968    1.6694 C   0  0  0  0  0  0  0  0  0  0  0  0
    1.4858    1.2195    1.8844 O   0  0  0  0  0  0  0  0  0  0  0  0
   -0.0748   -0.2003    2.6646 N   0  0  0  0  0  0  0  0  0  0  0  0
   -0.8059   -0.8494    2.4244 H   0  0  0  0  0  0  0  0  0  0  0  0
    0.1934    0.0338    4.0826 C   0  0  0  0  0  0  0  0  0  0  0  0
    0.1584    1.1046    4.2933 H   0  0  0  0  0  0  0  0  0  0  0  0
   -0.5461   -0.4772    4.6994 H   0  0  0  0  0  0  0  0  0  0  0  0
    1.1900   -0.3352    4.3340 H   0  0  0  0  0  0  0  0  0  0  0  0
  5  6  2  0  0  0  0
  5  7  1  0  0  0  0
  2  3  1  0  0  0  0
  2  4  1  0  0  0  0
  2  5  1  0  0  0  0
  1  2  1  0  0  0  0
 19 20  2  0  0  0  0
 19 21  1  0  0  0  0
 17 18  1  0  0  0  0
 13 14  1  0  0  0  0
 13 15  1  0  0  0  0
 13 16  1  0  0  0  0
 11 12  1  0  0  0  0
 11 13  1  0  0  0  0
 11 17  1  0  0  0  0
  9 10  1  0  0  0  0
  9 11  1  0  0  0  0
  9 19  1  0  0  0  0
  7  8  1  0  0  0  0
  7  9  1  0  0  0  0
 23 24  1  0  0  0  0
 23 25  1  0  0  0  0
 23 26  1  0  0  0  0
 21 22  1  0  0  0  0
 21 23  1  0  0  0  0
M  END
$$$$
default_name
  -OEChem-01062215323D

 26 25  0     1  0  0  0  0  0999 V2000
   -2.8882   -3.2497    1.2537 H   0  0  0  0  0  0  0  0  0  0  0  0
   -2.8032   -2.3157    0.7017 C   0  0  0  0  0  0  0  0  0  0  0  0
   -3.5012   -1.5857    1.1067 H   0  0  0  0  0  0  0  0  0  0  0  0
   -3.0182   -2.4907   -0.3513 H   0  0  0  0  0  0  0  0  0  0  0  0
   -1.3942   -1.7897    0.8407 C   0  0  0  0  0  0  0  0  0  0  0  0
   -0.5672   -2.4077    1.5007 O   0  0  0  0  0  0  0  0  0  0  0  0
   -1.1222   -0.6447    0.2217 N   0  0  0  0  0  0  0  0  0  0  0  0
   -1.8592   -0.1777   -0.2863 H   0  0  0  0  0  0  0  0  0  0  0  0
    0.1838    0.0363    0.2367 C   0  0  1  0  0  0  0  0  0  0  0  0
    0.9373   -0.6457   -0.1557 H   0  0  0  0  0  0  0  0  0  0  0  0
    0.1822    1.2992   -0.6492 C   0  0  1  0  0  0  0  0  0  0  0  0
    1.1701    1.7560   -0.5936 H   0  0  0  0  0  0  0  0  0  0  0  0
   -0.1217    1.0273   -2.1212 C   0  0  0  0  0  0  0  0  0  0  0  0
   -1.1522    0.6903   -2.2405 H   0  0  0  0  0  0  0  0  0  0  0  0
    0.0272    1.9359   -2.7034 H   0  0  0  0  0  0  0  0  0  0  0  0
    0.5490    0.2542   -2.4972 H   0  0  0  0  0  0  0  0  0  0  0  0
   -0.7649    2.2337   -0.1943 O   0  0  0  0  0  0  0  0  0  0  0  0
   -0.7992    2.9542   -0.8269 H   0  0  0  0  0  0  0  0  0  0  0  0
    0.5957    0.3968    1.6694 C   0  0  0  0  0  0  0  0  0  0  0  0
    1.2754    1.3968    1.9003 O   0  0  0  0  0  0  0  0  0  0  0  0
    0.1585   -0.4064    2.6493 N   0  0  0  0  0  0  0  0  0  0  0  0
   -0.4105   -1.1980    2.3985 H   0  0  0  0  0  0  0  0  0  0  0  0
    0.4605   -0.2023    4.0653 C   0  0  0  0  0  0  0  0  0  0  0  0
    0.1847    0.8123    4.3592 H   0  0  0  0  0  0  0  0  0  0  0  0
   -0.0904   -0.9156    4.6787 H   0  0  0  0  0  0  0  0  0  0  0  0
    1.5315   -0.3320    4.2350 H   0  0  0  0  0  0  0  0  0  0  0  0
  5  6  2  0  0  0  0
  5  7  1  0  0  0  0
  2  3  1  0  0  0  0
  2  4  1  0  0  0  0
  2  5  1  0  0  0  0
  1  2  1  0  0  0  0
 19 20  2  0  0  0  0
 19 21  1  0  0  0  0
 17 18  1  0  0  0  0
 13 14  1  0  0  0  0
 13 15  1  0  0  0  0
 13 16  1  0  0  0  0
 11 12  1  0  0  0  0
 11 13  1  0  0  0  0
 11 17  1  0  0  0  0
  9 10  1  0  0  0  0
  9 11  1  0  0  0  0
  9 19  1  0  0  0  0
  7  8  1  0  0  0  0
  7  9  1  0  0  0  0
 23 24  1  0  0  0  0
 23 25  1  0  0  0  0
 23 26  1  0  0  0  0
 21 22  1  0  0  0  0
 21 23  1  0  0  0  0
M  END
$$$$
default_name
  -OEChem-01062215323D

 26 25  0     1  0  0  0  0  0999 V2000
   -2.8882   -3.2497    1.2537 H   0  0  0  0  0  0  0  0  0  0  0  0
   -2.8032   -2.3157    0.7017 C   0  0  0  0  0  0  0  0  0  0  0  0
   -3.5012   -1.5857    1.1067 H   0  0  0  0  0  0  0  0  0  0  0  0
   -3.0182   -2.4907   -0.3513 H   0  0  0  0  0  0  0  0  0  0  0  0
   -1.3942   -1.7897    0.8407 C   0  0  0  0  0  0  0  0  0  0  0  0
   -0.5672   -2.4077    1.5007 O   0  0  0  0  0  0  0  0  0  0  0  0
   -1.1222   -0.6447    0.2217 N   0  0  0  0  0  0  0  0  0  0  0  0
   -1.8592   -0.1777   -0.2863 H   0  0  0  0  0  0  0  0  0  0  0  0
    0.1838    0.0363    0.2367 C   0  0  1  0  0  0  0  0  0  0  0  0
    0.9373   -0.6457   -0.1557 H   0  0  0  0  0  0  0  0  0  0  0  0
    0.1822    1.2992   -0.6492 C   0  0  1  0  0  0  0  0  0  0  0  0
    1.1701    1.7560   -0.5936 H   0  0  0  0  0  0  0  0  0  0  0  0
   -0.1217    1.0273   -2.1212 C   0  0  0  0  0  0  0  0  0  0  0  0
   -1.1522    0.6903   -2.2405 H   0  0  0  0  0  0  0  0  0  0  0  0
    0.0272    1.9359   -2.7034 H   0  0  0  0  0  0  0  0  0  0  0  0
    0.5490    0.2542   -2.4972 H   0  0  0  0  0  0  0  0  0  0  0  0
   -0.7649    2.2337   -0.1943 O   0  0  0  0  0  0  0  0  0  0  0  0
   -0.7992    2.9542   -0.8269 H   0  0  0  0  0  0  0  0  0  0  0  0
    0.5957    0.3968    1.6694 C   0  0  0  0  0  0  0  0  0  0  0  0
    1.0303    1.5160    1.9407 O   0  0  0  0  0  0  0  0  0  0  0  0
    0.4328   -0.5480    2.6061 N   0  0  0  0  0  0  0  0  0  0  0  0
    0.0540   -1.4374    2.3251 H   0  0  0  0  0  0  0  0  0  0  0  0
    0.7746   -0.3647    4.0158 C   0  0  0  0  0  0  0  0  0  0  0  0
    0.2847    0.5318    4.4010 H   0  0  0  0  0  0  0  0  0  0  0  0
    0.4546   -1.2274    4.6004 H   0  0  0  0  0  0  0  0  0  0  0  0
    1.8546   -0.2394    4.1188 H   0  0  0  0  0  0  0  0  0  0  0  0
  5  6  2  0  0  0  0
  5  7  1  0  0  0  0
  2  3  1  0  0  0  0
  2  4  1  0  0  0  0
  2  5  1  0  0  0  0
  1  2  1  0  0  0  0
 19 20  2  0  0  0  0
 19 21  1  0  0  0  0
 17 18  1  0  0  0  0
 13 14  1  0  0  0  0
 13 15  1  0  0  0  0
 13 16  1  0  0  0  0
 11 12  1  0  0  0  0
 11 13  1  0  0  0  0
 11 17  1  0  0  0  0
  9 10  1  0  0  0  0
  9 11  1  0  0  0  0
  9 19  1  0  0  0  0
  7  8  1  0  0  0  0
  7  9  1  0  0  0  0
 23 24  1  0  0  0  0
 23 25  1  0  0  0  0
 23 26  1  0  0  0  0
 21 22  1  0  0  0  0
 21 23  1  0  0  0  0
M  END
$$$$
default_name
  -OEChem-01062215323D

 26 25  0     1  0  0  0  0  0999 V2000
   -2.8882   -3.2497    1.2537 H   0  0  0  0  0  0  0  0  0  0  0  0
   -2.8032   -2.3157    0.7017 C   0  0  0  0  0  0  0  0  0  0  0  0
   -3.5012   -1.5857    1.1067 H   0  0  0  0  0  0  0  0  0  0  0  0
   -3.0182   -2.4907   -0.3513 H   0  0  0  0  0  0  0  0  0  0  0  0
   -1.3942   -1.7897    0.8407 C   0  0  0  0  0  0  0  0  0  0  0  0
   -0.5672   -2.4077    1.5007 O   0  0  0  0  0  0  0  0  0  0  0  0
   -1.1222   -0.6447    0.2217 N   0  0  0  0  0  0  0  0  0  0  0  0
   -1.8592   -0.1777   -0.2863 H   0  0  0  0  0  0  0  0  0  0  0  0
    0.1838    0.0363    0.2367 C   0  0  1  0  0  0  0  0  0  0  0  0
    0.9373   -0.6457   -0.1557 H   0  0  0  0  0  0  0  0  0  0  0  0
    0.1822    1.2992   -0.6492 C   0  0  1  0  0  0  0  0  0  0  0  0
    1.1701    1.7560   -0.5936 H   0  0  0  0  0  0  0  0  0  0  0  0
   -0.1217    1.0273   -2.1212 C   0  0  0  0  0  0  0  0  0  0  0  0
   -1.1522    0.6903   -2.2405 H   0  0  0  0  0  0  0  0  0  0  0  0
    0.0272    1.9359   -2.7034 H   0  0  0  0  0  0  0  0  0  0  0  0
    0.5490    0.2542   -2.4972 H   0  0  0  0  0  0  0  0  0  0  0  0
   -0.7649    2.2337   -0.1943 O   0  0  0  0  0  0  0  0  0  0  0  0
   -0.7992    2.9542   -0.8269 H   0  0  0  0  0  0  0  0  0  0  0  0
    0.5957    0.3968    1.6694 C   0  0  0  0  0  0  0  0  0  0  0  0
    0.7672    1.5692    2.0030 O   0  0  0  0  0  0  0  0  0  0  0  0
    0.7293   -0.6154    2.5378 N   0  0  0  0  0  0  0  0  0  0  0  0
    0.5562   -1.5512    2.2094 H   0  0  0  0  0  0  0  0  0  0  0  0
    1.1142   -0.4421    3.9376 C   0  0  0  0  0  0  0  0  0  0  0  0
    0.4517    0.2822    4.4158 H   0  0  0  0  0  0  0  0  0  0  0  0
    1.0516   -1.3913    4.4700 H   0  0  0  0  0  0  0  0  0  0  0  0
    2.1372   -0.0638    3.9934 H   0  0  0  0  0  0  0  0  0  0  0  0
  5  6  2  0  0  0  0
  5  7  1  0  0  0  0
  2  3  1  0  0  0  0
  2  4  1  0  0  0  0
  2  5  1  0  0  0  0
  1  2  1  0  0  0  0
 19 20  2  0  0  0  0
 19 21  1  0  0  0  0
 17 18  1  0  0  0  0
 13 14  1  0  0  0  0
 13 15  1  0  0  0  0
 13 16  1  0  0  0  0
 11 12  1  0  0  0  0
 11 13  1  0  0  0  0
 11 17  1  0  0  0  0
  9 10  1  0  0  0  0
  9 11  1  0  0  0  0
  9 19  1  0  0  0  0
  7  8  1  0  0  0  0
  7  9  1  0  0  0  0
 23 24  1  0  0  0  0
 23 25  1  0  0  0  0
 23 26  1  0  0  0  0
 21 22  1  0  0  0  0
 21 23  1  0  0  0  0
M  END
$$$$
default_name
  -OEChem-01062215323D

 26 25  0     1  0  0  0  0  0999 V2000
   -2.8882   -3.2497    1.2537 H   0  0  0  0  0  0  0  0  0  0  0  0
   -2.8032   -2.3157    0.7017 C   0  0  0  0  0  0  0  0  0  0  0  0
   -3.5012   -1.5857    1.1067 H   0  0  0  0  0  0  0  0  0  0  0  0
   -3.0182   -2.4907   -0.3513 H   0  0  0  0  0  0  0  0  0  0  0  0
   -1.3942   -1.7897    0.8407 C   0  0  0  0  0  0  0  0  0  0  0  0
   -0.5672   -2.4077    1.5007 O   0  0  0  0  0  0  0  0  0  0  0  0
   -1.1222   -0.6447    0.2217 N   0  0  0  0  0  0  0  0  0  0  0  0
   -1.8592   -0.1777   -0.2863 H   0  0  0  0  0  0  0  0  0  0  0  0
    0.1838    0.0363    0.2367 C   0  0  1  0  0  0  0  0  0  0  0  0
    0.9373   -0.6457   -0.1557 H   0  0  0  0  0  0  0  0  0  0  0  0
    0.1822    1.2992   -0.6492 C   0  0  1  0  0  0  0  0  0  0  0  0
    1.1701    1.7560   -0.5936 H   0  0  0  0  0  0  0  0  0  0  0  0
   -0.1217    1.0273   -2.1212 C   0  0  0  0  0  0  0  0  0  0  0  0
   -1.1522    0.6903   -2.2405 H   0  0  0  0  0  0  0  0  0  0  0  0
    0.0272    1.9359   -2.7034 H   0  0  0  0  0  0  0  0  0  0  0  0
    0.5490    0.2542   -2.4972 H   0  0  0  0  0  0  0  0  0  0  0  0
   -0.7649    2.2337   -0.1943 O   0  0  0  0  0  0  0  0  0  0  0  0
   -0.7992    2.9542   -0.8269 H   0  0  0  0  0  0  0  0  0  0  0  0
    0.5957    0.3968    1.6694 C   0  0  0  0  0  0  0  0  0  0  0  0
    0.5040    1.5526    2.0828 O   0  0  0  0  0  0  0  0  0  0  0  0
    1.0279   -0.6041    2.4491 N   0  0  0  0  0  0  0  0  0  0  0  0
    1.0616   -1.5316    2.0591 H   0  0  0  0  0  0  0  0  0  0  0  0
    1.4562   -0.4293    3.8361 C   0  0  0  0  0  0  0  0  0  0  0  0
    0.6743    0.0804    4.4026 H   0  0  0  0  0  0  0  0  0  0  0  0
    1.6600   -1.3963    4.2964 H   0  0  0  0  0  0  0  0  0  0  0  0
    2.3600    0.1828    3.8672 H   0  0  0  0  0  0  0  0  0  0  0  0
  5  6  2  0  0  0  0
  5  7  1  0  0  0  0
  2  3  1  0  0  0  0
  2  4  1  0  0  0  0
  2  5  1  0  0  0  0
  1  2  1  0  0  0  0
 19 20  2  0  0  0  0
 19 21  1  0  0  0  0
 17 18  1  0  0  0  0
 13 14  1  0  0  0  0
 13 15  1  0  0  0  0
 13 16  1  0  0  0  0
 11 12  1  0  0  0  0
 11 13  1  0  0  0  0
 11 17  1  0  0  0  0
  9 10  1  0  0  0  0
  9 11  1  0  0  0  0
  9 19  1  0  0  0  0
  7  8  1  0  0  0  0
  7  9  1  0  0  0  0
 23 24  1  0  0  0  0
 23 25  1  0  0  0  0
 23 26  1  0  0  0  0
 21 22  1  0  0  0  0
 21 23  1  0  0  0  0
M  END
$$$$
default_name
  -OEChem-01062215323D

 26 25  0     1  0  0  0  0  0999 V2000
   -2.8882   -3.2497    1.2537 H   0  0  0  0  0  0  0  0  0  0  0  0
   -2.8032   -2.3157    0.7017 C   0  0  0  0  0  0  0  0  0  0  0  0
   -3.5012   -1.5857    1.1067 H   0  0  0  0  0  0  0  0  0  0  0  0
   -3.0182   -2.4907   -0.3513 H   0  0  0  0  0  0  0  0  0  0  0  0
   -1.3942   -1.7897    0.8407 C   0  0  0  0  0  0  0  0  0  0  0  0
   -0.5672   -2.4077    1.5007 O   0  0  0  0  0  0  0  0  0  0  0  0
   -1.1222   -0.6447    0.2217 N   0  0  0  0  0  0  0  0  0  0  0  0
   -1.8592   -0.1777   -0.2863 H   0  0  0  0  0  0  0  0  0  0  0  0
    0.1838    0.0363    0.2367 C   0  0  1  0  0  0  0  0  0  0  0  0
    0.9373   -0.6457   -0.1557 H   0  0  0  0  0  0  0  0  0  0  0  0
    0.1822    1.2992   -0.6492 C   0  0  1  0  0  0  0  0  0  0  0  0
    1.1701    1.7560   -0.5936 H   0  0  0  0  0  0  0  0  0  0  0  0
   -0.1217    1.0273   -2.1212 C   0  0  0  0  0  0  0  0  0  0  0  0
   -1.1522    0.6903   -2.2405 H   0  0  0  0  0  0  0  0  0  0  0  0
    0.0272    1.9359   -2.7034 H   0  0  0  0  0  0  0  0  0  0  0  0
    0.5490    0.2542   -2.4972 H   0  0  0  0  0  0  0  0  0  0  0  0
   -0.7649    2.2337   -0.1943 O   0  0  0  0  0  0  0  0  0  0  0  0
   -0.7992    2.9542   -0.8269 H   0  0  0  0  0  0  0  0  0  0  0  0
    0.5957    0.3968    1.6694 C   0  0  0  0  0  0  0  0  0  0  0  0
    0.2587    1.4673    2.1748 O   0  0  0  0  0  0  0  0  0  0  0  0
    1.3082   -0.5149    2.3461 N   0  0  0  0  0  0  0  0  0  0  0  0
    1.5360   -1.3801    1.8846 H   0  0  0  0  0  0  0  0  0  0  0  0
    1.7773   -0.3273    3.7181 C   0  0  0  0  0  0  0  0  0  0  0  0
    0.9373   -0.0599    4.3623 H   0  0  0  0  0  0  0  0  0  0  0  0
    2.2382   -1.2420    4.0913 H   0  0  0  0  0  0  0  0  0  0  0  0
    2.5080    0.4837    3.7490 H   0  0  0  0  0  0  0  0  0  0  0  0
  5  6  2  0  0  0  0
  5  7  1  0  0  0  0
  2  3  1  0  0  0  0
  2  4  1  0  0  0  0
  2  5  1  0  0  0  0
  1  2  1  0  0  0  0
 19 20  2  0  0  0  0
 19 21  1  0  0  0  0
 17 18  1  0  0  0  0
 13 14  1  0  0  0  0
 13 15  1  0  0  0  0
 13 16  1  0  0  0  0
 11 12  1  0  0  0  0
 11 13  1  0  0  0  0
 11 17  1  0  0  0  0
  9 10  1  0  0  0  0
  9 11  1  0  0  0  0
  9 19  1  0  0  0  0
  7  8  1  0  0  0  0
  7  9  1  0  0  0  0
 23 24  1  0  0  0  0
 23 25  1  0  0  0  0
 23 26  1  0  0  0  0
 21 22  1  0  0  0  0
 21 23  1  0  0  0  0
M  END
$$$$
default_name
  -OEChem-01062215323D

 26 25  0     1  0  0  0  0  0999 V2000
   -2.8882   -3.2497    1.2537 H   0  0  0  0  0  0  0  0  0  0  0  0
   -2.8032   -2.3157    0.7017 C   0  0  0  0  0  0  0  0  0  0  0  0
   -3.5012   -1.5857    1.1067 H   0  0  0  0  0  0  0  0  0  0  0  0
   -3.0182   -2.4907   -0.3513 H   0  0  0  0  0  0  0  0  0  0  0  0
   -1.3942   -1.7897    0.8407 C   0  0  0  0  0  0  0  0  0  0  0  0
   -0.5672   -2.4077    1.5007 O   0  0  0  0  0  0  0  0  0  0  0  0
   -1.1222   -0.6447    0.2217 N   0  0  0  0  0  0  0  0  0  0  0  0
   -1.8592   -0.1777   -0.2863 H   0  0  0  0  0  0  0  0  0  0  0  0
    0.1838    0.0363    0.2367 C   0  0  1  0  0  0  0  0  0  0  0  0
    0.9373   -0.6457   -0.1557 H   0  0  0  0  0  0  0  0  0  0  0  0
    0.1822    1.2992   -0.6492 C   0  0  1  0  0  0  0  0  0  0  0  0
    1.1701    1.7560   -0.5936 H   0  0  0  0  0  0  0  0  0  0  0  0
   -0.1217    1.0273   -2.1212 C   0  0  0  0  0  0  0  0  0  0  0  0
   -1.1522    0.6903   -2.2405 H   0  0  0  0  0  0  0  0  0  0  0  0
    0.0272    1.9359   -2.7034 H   0  0  0  0  0  0  0  0  0  0  0  0
    0.5490    0.2542   -2.4972 H   0  0  0  0  0  0  0  0  0  0  0  0
   -0.7649    2.2337   -0.1943 O   0  0  0  0  0  0  0  0  0  0  0  0
   -0.7992    2.9542   -0.8269 H   0  0  0  0  0  0  0  0  0  0  0  0
    0.5957    0.3968    1.6694 C   0  0  0  0  0  0  0  0  0  0  0  0
    0.0479    1.3193    2.2727 O   0  0  0  0  0  0  0  0  0  0  0  0
    1.5510   -0.3537    2.2357 N   0  0  0  0  0  0  0  0  0  0  0  0
    1.9470   -1.1068    1.6977 H   0  0  0  0  0  0  0  0  0  0  0  0
    2.0556   -0.1428    3.5917 C   0  0  0  0  0  0  0  0  0  0  0  0
    1.2228   -0.1289    4.2976 H   0  0  0  0  0  0  0  0  0  0  0  0
    2.7470   -0.9388    3.8687 H   0  0  0  0  0  0  0  0  0  0  0  0
    2.5710    0.8184    3.6467 H   0  0  0  0  0  0  0  0  0  0  0  0
  5  6  2  0  0  0  0
  5  7  1  0  0  0  0
  2  3  1  0  0  0  0
  2  4  1  0  0  0  0
  2  5  1  0  0  0  0
  1  2  1  0  0  0  0
 19 20  2  0  0  0  0
 19 21  1  0  0  0  0
 17 18  1  0  0  0  0
 13 14  1  0  0  0  0
 13 15  1  0  0  0  0
 13 16  1  0  0  0  0
 11 12  1  0  0  0  0
 11 13  1  0  0  0  0
 11 17  1  0  0  0  0
  9 10  1  0  0  0  0
  9 11  1  0  0  0  0
  9 19  1  0  0  0  0
  7  8  1  0  0  0  0
  7  9  1  0  0  0  0
 23 24  1  0  0  0  0
 23 25  1  0  0  0  0
 23 26  1  0  0  0  0
 21 22  1  0  0  0  0
 21 23  1  0  0  0  0
M  END
$$$$
default_name
  -OEChem-01062215323D

 26 25  0     1  0  0  0  0  0999 V2000
   -2.8882   -3.2497    1.2537 H   0  0  0  0  0  0  0  0  0  0  0  0
   -2.8032   -2.3157    0.7017 C   0  0  0  0  0  0  0  0  0  0  0  0
   -3.5012   -1.5857    1.1067 H   0  0  0  0  0  0  0  0  0  0  0  0
   -3.0182   -2.4907   -0.3513 H   0  0  0  0  0  0  0  0  0  0  0  0
   -1.3942   -1.7897    0.8407 C   0  0  0  0  0  0  0  0  0  0  0  0
   -0.5672   -2.4077    1.5007 O   0  0  0  0  0  0  0  0  0  0  0  0
   -1.1222   -0.6447    0.2217 N   0  0  0  0  0  0  0  0  0  0  0  0
   -1.8592   -0.1777   -0.2863 H   0  0  0  0  0  0  0  0  0  0  0  0
    0.1838    0.0363    0.2367 C   0  0  1  0  0  0  0  0  0  0  0  0
    0.9373   -0.6457   -0.1557 H   0  0  0  0  0  0  0  0  0  0  0  0
    0.1822    1.2992   -0.6492 C   0  0  1  0  0  0  0  0  0  0  0  0
    1.1701    1.7560   -0.5936 H   0  0  0  0  0  0  0  0  0  0  0  0
   -0.1217    1.0273   -2.1212 C   0  0  0  0  0  0  0  0  0  0  0  0
   -1.1522    0.6903   -2.2405 H   0  0  0  0  0  0  0  0  0  0  0  0
    0.0272    1.9359   -2.7034 H   0  0  0  0  0  0  0  0  0  0  0  0
    0.5490    0.2542   -2.4972 H   0  0  0  0  0  0  0  0  0  0  0  0
   -0.7649    2.2337   -0.1943 O   0  0  0  0  0  0  0  0  0  0  0  0
   -0.7992    2.9542   -0.8269 H   0  0  0  0  0  0  0  0  0  0  0  0
    0.5957    0.3968    1.6694 C   0  0  0  0  0  0  0  0  0  0  0  0
   -0.1140    1.1185    2.3698 O   0  0  0  0  0  0  0  0  0  0  0  0
    1.7400   -0.1317    2.1255 N   0  0  0  0  0  0  0  0  0  0  0  0
    2.2665   -0.7306    1.5111 H   0  0  0  0  0  0  0  0  0  0  0  0
    2.2721    0.1114    3.4655 C   0  0  0  0  0  0  0  0  0  0  0  0
    1.5112   -0.1221    4.2129 H   0  0  0  0  0  0  0  0  0  0  0  0
    3.1516   -0.5075    3.6438 H   0  0  0  0  0  0  0  0  0  0  0  0
    2.5447    1.1639    3.5673 H   0  0  0  0  0  0  0  0  0  0  0  0
  5  6  2  0  0  0  0
  5  7  1  0  0  0  0
  2  3  1  0  0  0  0
  2  4  1  0  0  0  0
  2  5  1  0  0  0  0
  1  2  1  0  0  0  0
 19 20  2  0  0  0  0
 19 21  1  0  0  0  0
 17 18  1  0  0  0  0
 13 14  1  0  0  0  0
 13 15  1  0  0  0  0
 13 16  1  0  0  0  0
 11 12  1  0  0  0  0
 11 13  1  0  0  0  0
 11 17  1  0  0  0  0
  9 10  1  0  0  0  0
  9 11  1  0  0  0  0
  9 19  1  0  0  0  0
  7  8  1  0  0  0  0
  7  9  1  0  0  0  0
 23 24  1  0  0  0  0
 23 25  1  0  0  0  0
 23 26  1  0  0  0  0
 21 22  1  0  0  0  0
 21 23  1  0  0  0  0
M  END
$$$$
default_name
  -OEChem-01062215323D

 26 25  0     1  0  0  0  0  0999 V2000
   -2.8882   -3.2497    1.2537 H   0  0  0  0  0  0  0  0  0  0  0  0
   -2.8032   -2.3157    0.7017 C   0  0  0  0  0  0  0  0  0  0  0  0
   -3.5012   -1.5857    1.1067 H   0  0  0  0  0  0  0  0  0  0  0  0
   -3.0182   -2.4907   -0.3513 H   0  0  0  0  0  0  0  0  0  0  0  0
   -1.3942   -1.7897    0.8407 C   0  0  0  0  0  0  0  0  0  0  0  0
   -0.5672   -2.4077    1.5007 O   0  0  0  0  0  0  0  0  0  0  0  0
   -1.1222   -0.6447    0.2217 N   0  0  0  0  0  0  0  0  0  0  0  0
   -1.8592   -0.1777   -0.2863 H   0  0  0  0  0  0  0  0  0  0  0  0
    0.1838    0.0363    0.2367 C   0  0  1  0  0  0  0  0  0  0  0  0
    0.9373   -0.6457   -0.1557 H   0  0  0  0  0  0  0  0  0  0  0  0
    0.1822    1.2992   -0.6492 C   0  0  1  0  0  0  0  0  0  0  0  0
    1.1701    1.7560   -0.5936 H   0  0  0  0  0  0  0  0  0  0  0  0
   -0.1217    1.0273   -2.1212 C   0  0  0  0  0  0  0  0  0  0  0  0
   -1.1522    0.6903   -2.2405 H   0  0  0  0  0  0  0  0  0  0  0  0
    0.0272    1.9359   -2.7034 H   0  0  0  0  0  0  0  0  0  0  0  0
    0.5490    0.2542   -2.4972 H   0  0  0  0  0  0  0  0  0  0  0  0
   -0.7649    2.2337   -0.1943 O   0  0  0  0  0  0  0  0  0  0  0  0
   -0.7992    2.9542   -0.8269 H   0  0  0  0  0  0  0  0  0  0  0  0
    0.5957    0.3968    1.6694 C   0  0  0  0  0  0  0  0  0  0  0  0
   -0.2159    0.8787    2.4594 O   0  0  0  0  0  0  0  0  0  0  0  0
    1.8621    0.1362    2.0230 N   0  0  0  0  0  0  0  0  0  0  0  0
    2.4729   -0.2769    1.3376 H   0  0  0  0  0  0  0  0  0  0  0  0
    2.4121    0.4180    3.3480 C   0  0  0  0  0  0  0  0  0  0  0  0
    1.7831   -0.0398    4.1141 H   0  0  0  0  0  0  0  0  0  0  0  0
    3.4245    0.0226    3.4320 H   0  0  0  0  0  0  0  0  0  0  0  0
    2.4310    1.4969    3.5162 H   0  0  0  0  0  0  0  0  0  0  0  0
  5  6  2  0  0  0  0
  5  7  1  0  0  0  0
  2  3  1  0  0  0  0
  2  4  1  0  0  0  0
  2  5  1  0  0  0  0
  1  2  1  0  0  0  0
 19 20  2  0  0  0  0
 19 21  1  0  0  0  0
 17 18  1  0  0  0  0
 13 14  1  0  0  0  0
 13 15  1  0  0  0  0
 13 16  1  0  0  0  0
 11 12  1  0  0  0  0
 11 13  1  0  0  0  0
 11 17  1  0  0  0  0
  9 10  1  0  0  0  0
  9 11  1  0  0  0  0
  9 19  1  0  0  0  0
  7  8  1  0  0  0  0
  7  9  1  0  0  0  0
 23 24  1  0  0  0  0
 23 25  1  0  0  0  0
 23 26  1  0  0  0  0
 21 22  1  0  0  0  0
 21 23  1  0  0  0  0
M  END
$$$$
default_name
  -OEChem-01062215323D

 26 25  0     1  0  0  0  0  0999 V2000
   -2.8882   -3.2497    1.2537 H   0  0  0  0  0  0  0  0  0  0  0  0
   -2.8032   -2.3157    0.7017 C   0  0  0  0  0  0  0  0  0  0  0  0
   -3.5012   -1.5857    1.1067 H   0  0  0  0  0  0  0  0  0  0  0  0
   -3.0182   -2.4907   -0.3513 H   0  0  0  0  0  0  0  0  0  0  0  0
   -1.3942   -1.7897    0.8407 C   0  0  0  0  0  0  0  0  0  0  0  0
   -0.5672   -2.4077    1.5007 O   0  0  0  0  0  0  0  0  0  0  0  0
   -1.1222   -0.6447    0.2217 N   0  0  0  0  0  0  0  0  0  0  0  0
   -1.8592   -0.1777   -0.2863 H   0  0  0  0  0  0  0  0  0  0  0  0
    0.1838    0.0363    0.2367 C   0  0  1  0  0  0  0  0  0  0  0  0
    0.9373   -0.6457   -0.1557 H   0  0  0  0  0  0  0  0  0  0  0  0
    0.1822    1.2992   -0.6492 C   0  0  1  0  0  0  0  0  0  0  0  0
    1.1701    1.7560   -0.5936 H   0  0  0  0  0  0  0  0  0  0  0  0
   -0.1217    1.0273   -2.1212 C   0  0  0  0  0  0  0  0  0  0  0  0
   -1.1522    0.6903   -2.2405 H   0  0  0  0  0  0  0  0  0  0  0  0
    0.0272    1.9359   -2.7034 H   0  0  0  0  0  0  0  0  0  0  0  0
    0.5490    0.2542   -2.4972 H   0  0  0  0  0  0  0  0  0  0  0  0
   -0.7649    2.2337   -0.1943 O   0  0  0  0  0  0  0  0  0  0  0  0
   -0.7992    2.9542   -0.8269 H   0  0  0  0  0  0  0  0  0  0  0  0
    0.5957    0.3968    1.6694 C   0  0  0  0  0  0  0  0  0  0  0  0
   -0.2509    0.6162    2.5355 O   0  0  0  0  0  0  0  0  0  0  0  0
    1.9090    0.4315    1.9352 N   0  0  0  0  0  0  0  0  0  0  0  0
    2.5520    0.2232    1.1891 H   0  0  0  0  0  0  0  0  0  0  0  0
    2.4660    0.7563    3.2474 C   0  0  0  0  0  0  0  0  0  0  0  0
    2.0198    0.1122    4.0077 H   0  0  0  0  0  0  0  0  0  0  0  0
    3.5470    0.6153    3.2476 H   0  0  0  0  0  0  0  0  0  0  0  0
    2.2375    1.7946    3.4969 H   0  0  0  0  0  0  0  0  0  0  0  0
  5  6  2  0  0  0  0
  5  7  1  0  0  0  0
  2  3  1  0  0  0  0
  2  4  1  0  0  0  0
  2  5  1  0  0  0  0
  1  2  1  0  0  0  0
 19 20  2  0  0  0  0
 19 21  1  0  0  0  0
 17 18  1  0  0  0  0
 13 14  1  0  0  0  0
 13 15  1  0  0  0  0
 13 16  1  0  0  0  0
 11 12  1  0  0  0  0
 11 13  1  0  0  0  0
 11 17  1  0  0  0  0
  9 10  1  0  0  0  0
  9 11  1  0  0  0  0
  9 19  1  0  0  0  0
  7  8  1  0  0  0  0
  7  9  1  0  0  0  0
 23 24  1  0  0  0  0
 23 25  1  0  0  0  0
 23 26  1  0  0  0  0
 21 22  1  0  0  0  0
 21 23  1  0  0  0  0
M  END
$$$$
default_name
  -OEChem-01062215323D

 26 25  0     1  0  0  0  0  0999 V2000
   -2.8882   -3.2497    1.2537 H   0  0  0  0  0  0  0  0  0  0  0  0
   -2.8032   -2.3157    0.7017 C   0  0  0  0  0  0  0  0  0  0  0  0
   -3.5012   -1.5857    1.1067 H   0  0  0  0  0  0  0  0  0  0  0  0
   -3.0182   -2.4907   -0.3513 H   0  0  0  0  0  0  0  0  0  0  0  0
   -1.3942   -1.7897    0.8407 C   0  0  0  0  0  0  0  0  0  0  0  0
   -0.5672   -2.4077    1.5007 O   0  0  0  0  0  0  0  0  0  0  0  0
   -1.1222   -0.6447    0.2217 N   0  0  0  0  0  0  0  0  0  0  0  0
   -1.8592   -0.1777   -0.2863 H   0  0  0  0  0  0  0  0  0  0  0  0
    0.1838    0.0363    0.2367 C   0  0  1  0  0  0  0  0  0  0  0  0
    0.9373   -0.6457   -0.1557 H   0  0  0  0  0  0  0  0  0  0  0  0
    0.1822    1.2992   -0.6492 C   0  0  1  0  0  0  0  0  0  0  0  0
    1.1701    1.7560   -0.5936 H   0  0  0  0  0  0  0  0  0  0  0  0
   -0.1217    1.0273   -2.1212 C   0  0  0  0  0  0  0  0  0  0  0  0
   -1.1522    0.6903   -2.2405 H   0  0  0  0  0  0  0  0  0  0  0  0
    0.0272    1.9359   -2.7034 H   0  0  0  0  0  0  0  0  0  0  0  0
    0.5490    0.2542   -2.4972 H   0  0  0  0  0  0  0  0  0  0  0  0
   -0.7649    2.2337   -0.1943 O   0  0  0  0  0  0  0  0  0  0  0  0
   -0.7992    2.9542   -0.8269 H   0  0  0  0  0  0  0  0  0  0  0  0
    0.5957    0.3968    1.6694 C   0  0  0  0  0  0  0  0  0  0  0  0
   -0.2167    0.3489    2.5929 O   0  0  0  0  0  0  0  0  0  0  0  0
    1.8776    0.7342    1.8681 N   0  0  0  0  0  0  0  0  0  0  0  0
    2.4984    0.7358    1.0755 H   0  0  0  0  0  0  0  0  0  0  0  0
    2.4303    1.1030    3.1705 C   0  0  0  0  0  0  0  0  0  0  0  0
    2.2052    0.3237    3.9012 H   0  0  0  0  0  0  0  0  0  0  0  0
    3.5109    1.2302    3.1033 H   0  0  0  0  0  0  0  0  0  0  0  0
    1.9774    2.0367    3.5108 H   0  0  0  0  0  0  0  0  0  0  0  0
  5  6  2  0  0  0  0
  5  7  1  0  0  0  0
  2  3  1  0  0  0  0
  2  4  1  0  0  0  0
  2  5  1  0  0  0  0
  1  2  1  0  0  0  0
 19 20  2  0  0  0  0
 19 21  1  0  0  0  0
 17 18  1  0  0  0  0
 13 14  1  0  0  0  0
 13 15  1  0  0  0  0
 13 16  1  0  0  0  0
 11 12  1  0  0  0  0
 11 13  1  0  0  0  0
 11 17  1  0  0  0  0
  9 10  1  0  0  0  0
  9 11  1  0  0  0  0
  9 19  1  0  0  0  0
  7  8  1  0  0  0  0
  7  9  1  0  0  0  0
 23 24  1  0  0  0  0
 23 25  1  0  0  0  0
 23 26  1  0  0  0  0
 21 22  1  0  0  0  0
 21 23  1  0  0  0  0
M  END
$$$$
default_name
  -OEChem-01062215323D

 26 25  0     1  0  0  0  0  0999 V2000
   -2.8882   -3.2497    1.2537 H   0  0  0  0  0  0  0  0  0  0  0  0
   -2.8032   -2.3157    0.7017 C   0  0  0  0  0  0  0  0  0  0  0  0
   -3.5012   -1.5857    1.1067 H   0  0  0  0  0  0  0  0  0  0  0  0
   -3.0182   -2.4907   -0.3513 H   0  0  0  0  0  0  0  0  0  0  0  0
   -1.3942   -1.7897    0.8407 C   0  0  0  0  0  0  0  0  0  0  0  0
   -0.5672   -2.4077    1.5007 O   0  0  0  0  0  0  0  0  0  0  0  0
   -1.1222   -0.6447    0.2217 N   0  0  0  0  0  0  0  0  0  0  0  0
   -1.8592   -0.1777   -0.2863 H   0  0  0  0  0  0  0  0  0  0  0  0
    0.1838    0.0363    0.2367 C   0  0  1  0  0  0  0  0  0  0  0  0
    0.8770   -0.5249   -0.3889 H   0  0  0  0  0  0  0  0  0  0  0  0
    0.0903    1.4685   -0.3288 C   0  0  1  0  0  0  0  0  0  0  0  0
    1.0828    1.9167   -0.2881 H   0  0  0  0  0  0  0  0  0  0  0  0
   -0.3911    1.5364   -1.7768 C   0  0  0  0  0  0  0  0  0  0  0  0
   -1.4322    1.2186   -1.8464 H   0  0  0  0  0  0  0  0  0  0  0  0
   -0.3028    2.5566   -2.1483 H   0  0  0  0  0  0  0  0  0  0  0  0
    0.2208    0.8814   -2.3976 H   0  0  0  0  0  0  0  0  0  0  0  0
   -0.7848    2.2579    0.4382 O   0  0  0  0  0  0  0  0  0  0  0  0
   -0.8866    3.1036   -0.0032 H   0  0  0  0  0  0  0  0  0  0  0  0
    0.7687    0.0654    1.6542 C   0  0  0  0  0  0  0  0  0  0  0  0
    0.1743   -0.4599    2.5954 O   0  0  0  0  0  0  0  0  0  0  0  0
    1.9603    0.6591    1.8094 N   0  0  0  0  0  0  0  0  0  0  0  0
    2.4059    1.0532    0.9972 H   0  0  0  0  0  0  0  0  0  0  0  0
    2.6537    0.7707    3.0918 C   0  0  0  0  0  0  0  0  0  0  0  0
    2.7449   -0.2164    3.5494 H   0  0  0  0  0  0  0  0  0  0  0  0
    3.6485    1.1939    2.9511 H   0  0  0  0  0  0  0  0  0  0  0  0
    2.0806    1.4118    3.7649 H   0  0  0  0  0  0  0  0  0  0  0  0
  5  6  2  0  0  0  0
  5  7  1  0  0  0  0
  2  3  1  0  0  0  0
  2  4  1  0  0  0  0
  2  5  1  0  0  0  0
  1  2  1  0  0  0  0
 19 20  2  0  0  0  0
 19 21  1  0  0  0  0
 17 18  1  0  0  0  0
 13 14  1  0  0  0  0
 13 15  1  0  0  0  0
 13 16  1  0  0  0  0
 11 12  1  0  0  0  0
 11 13  1  0  0  0  0
 11 17  1  0  0  0  0
  9 10  1  0  0  0  0
  9 11  1  0  0  0  0
  9 19  1  0  0  0  0
  7  8  1  0  0  0  0
  7  9  1  0  0  0  0
 23 24  1  0  0  0  0
 23 25  1  0  0  0  0
 23 26  1  0  0  0  0
 21 22  1  0  0  0  0
 21 23  1  0  0  0  0
M  END
$$$$
default_name
  -OEChem-01062215323D

 26 25  0     1  0  0  0  0  0999 V2000
   -2.8882   -3.2497    1.2537 H   0  0  0  0  0  0  0  0  0  0  0  0
   -2.8032   -2.3157    0.7017 C   0  0  0  0  0  0  0  0  0  0  0  0
   -3.5012   -1.5857    1.1067 H   0  0  0  0  0  0  0  0  0  0  0  0
   -3.0182   -2.4907   -0.3513 H   0  0  0  0  0  0  0  0  0  0  0  0
   -1.3942   -1.7897    0.8407 C   0  0  0  0  0  0  0  0  0  0  0  0
   -0.5672   -2.4077    1.5007 O   0  0  0  0  0  0  0  0  0  0  0  0
   -1.1222   -0.6447    0.2217 N   0  0  0  0  0  0  0  0  0  0  0  0
   -1.8592   -0.1777   -0.2863 H   0  0  0  0  0  0  0  0  0  0  0  0
    0.1838    0.0363    0.2367 C   0  0  1  0  0  0  0  0  0  0  0  0
    0.8770   -0.5249   -0.3889 H   0  0  0  0  0  0  0  0  0  0  0  0
    0.0903    1.4685   -0.3288 C   0  0  1  0  0  0  0  0  0  0  0  0
    1.0828    1.9167   -0.2881 H   0  0  0  0  0  0  0  0  0  0  0  0
   -0.3911    1.5364   -1.7768 C   0  0  0  0  0  0  0  0  0  0  0  0
   -1.4322    1.2186   -1.8464 H   0  0  0  0  0  0  0  0  0  0  0  0
   -0.3028    2.5566   -2.1483 H   0  0  0  0  0  0  0  0  0  0  0  0
    0.2208    0.8814   -2.3976 H   0  0  0  0  0  0  0  0  0  0  0  0
   -0.7848    2.2579    0.4382 O   0  0  0  0  0  0  0  0  0  0  0  0
   -0.8866    3.1036   -0.0032 H   0  0  0  0  0  0  0  0  0  0  0  0
    0.7687    0.0654    1.6542 C   0  0  0  0  0  0  0  0  0  0  0  0
    0.3330   -0.6767    2.5344 O   0  0  0  0  0  0  0  0  0  0  0  0
    1.7864    0.9090    1.8761 N   0  0  0  0  0  0  0  0  0  0  0  0
    2.1110    1.4760    1.1102 H   0  0  0  0  0  0  0  0  0  0  0  0
    2.4547    1.0570    3.1680 C   0  0  0  0  0  0  0  0  0  0  0  0
    2.7868    0.0805    3.5260 H   0  0  0  0  0  0  0  0  0  0  0  0
    3.3169    1.7178    3.0772 H   0  0  0  0  0  0  0  0  0  0  0  0
    1.7564    1.4730    3.8974 H   0  0  0  0  0  0  0  0  0  0  0  0
  5  6  2  0  0  0  0
  5  7  1  0  0  0  0
  2  3  1  0  0  0  0
  2  4  1  0  0  0  0
  2  5  1  0  0  0  0
  1  2  1  0  0  0  0
 19 20  2  0  0  0  0
 19 21  1  0  0  0  0
 17 18  1  0  0  0  0
 13 14  1  0  0  0  0
 13 15  1  0  0  0  0
 13 16  1  0  0  0  0
 11 12  1  0  0  0  0
 11 13  1  0  0  0  0
 11 17  1  0  0  0  0
  9 10  1  0  0  0  0
  9 11  1  0  0  0  0
  9 19  1  0  0  0  0
  7  8  1  0  0  0  0
  7  9  1  0  0  0  0
 23 24  1  0  0  0  0
 23 25  1  0  0  0  0
 23 26  1  0  0  0  0
 21 22  1  0  0  0  0
 21 23  1  0  0  0  0
M  END
$$$$
default_name
  -OEChem-01062215323D

 26 25  0     1  0  0  0  0  0999 V2000
   -2.8882   -3.2497    1.2537 H   0  0  0  0  0  0  0  0  0  0  0  0
   -2.8032   -2.3157    0.7017 C   0  0  0  0  0  0  0  0  0  0  0  0
   -3.5012   -1.5857    1.1067 H   0  0  0  0  0  0  0  0  0  0  0  0
   -3.0182   -2.4907   -0.3513 H   0  0  0  0  0  0  0  0  0  0  0  0
   -1.3942   -1.7897    0.8407 C   0  0  0  0  0  0  0  0  0  0  0  0
   -0.5672   -2.4077    1.5007 O   0  0  0  0  0  0  0  0  0  0  0  0
   -1.1222   -0.6447    0.2217 N   0  0  0  0  0  0  0  0  0  0  0  0
   -1.8592   -0.1777   -0.2863 H   0  0  0  0  0  0  0  0  0  0  0  0
    0.1838    0.0363    0.2367 C   0  0  1  0  0  0  0  0  0  0  0  0
    0.8770   -0.5249   -0.3889 H   0  0  0  0  0  0  0  0  0  0  0  0
    0.0903    1.4685   -0.3288 C   0  0  1  0  0  0  0  0  0  0  0  0
    1.0828    1.9167   -0.2881 H   0  0  0  0  0  0  0  0  0  0  0  0
   -0.3911    1.5364   -1.7768 C   0  0  0  0  0  0  0  0  0  0  0  0
   -1.4322    1.2186   -1.8464 H   0  0  0  0  0  0  0  0  0  0  0  0
   -0.3028    2.5566   -2.1483 H   0  0  0  0  0  0  0  0  0  0  0  0
    0.2208    0.8814   -2.3976 H   0  0  0  0  0  0  0  0  0  0  0  0
   -0.7848    2.2579    0.4382 O   0  0  0  0  0  0  0  0  0  0  0  0
   -0.8866    3.1036   -0.0032 H   0  0  0  0  0  0  0  0  0  0  0  0
    0.7687    0.0654    1.6542 C   0  0  0  0  0  0  0  0  0  0  0  0
    0.5379   -0.8421    2.4532 O   0  0  0  0  0  0  0  0  0  0  0  0
    1.5589    1.1022    1.9660 N   0  0  0  0  0  0  0  0  0  0  0  0
    1.7257    1.8028    1.2625 H   0  0  0  0  0  0  0  0  0  0  0  0
    2.1942    1.2784    3.2710 C   0  0  0  0  0  0  0  0  0  0  0  0
    2.7561    0.3796    3.5326 H   0  0  0  0  0  0  0  0  0  0  0  0
    2.8719    2.1321    3.2523 H   0  0  0  0  0  0  0  0  0  0  0  0
    1.4292    1.4415    4.0331 H   0  0  0  0  0  0  0  0  0  0  0  0
  5  6  2  0  0  0  0
  5  7  1  0  0  0  0
  2  3  1  0  0  0  0
  2  4  1  0  0  0  0
  2  5  1  0  0  0  0
  1  2  1  0  0  0  0
 19 20  2  0  0  0  0
 19 21  1  0  0  0  0
 17 18  1  0  0  0  0
 13 14  1  0  0  0  0
 13 15  1  0  0  0  0
 13 16  1  0  0  0  0
 11 12  1  0  0  0  0
 11 13  1  0  0  0  0
 11 17  1  0  0  0  0
  9 10  1  0  0  0  0
  9 11  1  0  0  0  0
  9 19  1  0  0  0  0
  7  8  1  0  0  0  0
  7  9  1  0  0  0  0
 23 24  1  0  0  0  0
 23 25  1  0  0  0  0
 23 26  1  0  0  0  0
 21 22  1  0  0  0  0
 21 23  1  0  0  0  0
M  END
$$$$
default_name
  -OEChem-01062215323D

 26 25  0     1  0  0  0  0  0999 V2000
   -2.8882   -3.2497    1.2537 H   0  0  0  0  0  0  0  0  0  0  0  0
   -2.8032   -2.3157    0.7017 C   0  0  0  0  0  0  0  0  0  0  0  0
   -3.5012   -1.5857    1.1067 H   0  0  0  0  0  0  0  0  0  0  0  0
   -3.0182   -2.4907   -0.3513 H   0  0  0  0  0  0  0  0  0  0  0  0
   -1.3942   -1.7897    0.8407 C   0  0  0  0  0  0  0  0  0  0  0  0
   -0.5672   -2.4077    1.5007 O   0  0  0  0  0  0  0  0  0  0  0  0
   -1.1222   -0.6447    0.2217 N   0  0  0  0  0  0  0  0  0  0  0  0
   -1.8592   -0.1777   -0.2863 H   0  0  0  0  0  0  0  0  0  0  0  0
    0.1838    0.0363    0.2367 C   0  0  1  0  0  0  0  0  0  0  0  0
    0.8770   -0.5249   -0.3889 H   0  0  0  0  0  0  0  0  0  0  0  0
    0.0903    1.4685   -0.3288 C   0  0  1  0  0  0  0  0  0  0  0  0
    1.0828    1.9167   -0.2881 H   0  0  0  0  0  0  0  0  0  0  0  0
   -0.3911    1.5364   -1.7768 C   0  0  0  0  0  0  0  0  0  0  0  0
   -1.4322    1.2186   -1.8464 H   0  0  0  0  0  0  0  0  0  0  0  0
   -0.3028    2.5566   -2.1483 H   0  0  0  0  0  0  0  0  0  0  0  0
    0.2208    0.8814   -2.3976 H   0  0  0  0  0  0  0  0  0  0  0  0
   -0.7848    2.2579    0.4382 O   0  0  0  0  0  0  0  0  0  0  0  0
   -0.8866    3.1036   -0.0032 H   0  0  0  0  0  0  0  0  0  0  0  0
    0.7687    0.0654    1.6542 C   0  0  0  0  0  0  0  0  0  0  0  0
    0.7750   -0.9448    2.3575 O   0  0  0  0  0  0  0  0  0  0  0  0
    1.2935    1.2255    2.0730 N   0  0  0  0  0  0  0  0  0  0  0  0
    1.2760    2.0112    1.4438 H   0  0  0  0  0  0  0  0  0  0  0  0
    1.8902    1.4198    3.3935 C   0  0  0  0  0  0  0  0  0  0  0  0
    2.6550    0.6605    3.5685 H   0  0  0  0  0  0  0  0  0  0  0  0
    2.3439    2.4086    3.4645 H   0  0  0  0  0  0  0  0  0  0  0  0
    1.1214    1.3194    4.1626 H   0  0  0  0  0  0  0  0  0  0  0  0
  5  6  2  0  0  0  0
  5  7  1  0  0  0  0
  2  3  1  0  0  0  0
  2  4  1  0  0  0  0
  2  5  1  0  0  0  0
  1  2  1  0  0  0  0
 19 20  2  0  0  0  0
 19 21  1  0  0  0  0
 17 18  1  0  0  0  0
 13 14  1  0  0  0  0
 13 15  1  0  0  0  0
 13 16  1  0  0  0  0
 11 12  1  0  0  0  0
 11 13  1  0  0  0  0
 11 17  1  0  0  0  0
  9 10  1  0  0  0  0
  9 11  1  0  0  0  0
  9 19  1  0  0  0  0
  7  8  1  0  0  0  0
  7  9  1  0  0  0  0
 23 24  1  0  0  0  0
 23 25  1  0  0  0  0
 23 26  1  0  0  0  0
 21 22  1  0  0  0  0
 21 23  1  0  0  0  0
M  END
$$$$
default_name
  -OEChem-01062215323D

 26 25  0     1  0  0  0  0  0999 V2000
   -2.8882   -3.2497    1.2537 H   0  0  0  0  0  0  0  0  0  0  0  0
   -2.8032   -2.3157    0.7017 C   0  0  0  0  0  0  0  0  0  0  0  0
   -3.5012   -1.5857    1.1067 H   0  0  0  0  0  0  0  0  0  0  0  0
   -3.0182   -2.4907   -0.3513 H   0  0  0  0  0  0  0  0  0  0  0  0
   -1.3942   -1.7897    0.8407 C   0  0  0  0  0  0  0  0  0  0  0  0
   -0.5672   -2.4077    1.5007 O   0  0  0  0  0  0  0  0  0  0  0  0
   -1.1222   -0.6447    0.2217 N   0  0  0  0  0  0  0  0  0  0  0  0
   -1.8592   -0.1777   -0.2863 H   0  0  0  0  0  0  0  0  0  0  0  0
    0.1838    0.0363    0.2367 C   0  0  1  0  0  0  0  0  0  0  0  0
    0.8770   -0.5249   -0.3889 H   0  0  0  0  0  0  0  0  0  0  0  0
    0.0903    1.4685   -0.3288 C   0  0  1  0  0  0  0  0  0  0  0  0
    1.0828    1.9167   -0.2881 H   0  0  0  0  0  0  0  0  0  0  0  0
   -0.3911    1.5364   -1.7768 C   0  0  0  0  0  0  0  0  0  0  0  0
   -1.4322    1.2186   -1.8464 H   0  0  0  0  0  0  0  0  0  0  0  0
   -0.3028    2.5566   -2.1483 H   0  0  0  0  0  0  0  0  0  0  0  0
    0.2208    0.8814   -2.3976 H   0  0  0  0  0  0  0  0  0  0  0  0
   -0.7848    2.2579    0.4382 O   0  0  0  0  0  0  0  0  0  0  0  0
   -0.8866    3.1036   -0.0032 H   0  0  0  0  0  0  0  0  0  0  0  0
    0.7687    0.0654    1.6542 C   0  0  0  0  0  0  0  0  0  0  0  0
    1.0281   -0.9779    2.2537 O   0  0  0  0  0  0  0  0  0  0  0  0
    1.0080    1.2706    2.1898 N   0  0  0  0  0  0  0  0  0  0  0  0
    0.7927    2.0870    1.6416 H   0  0  0  0  0  0  0  0  0  0  0  0
    1.5633    1.4716    3.5273 C   0  0  0  0  0  0  0  0  0  0  0  0
    2.4902    0.9041    3.6315 H   0  0  0  0  0  0  0  0  0  0  0  0
    1.7687    2.5283    3.6994 H   0  0  0  0  0  0  0  0  0  0  0  0
    0.8540    1.1151    4.2772 H   0  0  0  0  0  0  0  0  0  0  0  0
  5  6  2  0  0  0  0
  5  7  1  0  0  0  0
  2  3  1  0  0  0  0
  2  4  1  0  0  0  0
  2  5  1  0  0  0  0
  1  2  1  0  0  0  0
 19 20  2  0  0  0  0
 19 21  1  0  0  0  0
 17 18  1  0  0  0  0
 13 14  1  0  0  0  0
 13 15  1  0  0  0  0
 13 16  1  0  0  0  0
 11 12  1  0  0  0  0
 11 13  1  0  0  0  0
 11 17  1  0  0  0  0
  9 10  1  0  0  0  0
  9 11  1  0  0  0  0
  9 19  1  0  0  0  0
  7  8  1  0  0  0  0
  7  9  1  0  0  0  0
 23 24  1  0  0  0  0
 23 25  1  0  0  0  0
 23 26  1  0  0  0  0
 21 22  1  0  0  0  0
 21 23  1  0  0  0  0
M  END
$$$$
default_name
  -OEChem-01062215323D

 26 25  0     1  0  0  0  0  0999 V2000
   -2.8882   -3.2497    1.2537 H   0  0  0  0  0  0  0  0  0  0  0  0
   -2.8032   -2.3157    0.7017 C   0  0  0  0  0  0  0  0  0  0  0  0
   -3.5012   -1.5857    1.1067 H   0  0  0  0  0  0  0  0  0  0  0  0
   -3.0182   -2.4907   -0.3513 H   0  0  0  0  0  0  0  0  0  0  0  0
   -1.3942   -1.7897    0.8407 C   0  0  0  0  0  0  0  0  0  0  0  0
   -0.5672   -2.4077    1.5007 O   0  0  0  0  0  0  0  0  0  0  0  0
   -1.1222   -0.6447    0.2217 N   0  0  0  0  0  0  0  0  0  0  0  0
   -1.8592   -0.1777   -0.2863 H   0  0  0  0  0  0  0  0  0  0  0  0
    0.1838    0.0363    0.2367 C   0  0  1  0  0  0  0  0  0  0  0  0
    0.8770   -0.5249   -0.3889 H   0  0  0  0  0  0  0  0  0  0  0  0
    0.0903    1.4685   -0.3288 C   0  0  1  0  0  0  0  0  0  0  0  0
    1.0828    1.9167   -0.2881 H   0  0  0  0  0  0  0  0  0  0  0  0
   -0.3911    1.5364   -1.7768 C   0  0  0  0  0  0  0  0  0  0  0  0
   -1.4322    1.2186   -1.8464 H   0  0  0  0  0  0  0  0  0  0  0  0
   -0.3028    2.5566   -2.1483 H   0  0  0  0  0  0  0  0  0  0  0  0
    0.2208    0.8814   -2.3976 H   0  0  0  0  0  0  0  0  0  0  0  0
   -0.7848    2.2579    0.4382 O   0  0  0  0  0  0  0  0  0  0  0  0
   -0.8866    3.1036   -0.0032 H   0  0  0  0  0  0  0  0  0  0  0  0
    0.7687    0.0654    1.6542 C   0  0  0  0  0  0  0  0  0  0  0  0
    1.2800   -0.9390    2.1490 O   0  0  0  0  0  0  0  0  0  0  0  0
    0.7222    1.2343    2.3085 N   0  0  0  0  0  0  0  0  0  0  0  0
    0.3087    2.0251    1.8426 H   0  0  0  0  0  0  0  0  0  0  0  0
    1.2359    1.4302    3.6633 C   0  0  0  0  0  0  0  0  0  0  0  0
    2.2732    1.0938    3.7172 H   0  0  0  0  0  0  0  0  0  0  0  0
    1.1857    2.4833    3.9409 H   0  0  0  0  0  0  0  0  0  0  0  0
    0.6450    0.8424    4.3690 H   0  0  0  0  0  0  0  0  0  0  0  0
  5  6  2  0  0  0  0
  5  7  1  0  0  0  0
  2  3  1  0  0  0  0
  2  4  1  0  0  0  0
  2  5  1  0  0  0  0
  1  2  1  0  0  0  0
 19 20  2  0  0  0  0
 19 21  1  0  0  0  0
 17 18  1  0  0  0  0
 13 14  1  0  0  0  0
 13 15  1  0  0  0  0
 13 16  1  0  0  0  0
 11 12  1  0  0  0  0
 11 13  1  0  0  0  0
 11 17  1  0  0  0  0
  9 10  1  0  0  0  0
  9 11  1  0  0  0  0
  9 19  1  0  0  0  0
  7  8  1  0  0  0  0
  7  9  1  0  0  0  0
 23 24  1  0  0  0  0
 23 25  1  0  0  0  0
 23 26  1  0  0  0  0
 21 22  1  0  0  0  0
 21 23  1  0  0  0  0
M  END
$$$$
default_name
  -OEChem-01062215323D

 26 25  0     1  0  0  0  0  0999 V2000
   -2.8882   -3.2497    1.2537 H   0  0  0  0  0  0  0  0  0  0  0  0
   -2.8032   -2.3157    0.7017 C   0  0  0  0  0  0  0  0  0  0  0  0
   -3.5012   -1.5857    1.1067 H   0  0  0  0  0  0  0  0  0  0  0  0
   -3.0182   -2.4907   -0.3513 H   0  0  0  0  0  0  0  0  0  0  0  0
   -1.3942   -1.7897    0.8407 C   0  0  0  0  0  0  0  0  0  0  0  0
   -0.5672   -2.4077    1.5007 O   0  0  0  0  0  0  0  0  0  0  0  0
   -1.1222   -0.6447    0.2217 N   0  0  0  0  0  0  0  0  0  0  0  0
   -1.8592   -0.1777   -0.2863 H   0  0  0  0  0  0  0  0  0  0  0  0
    0.1838    0.0363    0.2367 C   0  0  1  0  0  0  0  0  0  0  0  0
    0.8770   -0.5249   -0.3889 H   0  0  0  0  0  0  0  0  0  0  0  0
    0.0903    1.4685   -0.3288 C   0  0  1  0  0  0  0  0  0  0  0  0
    1.0828    1.9167   -0.2881 H   0  0  0  0  0  0  0  0  0  0  0  0
   -0.3911    1.5364   -1.7768 C   0  0  0  0  0  0  0  0  0  0  0  0
   -1.4322    1.2186   -1.8464 H   0  0  0  0  0  0  0  0  0  0  0  0
   -0.3028    2.5566   -2.1483 H   0  0  0  0  0  0  0  0  0  0  0  0
    0.2208    0.8814   -2.3976 H   0  0  0  0  0  0  0  0  0  0  0  0
   -0.7848    2.2579    0.4382 O   0  0  0  0  0  0  0  0  0  0  0  0
   -0.8866    3.1036   -0.0032 H   0  0  0  0  0  0  0  0  0  0  0  0
    0.7687    0.0654    1.6542 C   0  0  0  0  0  0  0  0  0  0  0  0
    1.5136   -0.8309    2.0504 O   0  0  0  0  0  0  0  0  0  0  0  0
    0.4553    1.1191    2.4210 N   0  0  0  0  0  0  0  0  0  0  0  0
   -0.1430    1.8298    2.0330 H   0  0  0  0  0  0  0  0  0  0  0  0
    0.9301    1.2985    3.7921 C   0  0  0  0  0  0  0  0  0  0  0  0
    2.0185    1.2166    3.8197 H   0  0  0  0  0  0  0  0  0  0  0  0
    0.6345    2.2764    4.1726 H   0  0  0  0  0  0  0  0  0  0  0  0
    0.5089    0.5200    4.4318 H   0  0  0  0  0  0  0  0  0  0  0  0
  5  6  2  0  0  0  0
  5  7  1  0  0  0  0
  2  3  1  0  0  0  0
  2  4  1  0  0  0  0
  2  5  1  0  0  0  0
  1  2  1  0  0  0  0
 19 20  2  0  0  0  0
 19 21  1  0  0  0  0
 17 18  1  0  0  0  0
 13 14  1  0  0  0  0
 13 15  1  0  0  0  0
 13 16  1  0  0  0  0
 11 12  1  0  0  0  0
 11 13  1  0  0  0  0
 11 17  1  0  0  0  0
  9 10  1  0  0  0  0
  9 11  1  0  0  0  0
  9 19  1  0  0  0  0
  7  8  1  0  0  0  0
  7  9  1  0  0  0  0
 23 24  1  0  0  0  0
 23 25  1  0  0  0  0
 23 26  1  0  0  0  0
 21 22  1  0  0  0  0
 21 23  1  0  0  0  0
M  END
$$$$
default_name
  -OEChem-01062215323D

 26 25  0     1  0  0  0  0  0999 V2000
   -2.8882   -3.2497    1.2537 H   0  0  0  0  0  0  0  0  0  0  0  0
   -2.8032   -2.3157    0.7017 C   0  0  0  0  0  0  0  0  0  0  0  0
   -3.5012   -1.5857    1.1067 H   0  0  0  0  0  0  0  0  0  0  0  0
   -3.0182   -2.4907   -0.3513 H   0  0  0  0  0  0  0  0  0  0  0  0
   -1.3942   -1.7897    0.8407 C   0  0  0  0  0  0  0  0  0  0  0  0
   -0.5672   -2.4077    1.5007 O   0  0  0  0  0  0  0  0  0  0  0  0
   -1.1222   -0.6447    0.2217 N   0  0  0  0  0  0  0  0  0  0  0  0
   -1.8592   -0.1777   -0.2863 H   0  0  0  0  0  0  0  0  0  0  0  0
    0.1838    0.0363    0.2367 C   0  0  1  0  0  0  0  0  0  0  0  0
    0.8770   -0.5249   -0.3889 H   0  0  0  0  0  0  0  0  0  0  0  0
    0.0903    1.4685   -0.3288 C   0  0  1  0  0  0  0  0  0  0  0  0
    1.0828    1.9167   -0.2881 H   0  0  0  0  0  0  0  0  0  0  0  0
   -0.3911    1.5364   -1.7768 C   0  0  0  0  0  0  0  0  0  0  0  0
   -1.4322    1.2186   -1.8464 H   0  0  0  0  0  0  0  0  0  0  0  0
   -0.3028    2.5566   -2.1483 H   0  0  0  0  0  0  0  0  0  0  0  0
    0.2208    0.8814   -2.3976 H   0  0  0  0  0  0  0  0  0  0  0  0
   -0.7848    2.2579    0.4382 O   0  0  0  0  0  0  0  0  0  0  0  0
   -0.8866    3.1036   -0.0032 H   0  0  0  0  0  0  0  0  0  0  0  0
    0.7687    0.0654    1.6542 C   0  0  0  0  0  0  0  0  0  0  0  0
    1.7128   -0.6609    1.9647 O   0  0  0  0  0  0  0  0  0  0  0  0
    0.2256    0.9330    2.5196 N   0  0  0  0  0  0  0  0  0  0  0  0
   -0.5317    1.5142    2.1999 H   0  0  0  0  0  0  0  0  0  0  0  0
    0.6670    1.0854    3.9051 C   0  0  0  0  0  0  0  0  0  0  0  0
    1.7437    1.2642    3.9322 H   0  0  0  0  0  0  0  0  0  0  0  0
    0.1526    1.9219    4.3787 H   0  0  0  0  0  0  0  0  0  0  0  0
    0.4548    0.1698    4.4613 H   0  0  0  0  0  0  0  0  0  0  0  0
  5  6  2  0  0  0  0
  5  7  1  0  0  0  0
  2  3  1  0  0  0  0
  2  4  1  0  0  0  0
  2  5  1  0  0  0  0
  1  2  1  0  0  0  0
 19 20  2  0  0  0  0
 19 21  1  0  0  0  0
 17 18  1  0  0  0  0
 13 14  1  0  0  0  0
 13 15  1  0  0  0  0
 13 16  1  0  0  0  0
 11 12  1  0  0  0  0
 11 13  1  0  0  0  0
 11 17  1  0  0  0  0
  9 10  1  0  0  0  0
  9 11  1  0  0  0  0
  9 19  1  0  0  0  0
  7  8  1  0  0  0  0
  7  9  1  0  0  0  0
 23 24  1  0  0  0  0
 23 25  1  0  0  0  0
 23 26  1  0  0  0  0
 21 22  1  0  0  0  0
 21 23  1  0  0  0  0
M  END
$$$$
default_name
  -OEChem-01062215323D

 26 25  0     1  0  0  0  0  0999 V2000
   -2.8882   -3.2497    1.2537 H   0  0  0  0  0  0  0  0  0  0  0  0
   -2.8032   -2.3157    0.7017 C   0  0  0  0  0  0  0  0  0  0  0  0
   -3.5012   -1.5857    1.1067 H   0  0  0  0  0  0  0  0  0  0  0  0
   -3.0182   -2.4907   -0.3513 H   0  0  0  0  0  0  0  0  0  0  0  0
   -1.3942   -1.7897    0.8407 C   0  0  0  0  0  0  0  0  0  0  0  0
   -0.5672   -2.4077    1.5007 O   0  0  0  0  0  0  0  0  0  0  0  0
   -1.1222   -0.6447    0.2217 N   0  0  0  0  0  0  0  0  0  0  0  0
   -1.8592   -0.1777   -0.2863 H   0  0  0  0  0  0  0  0  0  0  0  0
    0.1838    0.0363    0.2367 C   0  0  1  0  0  0  0  0  0  0  0  0
    0.8770   -0.5249   -0.3889 H   0  0  0  0  0  0  0  0  0  0  0  0
    0.0903    1.4685   -0.3288 C   0  0  1  0  0  0  0  0  0  0  0  0
    1.0828    1.9167   -0.2881 H   0  0  0  0  0  0  0  0  0  0  0  0
   -0.3911    1.5364   -1.7768 C   0  0  0  0  0  0  0  0  0  0  0  0
   -1.4322    1.2186   -1.8464 H   0  0  0  0  0  0  0  0  0  0  0  0
   -0.3028    2.5566   -2.1483 H   0  0  0  0  0  0  0  0  0  0  0  0
    0.2208    0.8814   -2.3976 H   0  0  0  0  0  0  0  0  0  0  0  0
   -0.7848    2.2579    0.4382 O   0  0  0  0  0  0  0  0  0  0  0  0
   -0.8866    3.1036   -0.0032 H   0  0  0  0  0  0  0  0  0  0  0  0
    0.7687    0.0654    1.6542 C   0  0  0  0  0  0  0  0  0  0  0  0
    1.8641   -0.4406    1.8978 O   0  0  0  0  0  0  0  0  0  0  0  0
    0.0487    0.6884    2.5976 N   0  0  0  0  0  0  0  0  0  0  0  0
   -0.8308    1.0999    2.3318 H   0  0  0  0  0  0  0  0  0  0  0  0
    0.4643    0.8055    3.9945 C   0  0  0  0  0  0  0  0  0  0  0  0
    1.4674    1.2334    4.0468 H   0  0  0  0  0  0  0  0  0  0  0  0
   -0.2269    1.4439    4.5451 H   0  0  0  0  0  0  0  0  0  0  0  0
    0.4865   -0.1843    4.4555 H   0  0  0  0  0  0  0  0  0  0  0  0
  5  6  2  0  0  0  0
  5  7  1  0  0  0  0
  2  3  1  0  0  0  0
  2  4  1  0  0  0  0
  2  5  1  0  0  0  0
  1  2  1  0  0  0  0
 19 20  2  0  0  0  0
 19 21  1  0  0  0  0
 17 18  1  0  0  0  0
 13 14  1  0  0  0  0
 13 15  1  0  0  0  0
 13 16  1  0  0  0  0
 11 12  1  0  0  0  0
 11 13  1  0  0  0  0
 11 17  1  0  0  0  0
  9 10  1  0  0  0  0
  9 11  1  0  0  0  0
  9 19  1  0  0  0  0
  7  8  1  0  0  0  0
  7  9  1  0  0  0  0
 23 24  1  0  0  0  0
 23 25  1  0  0  0  0
 23 26  1  0  0  0  0
 21 22  1  0  0  0  0
 21 23  1  0  0  0  0
M  END
$$$$
default_name
  -OEChem-01062215323D

 26 25  0     1  0  0  0  0  0999 V2000
   -2.8882   -3.2497    1.2537 H   0  0  0  0  0  0  0  0  0  0  0  0
   -2.8032   -2.3157    0.7017 C   0  0  0  0  0  0  0  0  0  0  0  0
   -3.5012   -1.5857    1.1067 H   0  0  0  0  0  0  0  0  0  0  0  0
   -3.0182   -2.4907   -0.3513 H   0  0  0  0  0  0  0  0  0  0  0  0
   -1.3942   -1.7897    0.8407 C   0  0  0  0  0  0  0  0  0  0  0  0
   -0.5672   -2.4077    1.5007 O   0  0  0  0  0  0  0  0  0  0  0  0
   -1.1222   -0.6447    0.2217 N   0  0  0  0  0  0  0  0  0  0  0  0
   -1.8592   -0.1777   -0.2863 H   0  0  0  0  0  0  0  0  0  0  0  0
    0.1838    0.0363    0.2367 C   0  0  1  0  0  0  0  0  0  0  0  0
    0.8770   -0.5249   -0.3889 H   0  0  0  0  0  0  0  0  0  0  0  0
    0.0903    1.4685   -0.3288 C   0  0  1  0  0  0  0  0  0  0  0  0
    1.0828    1.9167   -0.2881 H   0  0  0  0  0  0  0  0  0  0  0  0
   -0.3911    1.5364   -1.7768 C   0  0  0  0  0  0  0  0  0  0  0  0
   -1.4322    1.2186   -1.8464 H   0  0  0  0  0  0  0  0  0  0  0  0
   -0.3028    2.5566   -2.1483 H   0  0  0  0  0  0  0  0  0  0  0  0
    0.2208    0.8814   -2.3976 H   0  0  0  0  0  0  0  0  0  0  0  0
   -0.7848    2.2579    0.4382 O   0  0  0  0  0  0  0  0  0  0  0  0
   -0.8866    3.1036   -0.0032 H   0  0  0  0  0  0  0  0  0  0  0  0
    0.7687    0.0654    1.6542 C   0  0  0  0  0  0  0  0  0  0  0  0
    1.9572   -0.1849    1.8541 O   0  0  0  0  0  0  0  0  0  0  0  0
   -0.0632    0.4023    2.6497 N   0  0  0  0  0  0  0  0  0  0  0  0
   -1.0199    0.6152    2.4198 H   0  0  0  0  0  0  0  0  0  0  0  0
    0.3359    0.4778    4.0542 C   0  0  0  0  0  0  0  0  0  0  0  0
    1.2084    1.1262    4.1559 H   0  0  0  0  0  0  0  0  0  0  0  0
   -0.4784    0.8749    4.6606 H   0  0  0  0  0  0  0  0  0  0  0  0
    0.6018   -0.5182    4.4147 H   0  0  0  0  0  0  0  0  0  0  0  0
  5  6  2  0  0  0  0
  5  7  1  0  0  0  0
  2  3  1  0  0  0  0
  2  4  1  0  0  0  0
  2  5  1  0  0  0  0
  1  2  1  0  0  0  0
 19 20  2  0  0  0  0
 19 21  1  0  0  0  0
 17 18  1  0  0  0  0
 13 14  1  0  0  0  0
 13 15  1  0  0  0  0
 13 16  1  0  0  0  0
 11 12  1  0  0  0  0
 11 13  1  0  0  0  0
 11 17  1  0  0  0  0
  9 10  1  0  0  0  0
  9 11  1  0  0  0  0
  9 19  1  0  0  0  0
  7  8  1  0  0  0  0
  7  9  1  0  0  0  0
 23 24  1  0  0  0  0
 23 25  1  0  0  0  0
 23 26  1  0  0  0  0
 21 22  1  0  0  0  0
 21 23  1  0  0  0  0
M  END
$$$$
default_name
  -OEChem-01062215323D

 26 25  0     1  0  0  0  0  0999 V2000
   -2.8882   -3.2497    1.2537 H   0  0  0  0  0  0  0  0  0  0  0  0
   -2.8032   -2.3157    0.7017 C   0  0  0  0  0  0  0  0  0  0  0  0
   -3.5012   -1.5857    1.1067 H   0  0  0  0  0  0  0  0  0  0  0  0
   -3.0182   -2.4907   -0.3513 H   0  0  0  0  0  0  0  0  0  0  0  0
   -1.3942   -1.7897    0.8407 C   0  0  0  0  0  0  0  0  0  0  0  0
   -0.5672   -2.4077    1.5007 O   0  0  0  0  0  0  0  0  0  0  0  0
   -1.1222   -0.6447    0.2217 N   0  0  0  0  0  0  0  0  0  0  0  0
   -1.8592   -0.1777   -0.2863 H   0  0  0  0  0  0  0  0  0  0  0  0
    0.1838    0.0363    0.2367 C   0  0  1  0  0  0  0  0  0  0  0  0
    0.8770   -0.5249   -0.3889 H   0  0  0  0  0  0  0  0  0  0  0  0
    0.0903    1.4685   -0.3288 C   0  0  1  0  0  0  0  0  0  0  0  0
    1.0828    1.9167   -0.2881 H   0  0  0  0  0  0  0  0  0  0  0  0
   -0.3911    1.5364   -1.7768 C   0  0  0  0  0  0  0  0  0  0  0  0
   -1.4322    1.2186   -1.8464 H   0  0  0  0  0  0  0  0  0  0  0  0
   -0.3028    2.5566   -2.1483 H   0  0  0  0  0  0  0  0  0  0  0  0
    0.2208    0.8814   -2.3976 H   0  0  0  0  0  0  0  0  0  0  0  0
   -0.7848    2.2579    0.4382 O   0  0  0  0  0  0  0  0  0  0  0  0
   -0.8866    3.1036   -0.0032 H   0  0  0  0  0  0  0  0  0  0  0  0
    0.7687    0.0654    1.6542 C   0  0  0  0  0  0  0  0  0  0  0  0
    1.9858    0.0886    1.8367 O   0  0  0  0  0  0  0  0  0  0  0  0
   -0.1026    0.0939    2.6723 N   0  0  0  0  0  0  0  0  0  0  0  0
   -1.0863    0.0931    2.4579 H   0  0  0  0  0  0  0  0  0  0  0  0
    0.2906    0.1247    4.0802 C   0  0  0  0  0  0  0  0  0  0  0  0
    0.9845    0.9499    4.2519 H   0  0  0  0  0  0  0  0  0  0  0  0
   -0.5846    0.2537    4.7172 H   0  0  0  0  0  0  0  0  0  0  0  0
    0.7929   -0.8091    4.3419 H   0  0  0  0  0  0  0  0  0  0  0  0
  5  6  2  0  0  0  0
  5  7  1  0  0  0  0
  2  3  1  0  0  0  0
  2  4  1  0  0  0  0
  2  5  1  0  0  0  0
  1  2  1  0  0  0  0
 19 20  2  0  0  0  0
 19 21  1  0  0  0  0
 17 18  1  0  0  0  0
 13 14  1  0  0  0  0
 13 15  1  0  0  0  0
 13 16  1  0  0  0  0
 11 12  1  0  0  0  0
 11 13  1  0  0  0  0
 11 17  1  0  0  0  0
  9 10  1  0  0  0  0
  9 11  1  0  0  0  0
  9 19  1  0  0  0  0
  7  8  1  0  0  0  0
  7  9  1  0  0  0  0
 23 24  1  0  0  0  0
 23 25  1  0  0  0  0
 23 26  1  0  0  0  0
 21 22  1  0  0  0  0
 21 23  1  0  0  0  0
M  END
$$$$
default_name
  -OEChem-01062215323D

 26 25  0     1  0  0  0  0  0999 V2000
   -2.8882   -3.2497    1.2537 H   0  0  0  0  0  0  0  0  0  0  0  0
   -2.8032   -2.3157    0.7017 C   0  0  0  0  0  0  0  0  0  0  0  0
   -3.5012   -1.5857    1.1067 H   0  0  0  0  0  0  0  0  0  0  0  0
   -3.0182   -2.4907   -0.3513 H   0  0  0  0  0  0  0  0  0  0  0  0
   -1.3942   -1.7897    0.8407 C   0  0  0  0  0  0  0  0  0  0  0  0
   -0.5672   -2.4077    1.5007 O   0  0  0  0  0  0  0  0  0  0  0  0
   -1.1222   -0.6447    0.2217 N   0  0  0  0  0  0  0  0  0  0  0  0
   -1.8592   -0.1777   -0.2863 H   0  0  0  0  0  0  0  0  0  0  0  0
    0.1838    0.0363    0.2367 C   0  0  1  0  0  0  0  0  0  0  0  0
    0.8770   -0.5249   -0.3889 H   0  0  0  0  0  0  0  0  0  0  0  0
    0.0903    1.4685   -0.3288 C   0  0  1  0  0  0  0  0  0  0  0  0
    1.0828    1.9167   -0.2881 H   0  0  0  0  0  0  0  0  0  0  0  0
   -0.3911    1.5364   -1.7768 C   0  0  0  0  0  0  0  0  0  0  0  0
   -1.4322    1.2186   -1.8464 H   0  0  0  0  0  0  0  0  0  0  0  0
   -0.3028    2.5566   -2.1483 H   0  0  0  0  0  0  0  0  0  0  0  0
    0.2208    0.8814   -2.3976 H   0  0  0  0  0  0  0  0  0  0  0  0
   -0.7848    2.2579    0.4382 O   0  0  0  0  0  0  0  0  0  0  0  0
   -0.8866    3.1036   -0.0032 H   0  0  0  0  0  0  0  0  0  0  0  0
    0.7687    0.0654    1.6542 C   0  0  0  0  0  0  0  0  0  0  0  0
    1.9479    0.3614    1.8467 O   0  0  0  0  0  0  0  0  0  0  0  0
   -0.0668   -0.2156    2.6639 N   0  0  0  0  0  0  0  0  0  0  0  0
   -1.0253   -0.4309    2.4435 H   0  0  0  0  0  0  0  0  0  0  0  0
    0.3314   -0.2299    4.0706 C   0  0  0  0  0  0  0  0  0  0  0  0
    0.8108    0.7166    4.3283 H   0  0  0  0  0  0  0  0  0  0  0  0
   -0.5384   -0.3772    4.7110 H   0  0  0  0  0  0  0  0  0  0  0  0
    1.0466   -1.0372    4.2419 H   0  0  0  0  0  0  0  0  0  0  0  0
  5  6  2  0  0  0  0
  5  7  1  0  0  0  0
  2  3  1  0  0  0  0
  2  4  1  0  0  0  0
  2  5  1  0  0  0  0
  1  2  1  0  0  0  0
 19 20  2  0  0  0  0
 19 21  1  0  0  0  0
 17 18  1  0  0  0  0
 13 14  1  0  0  0  0
 13 15  1  0  0  0  0
 13 16  1  0  0  0  0
 11 12  1  0  0  0  0
 11 13  1  0  0  0  0
 11 17  1  0  0  0  0
  9 10  1  0  0  0  0
  9 11  1  0  0  0  0
  9 19  1  0  0  0  0
  7  8  1  0  0  0  0
  7  9  1  0  0  0  0
 23 24  1  0  0  0  0
 23 25  1  0  0  0  0
 23 26  1  0  0  0  0
 21 22  1  0  0  0  0
 21 23  1  0  0  0  0
M  END
$$$$
default_name
  -OEChem-01062215323D

 26 25  0     1  0  0  0  0  0999 V2000
   -2.8882   -3.2497    1.2537 H   0  0  0  0  0  0  0  0  0  0  0  0
   -2.8032   -2.3157    0.7017 C   0  0  0  0  0  0  0  0  0  0  0  0
   -3.5012   -1.5857    1.1067 H   0  0  0  0  0  0  0  0  0  0  0  0
   -3.0182   -2.4907   -0.3513 H   0  0  0  0  0  0  0  0  0  0  0  0
   -1.3942   -1.7897    0.8407 C   0  0  0  0  0  0  0  0  0  0  0  0
   -0.5672   -2.4077    1.5007 O   0  0  0  0  0  0  0  0  0  0  0  0
   -1.1222   -0.6447    0.2217 N   0  0  0  0  0  0  0  0  0  0  0  0
   -1.8592   -0.1777   -0.2863 H   0  0  0  0  0  0  0  0  0  0  0  0
    0.1838    0.0363    0.2367 C   0  0  1  0  0  0  0  0  0  0  0  0
    0.8770   -0.5249   -0.3889 H   0  0  0  0  0  0  0  0  0  0  0  0
    0.0903    1.4685   -0.3288 C   0  0  1  0  0  0  0  0  0  0  0  0
    1.0828    1.9167   -0.2881 H   0  0  0  0  0  0  0  0  0  0  0  0
   -0.3911    1.5364   -1.7768 C   0  0  0  0  0  0  0  0  0  0  0  0
   -1.4322    1.2186   -1.8464 H   0  0  0  0  0  0  0  0  0  0  0  0
   -0.3028    2.5566   -2.1483 H   0  0  0  0  0  0  0  0  0  0  0  0
    0.2208    0.8814   -2.3976 H   0  0  0  0  0  0  0  0  0  0  0  0
   -0.7848    2.2579    0.4382 O   0  0  0  0  0  0  0  0  0  0  0  0
   -0.8866    3.1036   -0.0032 H   0  0  0  0  0  0  0  0  0  0  0  0
    0.7687    0.0654    1.6542 C   0  0  0  0  0  0  0  0  0  0  0  0
    1.8461    0.6148    1.8835 O   0  0  0  0  0  0  0  0  0  0  0  0
    0.0417   -0.5051    2.6250 N   0  0  0  0  0  0  0  0  0  0  0  0
   -0.8411   -0.9210    2.3776 H   0  0  0  0  0  0  0  0  0  0  0  0
    0.4556   -0.5616    4.0262 C   0  0  0  0  0  0  0  0  0  0  0  0
    0.6992    0.4422    4.3800 H   0  0  0  0  0  0  0  0  0  0  0  0
   -0.3428   -0.9750    4.6426 H   0  0  0  0  0  0  0  0  0  0  0  0
    1.3458   -1.1869    4.1215 H   0  0  0  0  0  0  0  0  0  0  0  0
  5  6  2  0  0  0  0
  5  7  1  0  0  0  0
  2  3  1  0  0  0  0
  2  4  1  0  0  0  0
  2  5  1  0  0  0  0
  1  2  1  0  0  0  0
 19 20  2  0  0  0  0
 19 21  1  0  0  0  0
 17 18  1  0  0  0  0
 13 14  1  0  0  0  0
 13 15  1  0  0  0  0
 13 16  1  0  0  0  0
 11 12  1  0  0  0  0
 11 13  1  0  0  0  0
 11 17  1  0  0  0  0
  9 10  1  0  0  0  0
  9 11  1  0  0  0  0
  9 19  1  0  0  0  0
  7  8  1  0  0  0  0
  7  9  1  0  0  0  0
 23 24  1  0  0  0  0
 23 25  1  0  0  0  0
 23 26  1  0  0  0  0
 21 22  1  0  0  0  0
 21 23  1  0  0  0  0
M  END
$$$$
default_name
  -OEChem-01062215323D

 26 25  0     1  0  0  0  0  0999 V2000
   -2.8882   -3.2497    1.2537 H   0  0  0  0  0  0  0  0  0  0  0  0
   -2.8032   -2.3157    0.7017 C   0  0  0  0  0  0  0  0  0  0  0  0
   -3.5012   -1.5857    1.1067 H   0  0  0  0  0  0  0  0  0  0  0  0
   -3.0182   -2.4907   -0.3513 H   0  0  0  0  0  0  0  0  0  0  0  0
   -1.3942   -1.7897    0.8407 C   0  0  0  0  0  0  0  0  0  0  0  0
   -0.5672   -2.4077    1.5007 O   0  0  0  0  0  0  0  0  0  0  0  0
   -1.1222   -0.6447    0.2217 N   0  0  0  0  0  0  0  0  0  0  0  0
   -1.8592   -0.1777   -0.2863 H   0  0  0  0  0  0  0  0  0  0  0  0
    0.1838    0.0363    0.2367 C   0  0  1  0  0  0  0  0  0  0  0  0
    0.8770   -0.5249   -0.3889 H   0  0  0  0  0  0  0  0  0  0  0  0
    0.0903    1.4685   -0.3288 C   0  0  1  0  0  0  0  0  0  0  0  0
    1.0828    1.9167   -0.2881 H   0  0  0  0  0  0  0  0  0  0  0  0
   -0.3911    1.5364   -1.7768 C   0  0  0  0  0  0  0  0  0  0  0  0
   -1.4322    1.2186   -1.8464 H   0  0  0  0  0  0  0  0  0  0  0  0
   -0.3028    2.5566   -2.1483 H   0  0  0  0  0  0  0  0  0  0  0  0
    0.2208    0.8814   -2.3976 H   0  0  0  0  0  0  0  0  0  0  0  0
   -0.7848    2.2579    0.4382 O   0  0  0  0  0  0  0  0  0  0  0  0
   -0.8866    3.1036   -0.0032 H   0  0  0  0  0  0  0  0  0  0  0  0
    0.7687    0.0654    1.6542 C   0  0  0  0  0  0  0  0  0  0  0  0
    1.6874    0.8315    1.9445 O   0  0  0  0  0  0  0  0  0  0  0  0
    0.2157   -0.7550    2.5584 N   0  0  0  0  0  0  0  0  0  0  0  0
   -0.5462   -1.3438    2.2646 H   0  0  0  0  0  0  0  0  0  0  0  0
    0.6547   -0.8479    3.9499 C   0  0  0  0  0  0  0  0  0  0  0  0
    0.6574    0.1453    4.4034 H   0  0  0  0  0  0  0  0  0  0  0  0
   -0.0112   -1.4989    4.5166 H   0  0  0  0  0  0  0  0  0  0  0  0
    1.6700   -1.2481    3.9890 H   0  0  0  0  0  0  0  0  0  0  0  0
  5  6  2  0  0  0  0
  5  7  1  0  0  0  0
  2  3  1  0  0  0  0
  2  4  1  0  0  0  0
  2  5  1  0  0  0  0
  1  2  1  0  0  0  0
 19 20  2  0  0  0  0
 19 21  1  0  0  0  0
 17 18  1  0  0  0  0
 13 14  1  0  0  0  0
 13 15  1  0  0  0  0
 13 16  1  0  0  0  0
 11 12  1  0  0  0  0
 11 13  1  0  0  0  0
 11 17  1  0  0  0  0
  9 10  1  0  0  0  0
  9 11  1  0  0  0  0
  9 19  1  0  0  0  0
  7  8  1  0  0  0  0
  7  9  1  0  0  0  0
 23 24  1  0  0  0  0
 23 25  1  0  0  0  0
 23 26  1  0  0  0  0
 21 22  1  0  0  0  0
 21 23  1  0  0  0  0
M  END
$$$$
default_name
  -OEChem-01062215323D

 26 25  0     1  0  0  0  0  0999 V2000
   -2.8882   -3.2497    1.2537 H   0  0  0  0  0  0  0  0  0  0  0  0
   -2.8032   -2.3157    0.7017 C   0  0  0  0  0  0  0  0  0  0  0  0
   -3.5012   -1.5857    1.1067 H   0  0  0  0  0  0  0  0  0  0  0  0
   -3.0182   -2.4907   -0.3513 H   0  0  0  0  0  0  0  0  0  0  0  0
   -1.3942   -1.7897    0.8407 C   0  0  0  0  0  0  0  0  0  0  0  0
   -0.5672   -2.4077    1.5007 O   0  0  0  0  0  0  0  0  0  0  0  0
   -1.1222   -0.6447    0.2217 N   0  0  0  0  0  0  0  0  0  0  0  0
   -1.8592   -0.1777   -0.2863 H   0  0  0  0  0  0  0  0  0  0  0  0
    0.1838    0.0363    0.2367 C   0  0  1  0  0  0  0  0  0  0  0  0
    0.8770   -0.5249   -0.3889 H   0  0  0  0  0  0  0  0  0  0  0  0
    0.0903    1.4685   -0.3288 C   0  0  1  0  0  0  0  0  0  0  0  0
    1.0828    1.9167   -0.2881 H   0  0  0  0  0  0  0  0  0  0  0  0
   -0.3911    1.5364   -1.7768 C   0  0  0  0  0  0  0  0  0  0  0  0
   -1.4322    1.2186   -1.8464 H   0  0  0  0  0  0  0  0  0  0  0  0
   -0.3028    2.5566   -2.1483 H   0  0  0  0  0  0  0  0  0  0  0  0
    0.2208    0.8814   -2.3976 H   0  0  0  0  0  0  0  0  0  0  0  0
   -0.7848    2.2579    0.4382 O   0  0  0  0  0  0  0  0  0  0  0  0
   -0.8866    3.1036   -0.0032 H   0  0  0  0  0  0  0  0  0  0  0  0
    0.7687    0.0654    1.6542 C   0  0  0  0  0  0  0  0  0  0  0  0
    1.4825    0.9969    2.0257 O   0  0  0  0  0  0  0  0  0  0  0  0
    0.4431   -0.9482    2.4685 N   0  0  0  0  0  0  0  0  0  0  0  0
   -0.1608   -1.6706    2.1123 H   0  0  0  0  0  0  0  0  0  0  0  0
    0.9151   -1.0693    3.8470 C   0  0  0  0  0  0  0  0  0  0  0  0
    0.6881   -0.1538    4.3969 H   0  0  0  0  0  0  0  0  0  0  0  0
    0.4337   -1.9132    4.3415 H   0  0  0  0  0  0  0  0  0  0  0  0
    1.9972   -1.2166    3.8533 H   0  0  0  0  0  0  0  0  0  0  0  0
  5  6  2  0  0  0  0
  5  7  1  0  0  0  0
  2  3  1  0  0  0  0
  2  4  1  0  0  0  0
  2  5  1  0  0  0  0
  1  2  1  0  0  0  0
 19 20  2  0  0  0  0
 19 21  1  0  0  0  0
 17 18  1  0  0  0  0
 13 14  1  0  0  0  0
 13 15  1  0  0  0  0
 13 16  1  0  0  0  0
 11 12  1  0  0  0  0
 11 13  1  0  0  0  0
 11 17  1  0  0  0  0
  9 10  1  0  0  0  0
  9 11  1  0  0  0  0
  9 19  1  0  0  0  0
  7  8  1  0  0  0  0
  7  9  1  0  0  0  0
 23 24  1  0  0  0  0
 23 25  1  0  0  0  0
 23 26  1  0  0  0  0
 21 22  1  0  0  0  0
 21 23  1  0  0  0  0
M  END
$$$$
default_name
  -OEChem-01062215323D

 26 25  0     1  0  0  0  0  0999 V2000
   -2.8882   -3.2497    1.2537 H   0  0  0  0  0  0  0  0  0  0  0  0
   -2.8032   -2.3157    0.7017 C   0  0  0  0  0  0  0  0  0  0  0  0
   -3.5012   -1.5857    1.1067 H   0  0  0  0  0  0  0  0  0  0  0  0
   -3.0182   -2.4907   -0.3513 H   0  0  0  0  0  0  0  0  0  0  0  0
   -1.3942   -1.7897    0.8407 C   0  0  0  0  0  0  0  0  0  0  0  0
   -0.5672   -2.4077    1.5007 O   0  0  0  0  0  0  0  0  0  0  0  0
   -1.1222   -0.6447    0.2217 N   0  0  0  0  0  0  0  0  0  0  0  0
   -1.8592   -0.1777   -0.2863 H   0  0  0  0  0  0  0  0  0  0  0  0
    0.1838    0.0363    0.2367 C   0  0  1  0  0  0  0  0  0  0  0  0
    0.8770   -0.5249   -0.3889 H   0  0  0  0  0  0  0  0  0  0  0  0
    0.0903    1.4685   -0.3288 C   0  0  1  0  0  0  0  0  0  0  0  0
    1.0828    1.9167   -0.2881 H   0  0  0  0  0  0  0  0  0  0  0  0
   -0.3911    1.5364   -1.7768 C   0  0  0  0  0  0  0  0  0  0  0  0
   -1.4322    1.2186   -1.8464 H   0  0  0  0  0  0  0  0  0  0  0  0
   -0.3028    2.5566   -2.1483 H   0  0  0  0  0  0  0  0  0  0  0  0
    0.2208    0.8814   -2.3976 H   0  0  0  0  0  0  0  0  0  0  0  0
   -0.7848    2.2579    0.4382 O   0  0  0  0  0  0  0  0  0  0  0  0
   -0.8866    3.1036   -0.0032 H   0  0  0  0  0  0  0  0  0  0  0  0
    0.7687    0.0654    1.6542 C   0  0  0  0  0  0  0  0  0  0  0  0
    1.2454    1.0997    2.1214 O   0  0  0  0  0  0  0  0  0  0  0  0
    0.7086   -1.0715    2.3615 N   0  0  0  0  0  0  0  0  0  0  0  0
    0.2888   -1.8790    1.9310 H   0  0  0  0  0  0  0  0  0  0  0  0
    1.2191   -1.2107    3.7245 C   0  0  0  0  0  0  0  0  0  0  0  0
    0.7892   -0.4347    4.3609 H   0  0  0  0  0  0  0  0  0  0  0  0
    0.9618   -2.1897    4.1292 H   0  0  0  0  0  0  0  0  0  0  0  0
    2.3050   -1.0945    3.7238 H   0  0  0  0  0  0  0  0  0  0  0  0
  5  6  2  0  0  0  0
  5  7  1  0  0  0  0
  2  3  1  0  0  0  0
  2  4  1  0  0  0  0
  2  5  1  0  0  0  0
  1  2  1  0  0  0  0
 19 20  2  0  0  0  0
 19 21  1  0  0  0  0
 17 18  1  0  0  0  0
 13 14  1  0  0  0  0
 13 15  1  0  0  0  0
 13 16  1  0  0  0  0
 11 12  1  0  0  0  0
 11 13  1  0  0  0  0
 11 17  1  0  0  0  0
  9 10  1  0  0  0  0
  9 11  1  0  0  0  0
  9 19  1  0  0  0  0
  7  8  1  0  0  0  0
  7  9  1  0  0  0  0
 23 24  1  0  0  0  0
 23 25  1  0  0  0  0
 23 26  1  0  0  0  0
 21 22  1  0  0  0  0
 21 23  1  0  0  0  0
M  END
$$$$
default_name
  -OEChem-01062215323D

 26 25  0     1  0  0  0  0  0999 V2000
   -2.8882   -3.2497    1.2537 H   0  0  0  0  0  0  0  0  0  0  0  0
   -2.8032   -2.3157    0.7017 C   0  0  0  0  0  0  0  0  0  0  0  0
   -3.5012   -1.5857    1.1067 H   0  0  0  0  0  0  0  0  0  0  0  0
   -3.0182   -2.4907   -0.3513 H   0  0  0  0  0  0  0  0  0  0  0  0
   -1.3942   -1.7897    0.8407 C   0  0  0  0  0  0  0  0  0  0  0  0
   -0.5672   -2.4077    1.5007 O   0  0  0  0  0  0  0  0  0  0  0  0
   -1.1222   -0.6447    0.2217 N   0  0  0  0  0  0  0  0  0  0  0  0
   -1.8592   -0.1777   -0.2863 H   0  0  0  0  0  0  0  0  0  0  0  0
    0.1838    0.0363    0.2367 C   0  0  1  0  0  0  0  0  0  0  0  0
    0.8770   -0.5249   -0.3889 H   0  0  0  0  0  0  0  0  0  0  0  0
    0.0903    1.4685   -0.3288 C   0  0  1  0  0  0  0  0  0  0  0  0
    1.0828    1.9167   -0.2881 H   0  0  0  0  0  0  0  0  0  0  0  0
   -0.3911    1.5364   -1.7768 C   0  0  0  0  0  0  0  0  0  0  0  0
   -1.4322    1.2186   -1.8464 H   0  0  0  0  0  0  0  0  0  0  0  0
   -0.3028    2.5566   -2.1483 H   0  0  0  0  0  0  0  0  0  0  0  0
    0.2208    0.8814   -2.3976 H   0  0  0  0  0  0  0  0  0  0  0  0
   -0.7848    2.2579    0.4382 O   0  0  0  0  0  0  0  0  0  0  0  0
   -0.8866    3.1036   -0.0032 H   0  0  0  0  0  0  0  0  0  0  0  0
    0.7687    0.0654    1.6542 C   0  0  0  0  0  0  0  0  0  0  0  0
    0.9922    1.1328    2.2252 O   0  0  0  0  0  0  0  0  0  0  0  0
    0.9940   -1.1166    2.2447 N   0  0  0  0  0  0  0  0  0  0  0  0
    0.7721   -1.9548    1.7332 H   0  0  0  0  0  0  0  0  0  0  0  0
    1.5460   -1.2625    3.5906 C   0  0  0  0  0  0  0  0  0  0  0  0
    0.9539   -0.6783    4.2979 H   0  0  0  0  0  0  0  0  0  0  0  0
    1.5369   -2.3095    3.8944 H   0  0  0  0  0  0  0  0  0  0  0  0
    2.5725   -0.8902    3.6092 H   0  0  0  0  0  0  0  0  0  0  0  0
  5  6  2  0  0  0  0
  5  7  1  0  0  0  0
  2  3  1  0  0  0  0
  2  4  1  0  0  0  0
  2  5  1  0  0  0  0
  1  2  1  0  0  0  0
 19 20  2  0  0  0  0
 19 21  1  0  0  0  0
 17 18  1  0  0  0  0
 13 14  1  0  0  0  0
 13 15  1  0  0  0  0
 13 16  1  0  0  0  0
 11 12  1  0  0  0  0
 11 13  1  0  0  0  0
 11 17  1  0  0  0  0
  9 10  1  0  0  0  0
  9 11  1  0  0  0  0
  9 19  1  0  0  0  0
  7  8  1  0  0  0  0
  7  9  1  0  0  0  0
 23 24  1  0  0  0  0
 23 25  1  0  0  0  0
 23 26  1  0  0  0  0
 21 22  1  0  0  0  0
 21 23  1  0  0  0  0
M  END
$$$$
default_name
  -OEChem-01062215323D

 26 25  0     1  0  0  0  0  0999 V2000
   -2.8882   -3.2497    1.2537 H   0  0  0  0  0  0  0  0  0  0  0  0
   -2.8032   -2.3157    0.7017 C   0  0  0  0  0  0  0  0  0  0  0  0
   -3.5012   -1.5857    1.1067 H   0  0  0  0  0  0  0  0  0  0  0  0
   -3.0182   -2.4907   -0.3513 H   0  0  0  0  0  0  0  0  0  0  0  0
   -1.3942   -1.7897    0.8407 C   0  0  0  0  0  0  0  0  0  0  0  0
   -0.5672   -2.4077    1.5007 O   0  0  0  0  0  0  0  0  0  0  0  0
   -1.1222   -0.6447    0.2217 N   0  0  0  0  0  0  0  0  0  0  0  0
   -1.8592   -0.1777   -0.2863 H   0  0  0  0  0  0  0  0  0  0  0  0
    0.1838    0.0363    0.2367 C   0  0  1  0  0  0  0  0  0  0  0  0
    0.8770   -0.5249   -0.3889 H   0  0  0  0  0  0  0  0  0  0  0  0
    0.0903    1.4685   -0.3288 C   0  0  1  0  0  0  0  0  0  0  0  0
    1.0828    1.9167   -0.2881 H   0  0  0  0  0  0  0  0  0  0  0  0
   -0.3911    1.5364   -1.7768 C   0  0  0  0  0  0  0  0  0  0  0  0
   -1.4322    1.2186   -1.8464 H   0  0  0  0  0  0  0  0  0  0  0  0
   -0.3028    2.5566   -2.1483 H   0  0  0  0  0  0  0  0  0  0  0  0
    0.2208    0.8814   -2.3976 H   0  0  0  0  0  0  0  0  0  0  0  0
   -0.7848    2.2579    0.4382 O   0  0  0  0  0  0  0  0  0  0  0  0
   -0.8866    3.1036   -0.0032 H   0  0  0  0  0  0  0  0  0  0  0  0
    0.7687    0.0654    1.6542 C   0  0  0  0  0  0  0  0  0  0  0  0
    0.7403    1.0939    2.3299 O   0  0  0  0  0  0  0  0  0  0  0  0
    1.2799   -1.0803    2.1259 N   0  0  0  0  0  0  0  0  0  0  0  0
    1.2561   -1.8929    1.5322 H   0  0  0  0  0  0  0  0  0  0  0  0
    1.8735   -1.2211    3.4547 C   0  0  0  0  0  0  0  0  0  0  0  0
    1.1710   -0.8680    4.2123 H   0  0  0  0  0  0  0  0  0  0  0  0
    2.1200   -2.2644    3.6529 H   0  0  0  0  0  0  0  0  0  0  0  0
    2.7814   -0.6175    3.5174 H   0  0  0  0  0  0  0  0  0  0  0  0
  5  6  2  0  0  0  0
  5  7  1  0  0  0  0
  2  3  1  0  0  0  0
  2  4  1  0  0  0  0
  2  5  1  0  0  0  0
  1  2  1  0  0  0  0
 19 20  2  0  0  0  0
 19 21  1  0  0  0  0
 17 18  1  0  0  0  0
 13 14  1  0  0  0  0
 13 15  1  0  0  0  0
 13 16  1  0  0  0  0
 11 12  1  0  0  0  0
 11 13  1  0  0  0  0
 11 17  1  0  0  0  0
  9 10  1  0  0  0  0
  9 11  1  0  0  0  0
  9 19  1  0  0  0  0
  7  8  1  0  0  0  0
  7  9  1  0  0  0  0
 23 24  1  0  0  0  0
 23 25  1  0  0  0  0
 23 26  1  0  0  0  0
 21 22  1  0  0  0  0
 21 23  1  0  0  0  0
M  END
$$$$
default_name
  -OEChem-01062215323D

 26 25  0     1  0  0  0  0  0999 V2000
   -2.8882   -3.2497    1.2537 H   0  0  0  0  0  0  0  0  0  0  0  0
   -2.8032   -2.3157    0.7017 C   0  0  0  0  0  0  0  0  0  0  0  0
   -3.5012   -1.5857    1.1067 H   0  0  0  0  0  0  0  0  0  0  0  0
   -3.0182   -2.4907   -0.3513 H   0  0  0  0  0  0  0  0  0  0  0  0
   -1.3942   -1.7897    0.8407 C   0  0  0  0  0  0  0  0  0  0  0  0
   -0.5672   -2.4077    1.5007 O   0  0  0  0  0  0  0  0  0  0  0  0
   -1.1222   -0.6447    0.2217 N   0  0  0  0  0  0  0  0  0  0  0  0
   -1.8592   -0.1777   -0.2863 H   0  0  0  0  0  0  0  0  0  0  0  0
    0.1838    0.0363    0.2367 C   0  0  1  0  0  0  0  0  0  0  0  0
    0.8770   -0.5249   -0.3889 H   0  0  0  0  0  0  0  0  0  0  0  0
    0.0903    1.4685   -0.3288 C   0  0  1  0  0  0  0  0  0  0  0  0
    1.0828    1.9167   -0.2881 H   0  0  0  0  0  0  0  0  0  0  0  0
   -0.3911    1.5364   -1.7768 C   0  0  0  0  0  0  0  0  0  0  0  0
   -1.4322    1.2186   -1.8464 H   0  0  0  0  0  0  0  0  0  0  0  0
   -0.3028    2.5566   -2.1483 H   0  0  0  0  0  0  0  0  0  0  0  0
    0.2208    0.8814   -2.3976 H   0  0  0  0  0  0  0  0  0  0  0  0
   -0.7848    2.2579    0.4382 O   0  0  0  0  0  0  0  0  0  0  0  0
   -0.8866    3.1036   -0.0032 H   0  0  0  0  0  0  0  0  0  0  0  0
    0.7687    0.0654    1.6542 C   0  0  0  0  0  0  0  0  0  0  0  0
    0.5068    0.9858    2.4285 O   0  0  0  0  0  0  0  0  0  0  0  0
    1.5468   -0.9651    2.0135 N   0  0  0  0  0  0  0  0  0  0  0  0
    1.7078   -1.6975    1.3418 H   0  0  0  0  0  0  0  0  0  0  0  0
    2.1792   -1.0894    3.3258 C   0  0  0  0  0  0  0  0  0  0  0  0
    1.4257   -0.9908    4.1097 H   0  0  0  0  0  0  0  0  0  0  0  0
    2.6712   -2.0575    3.4212 H   0  0  0  0  0  0  0  0  0  0  0  0
    2.9175   -0.2951    3.4546 H   0  0  0  0  0  0  0  0  0  0  0  0
  5  6  2  0  0  0  0
  5  7  1  0  0  0  0
  2  3  1  0  0  0  0
  2  4  1  0  0  0  0
  2  5  1  0  0  0  0
  1  2  1  0  0  0  0
 19 20  2  0  0  0  0
 19 21  1  0  0  0  0
 17 18  1  0  0  0  0
 13 14  1  0  0  0  0
 13 15  1  0  0  0  0
 13 16  1  0  0  0  0
 11 12  1  0  0  0  0
 11 13  1  0  0  0  0
 11 17  1  0  0  0  0
  9 10  1  0  0  0  0
  9 11  1  0  0  0  0
  9 19  1  0  0  0  0
  7  8  1  0  0  0  0
  7  9  1  0  0  0  0
 23 24  1  0  0  0  0
 23 25  1  0  0  0  0
 23 26  1  0  0  0  0
 21 22  1  0  0  0  0
 21 23  1  0  0  0  0
M  END
$$$$
default_name
  -OEChem-01062215323D

 26 25  0     1  0  0  0  0  0999 V2000
   -2.8882   -3.2497    1.2537 H   0  0  0  0  0  0  0  0  0  0  0  0
   -2.8032   -2.3157    0.7017 C   0  0  0  0  0  0  0  0  0  0  0  0
   -3.5012   -1.5857    1.1067 H   0  0  0  0  0  0  0  0  0  0  0  0
   -3.0182   -2.4907   -0.3513 H   0  0  0  0  0  0  0  0  0  0  0  0
   -1.3942   -1.7897    0.8407 C   0  0  0  0  0  0  0  0  0  0  0  0
   -0.5672   -2.4077    1.5007 O   0  0  0  0  0  0  0  0  0  0  0  0
   -1.1222   -0.6447    0.2217 N   0  0  0  0  0  0  0  0  0  0  0  0
   -1.8592   -0.1777   -0.2863 H   0  0  0  0  0  0  0  0  0  0  0  0
    0.1838    0.0363    0.2367 C   0  0  1  0  0  0  0  0  0  0  0  0
    0.8770   -0.5249   -0.3889 H   0  0  0  0  0  0  0  0  0  0  0  0
    0.0903    1.4685   -0.3288 C   0  0  1  0  0  0  0  0  0  0  0  0
    1.0828    1.9167   -0.2881 H   0  0  0  0  0  0  0  0  0  0  0  0
   -0.3911    1.5364   -1.7768 C   0  0  0  0  0  0  0  0  0  0  0  0
   -1.4322    1.2186   -1.8464 H   0  0  0  0  0  0  0  0  0  0  0  0
   -0.3028    2.5566   -2.1483 H   0  0  0  0  0  0  0  0  0  0  0  0
    0.2208    0.8814   -2.3976 H   0  0  0  0  0  0  0  0  0  0  0  0
   -0.7848    2.2579    0.4382 O   0  0  0  0  0  0  0  0  0  0  0  0
   -0.8866    3.1036   -0.0032 H   0  0  0  0  0  0  0  0  0  0  0  0
    0.7687    0.0654    1.6542 C   0  0  0  0  0  0  0  0  0  0  0  0
    0.3076    0.8158    2.5142 O   0  0  0  0  0  0  0  0  0  0  0  0
    1.7765   -0.7790    1.9149 N   0  0  0  0  0  0  0  0  0  0  0  0
    2.0965   -1.3820    1.1749 H   0  0  0  0  0  0  0  0  0  0  0  0
    2.4424   -0.8763    3.2128 C   0  0  0  0  0  0  0  0  0  0  0  0
    1.7005   -1.0385    3.9973 H   0  0  0  0  0  0  0  0  0  0  0  0
    3.1530   -1.7030    3.2151 H   0  0  0  0  0  0  0  0  0  0  0  0
    2.9716    0.0551    3.4251 H   0  0  0  0  0  0  0  0  0  0  0  0
  5  6  2  0  0  0  0
  5  7  1  0  0  0  0
  2  3  1  0  0  0  0
  2  4  1  0  0  0  0
  2  5  1  0  0  0  0
  1  2  1  0  0  0  0
 19 20  2  0  0  0  0
 19 21  1  0  0  0  0
 17 18  1  0  0  0  0
 13 14  1  0  0  0  0
 13 15  1  0  0  0  0
 13 16  1  0  0  0  0
 11 12  1  0  0  0  0
 11 13  1  0  0  0  0
 11 17  1  0  0  0  0
  9 10  1  0  0  0  0
  9 11  1  0  0  0  0
  9 19  1  0  0  0  0
  7  8  1  0  0  0  0
  7  9  1  0  0  0  0
 23 24  1  0  0  0  0
 23 25  1  0  0  0  0
 23 26  1  0  0  0  0
 21 22  1  0  0  0  0
 21 23  1  0  0  0  0
M  END
$$$$
default_name
  -OEChem-01062215323D

 26 25  0     1  0  0  0  0  0999 V2000
   -2.8882   -3.2497    1.2537 H   0  0  0  0  0  0  0  0  0  0  0  0
   -2.8032   -2.3157    0.7017 C   0  0  0  0  0  0  0  0  0  0  0  0
   -3.5012   -1.5857    1.1067 H   0  0  0  0  0  0  0  0  0  0  0  0
   -3.0182   -2.4907   -0.3513 H   0  0  0  0  0  0  0  0  0  0  0  0
   -1.3942   -1.7897    0.8407 C   0  0  0  0  0  0  0  0  0  0  0  0
   -0.5672   -2.4077    1.5007 O   0  0  0  0  0  0  0  0  0  0  0  0
   -1.1222   -0.6447    0.2217 N   0  0  0  0  0  0  0  0  0  0  0  0
   -1.8592   -0.1777   -0.2863 H   0  0  0  0  0  0  0  0  0  0  0  0
    0.1838    0.0363    0.2367 C   0  0  1  0  0  0  0  0  0  0  0  0
    0.8770   -0.5249   -0.3889 H   0  0  0  0  0  0  0  0  0  0  0  0
    0.0903    1.4685   -0.3288 C   0  0  1  0  0  0  0  0  0  0  0  0
    1.0828    1.9167   -0.2881 H   0  0  0  0  0  0  0  0  0  0  0  0
   -0.3911    1.5364   -1.7768 C   0  0  0  0  0  0  0  0  0  0  0  0
   -1.4322    1.2186   -1.8464 H   0  0  0  0  0  0  0  0  0  0  0  0
   -0.3028    2.5566   -2.1483 H   0  0  0  0  0  0  0  0  0  0  0  0
    0.2208    0.8814   -2.3976 H   0  0  0  0  0  0  0  0  0  0  0  0
   -0.7848    2.2579    0.4382 O   0  0  0  0  0  0  0  0  0  0  0  0
   -0.8866    3.1036   -0.0032 H   0  0  0  0  0  0  0  0  0  0  0  0
    0.7687    0.0654    1.6542 C   0  0  0  0  0  0  0  0  0  0  0  0
    0.1563    0.5954    2.5812 O   0  0  0  0  0  0  0  0  0  0  0  0
    1.9533   -0.5345    1.8369 N   0  0  0  0  0  0  0  0  0  0  0  0
    2.3956   -0.9677    1.0430 H   0  0  0  0  0  0  0  0  0  0  0  0
    2.6451   -0.5964    3.1234 C   0  0  0  0  0  0  0  0  0  0  0  0
    1.9768   -1.0076    3.8826 H   0  0  0  0  0  0  0  0  0  0  0  0
    3.5326   -1.2250    3.0486 H   0  0  0  0  0  0  0  0  0  0  0  0
    2.9399    0.4092    3.4310 H   0  0  0  0  0  0  0  0  0  0  0  0
  5  6  2  0  0  0  0
  5  7  1  0  0  0  0
  2  3  1  0  0  0  0
  2  4  1  0  0  0  0
  2  5  1  0  0  0  0
  1  2  1  0  0  0  0
 19 20  2  0  0  0  0
 19 21  1  0  0  0  0
 17 18  1  0  0  0  0
 13 14  1  0  0  0  0
 13 15  1  0  0  0  0
 13 16  1  0  0  0  0
 11 12  1  0  0  0  0
 11 13  1  0  0  0  0
 11 17  1  0  0  0  0
  9 10  1  0  0  0  0
  9 11  1  0  0  0  0
  9 19  1  0  0  0  0
  7  8  1  0  0  0  0
  7  9  1  0  0  0  0
 23 24  1  0  0  0  0
 23 25  1  0  0  0  0
 23 26  1  0  0  0  0
 21 22  1  0  0  0  0
 21 23  1  0  0  0  0
M  END
$$$$
default_name
  -OEChem-01062215323D

 26 25  0     1  0  0  0  0  0999 V2000
   -2.8882   -3.2497    1.2537 H   0  0  0  0  0  0  0  0  0  0  0  0
   -2.8032   -2.3157    0.7017 C   0  0  0  0  0  0  0  0  0  0  0  0
   -3.5012   -1.5857    1.1067 H   0  0  0  0  0  0  0  0  0  0  0  0
   -3.0182   -2.4907   -0.3513 H   0  0  0  0  0  0  0  0  0  0  0  0
   -1.3942   -1.7897    0.8407 C   0  0  0  0  0  0  0  0  0  0  0  0
   -0.5672   -2.4077    1.5007 O   0  0  0  0  0  0  0  0  0  0  0  0
   -1.1222   -0.6447    0.2217 N   0  0  0  0  0  0  0  0  0  0  0  0
   -1.8592   -0.1777   -0.2863 H   0  0  0  0  0  0  0  0  0  0  0  0
    0.1838    0.0363    0.2367 C   0  0  1  0  0  0  0  0  0  0  0  0
    0.8770   -0.5249   -0.3889 H   0  0  0  0  0  0  0  0  0  0  0  0
    0.0903    1.4685   -0.3288 C   0  0  1  0  0  0  0  0  0  0  0  0
    1.0828    1.9167   -0.2881 H   0  0  0  0  0  0  0  0  0  0  0  0
   -0.3911    1.5364   -1.7768 C   0  0  0  0  0  0  0  0  0  0  0  0
   -1.4322    1.2186   -1.8464 H   0  0  0  0  0  0  0  0  0  0  0  0
   -0.3028    2.5566   -2.1483 H   0  0  0  0  0  0  0  0  0  0  0  0
    0.2208    0.8814   -2.3976 H   0  0  0  0  0  0  0  0  0  0  0  0
   -0.7848    2.2579    0.4382 O   0  0  0  0  0  0  0  0  0  0  0  0
   -0.8866    3.1036   -0.0032 H   0  0  0  0  0  0  0  0  0  0  0  0
    0.7687    0.0654    1.6542 C   0  0  0  0  0  0  0  0  0  0  0  0
    0.0632    0.3398    2.6248 O   0  0  0  0  0  0  0  0  0  0  0  0
    2.0653   -0.2483    1.7848 N   0  0  0  0  0  0  0  0  0  0  0  0
    2.5847   -0.4830    0.9550 H   0  0  0  0  0  0  0  0  0  0  0  0
    2.7734   -0.2687    3.0637 C   0  0  0  0  0  0  0  0  0  0  0  0
    2.2357   -0.9004    3.7736 H   0  0  0  0  0  0  0  0  0  0  0  0
    3.7841   -0.6560    2.9332 H   0  0  0  0  0  0  0  0  0  0  0  0
    2.8246    0.7431    3.4717 H   0  0  0  0  0  0  0  0  0  0  0  0
  5  6  2  0  0  0  0
  5  7  1  0  0  0  0
  2  3  1  0  0  0  0
  2  4  1  0  0  0  0
  2  5  1  0  0  0  0
  1  2  1  0  0  0  0
 19 20  2  0  0  0  0
 19 21  1  0  0  0  0
 17 18  1  0  0  0  0
 13 14  1  0  0  0  0
 13 15  1  0  0  0  0
 13 16  1  0  0  0  0
 11 12  1  0  0  0  0
 11 13  1  0  0  0  0
 11 17  1  0  0  0  0
  9 10  1  0  0  0  0
  9 11  1  0  0  0  0
  9 19  1  0  0  0  0
  7  8  1  0  0  0  0
  7  9  1  0  0  0  0
 23 24  1  0  0  0  0
 23 25  1  0  0  0  0
 23 26  1  0  0  0  0
 21 22  1  0  0  0  0
 21 23  1  0  0  0  0
M  END
$$$$
default_name
  -OEChem-01062215323D

 26 25  0     1  0  0  0  0  0999 V2000
   -2.8882   -3.2497    1.2537 H   0  0  0  0  0  0  0  0  0  0  0  0
   -2.8032   -2.3157    0.7017 C   0  0  0  0  0  0  0  0  0  0  0  0
   -3.5012   -1.5857    1.1067 H   0  0  0  0  0  0  0  0  0  0  0  0
   -3.0182   -2.4907   -0.3513 H   0  0  0  0  0  0  0  0  0  0  0  0
   -1.3942   -1.7897    0.8407 C   0  0  0  0  0  0  0  0  0  0  0  0
   -0.5672   -2.4077    1.5007 O   0  0  0  0  0  0  0  0  0  0  0  0
   -1.1222   -0.6447    0.2217 N   0  0  0  0  0  0  0  0  0  0  0  0
   -1.8592   -0.1777   -0.2863 H   0  0  0  0  0  0  0  0  0  0  0  0
    0.1838    0.0363    0.2367 C   0  0  1  0  0  0  0  0  0  0  0  0
    0.8770   -0.5249   -0.3889 H   0  0  0  0  0  0  0  0  0  0  0  0
    0.0903    1.4685   -0.3288 C   0  0  1  0  0  0  0  0  0  0  0  0
    1.0828    1.9167   -0.2881 H   0  0  0  0  0  0  0  0  0  0  0  0
   -0.3911    1.5364   -1.7768 C   0  0  0  0  0  0  0  0  0  0  0  0
   -1.4322    1.2186   -1.8464 H   0  0  0  0  0  0  0  0  0  0  0  0
   -0.3028    2.5566   -2.1483 H   0  0  0  0  0  0  0  0  0  0  0  0
    0.2208    0.8814   -2.3976 H   0  0  0  0  0  0  0  0  0  0  0  0
   -0.7848    2.2579    0.4382 O   0  0  0  0  0  0  0  0  0  0  0  0
   -0.8866    3.1036   -0.0032 H   0  0  0  0  0  0  0  0  0  0  0  0
    0.7687    0.0654    1.6542 C   0  0  0  0  0  0  0  0  0  0  0  0
    0.0346    0.0663    2.6423 O   0  0  0  0  0  0  0  0  0  0  0  0
    2.1047    0.0601    1.7622 N   0  0  0  0  0  0  0  0  0  0  0  0
    2.6511    0.0391    0.9169 H   0  0  0  0  0  0  0  0  0  0  0  0
    2.8188    0.0845    3.0378 C   0  0  0  0  0  0  0  0  0  0  0  0
    2.4597   -0.7241    3.6776 H   0  0  0  0  0  0  0  0  0  0  0  0
    3.8903   -0.0349    2.8766 H   0  0  0  0  0  0  0  0  0  0  0  0
    2.6336    1.0340    3.5445 H   0  0  0  0  0  0  0  0  0  0  0  0
  5  6  2  0  0  0  0
  5  7  1  0  0  0  0
  2  3  1  0  0  0  0
  2  4  1  0  0  0  0
  2  5  1  0  0  0  0
  1  2  1  0  0  0  0
 19 20  2  0  0  0  0
 19 21  1  0  0  0  0
 17 18  1  0  0  0  0
 13 14  1  0  0  0  0
 13 15  1  0  0  0  0
 13 16  1  0  0  0  0
 11 12  1  0  0  0  0
 11 13  1  0  0  0  0
 11 17  1  0  0  0  0
  9 10  1  0  0  0  0
  9 11  1  0  0  0  0
  9 19  1  0  0  0  0
  7  8  1  0  0  0  0
  7  9  1  0  0  0  0
 23 24  1  0  0  0  0
 23 25  1  0  0  0  0
 23 26  1  0  0  0  0
 21 22  1  0  0  0  0
 21 23  1  0  0  0  0
M  END
$$$$
default_name
  -OEChem-01062215323D

 26 25  0     1  0  0  0  0  0999 V2000
   -2.8882   -3.2497    1.2537 H   0  0  0  0  0  0  0  0  0  0  0  0
   -2.8032   -2.3157    0.7017 C   0  0  0  0  0  0  0  0  0  0  0  0
   -3.5012   -1.5857    1.1067 H   0  0  0  0  0  0  0  0  0  0  0  0
   -3.0182   -2.4907   -0.3513 H   0  0  0  0  0  0  0  0  0  0  0  0
   -1.3942   -1.7897    0.8407 C   0  0  0  0  0  0  0  0  0  0  0  0
   -0.5672   -2.4077    1.5007 O   0  0  0  0  0  0  0  0  0  0  0  0
   -1.1222   -0.6447    0.2217 N   0  0  0  0  0  0  0  0  0  0  0  0
   -1.8592   -0.1777   -0.2863 H   0  0  0  0  0  0  0  0  0  0  0  0
    0.1838    0.0363    0.2367 C   0  0  1  0  0  0  0  0  0  0  0  0
    0.8770   -0.5249   -0.3889 H   0  0  0  0  0  0  0  0  0  0  0  0
    0.0903    1.4685   -0.3288 C   0  0  1  0  0  0  0  0  0  0  0  0
    1.0828    1.9167   -0.2881 H   0  0  0  0  0  0  0  0  0  0  0  0
   -0.3911    1.5364   -1.7768 C   0  0  0  0  0  0  0  0  0  0  0  0
   -1.4322    1.2186   -1.8464 H   0  0  0  0  0  0  0  0  0  0  0  0
   -0.3028    2.5566   -2.1483 H   0  0  0  0  0  0  0  0  0  0  0  0
    0.2208    0.8814   -2.3976 H   0  0  0  0  0  0  0  0  0  0  0  0
   -0.7848    2.2579    0.4382 O   0  0  0  0  0  0  0  0  0  0  0  0
   -0.8866    3.1036   -0.0032 H   0  0  0  0  0  0  0  0  0  0  0  0
    0.7687    0.0654    1.6542 C   0  0  0  0  0  0  0  0  0  0  0  0
    0.0725   -0.2065    2.6322 O   0  0  0  0  0  0  0  0  0  0  0  0
    2.0689    0.3695    1.7706 N   0  0  0  0  0  0  0  0  0  0  0  0
    2.5901    0.5631    0.9313 H   0  0  0  0  0  0  0  0  0  0  0  0
    2.7779    0.4390    3.0473 C   0  0  0  0  0  0  0  0  0  0  0  0
    2.6334   -0.4908    3.6011 H   0  0  0  0  0  0  0  0  0  0  0  0
    3.8441    0.5961    2.8827 H   0  0  0  0  0  0  0  0  0  0  0  0
    2.3798    1.2621    3.6445 H   0  0  0  0  0  0  0  0  0  0  0  0
  5  6  2  0  0  0  0
  5  7  1  0  0  0  0
  2  3  1  0  0  0  0
  2  4  1  0  0  0  0
  2  5  1  0  0  0  0
  1  2  1  0  0  0  0
 19 20  2  0  0  0  0
 19 21  1  0  0  0  0
 17 18  1  0  0  0  0
 13 14  1  0  0  0  0
 13 15  1  0  0  0  0
 13 16  1  0  0  0  0
 11 12  1  0  0  0  0
 11 13  1  0  0  0  0
 11 17  1  0  0  0  0
  9 10  1  0  0  0  0
  9 11  1  0  0  0  0
  9 19  1  0  0  0  0
  7  8  1  0  0  0  0
  7  9  1  0  0  0  0
 23 24  1  0  0  0  0
 23 25  1  0  0  0  0
 23 26  1  0  0  0  0
 21 22  1  0  0  0  0
 21 23  1  0  0  0  0
M  END
$$$$
default_name
  -OEChem-01062215323D

 26 25  0     1  0  0  0  0  0999 V2000
   -2.8882   -3.2497    1.2537 H   0  0  0  0  0  0  0  0  0  0  0  0
   -2.8032   -2.3157    0.7017 C   0  0  0  0  0  0  0  0  0  0  0  0
   -3.5012   -1.5857    1.1067 H   0  0  0  0  0  0  0  0  0  0  0  0
   -3.0182   -2.4907   -0.3513 H   0  0  0  0  0  0  0  0  0  0  0  0
   -1.3942   -1.7897    0.8407 C   0  0  0  0  0  0  0  0  0  0  0  0
   -0.5672   -2.4077    1.5007 O   0  0  0  0  0  0  0  0  0  0  0  0
   -1.1222   -0.6447    0.2217 N   0  0  0  0  0  0  0  0  0  0  0  0
   -1.8592   -0.1777   -0.2863 H   0  0  0  0  0  0  0  0  0  0  0  0
    0.1838    0.0363    0.2367 C   0  0  1  0  0  0  0  0  0  0  0  0
    0.7905   -0.3549   -0.5792 H   0  0  0  0  0  0  0  0  0  0  0  0
    0.0393    1.5582    0.0305 C   0  0  1  0  0  0  0  0  0  0  0  0
    1.0346    2.0016    0.0543 H   0  0  0  0  0  0  0  0  0  0  0  0
   -0.6115    1.9484   -1.2951 C   0  0  0  0  0  0  0  0  0  0  0  0
   -1.6569    1.6378   -1.3111 H   0  0  0  0  0  0  0  0  0  0  0  0
   -0.5568    3.0279   -1.4302 H   0  0  0  0  0  0  0  0  0  0  0  0
   -0.0859    1.4634   -2.1182 H   0  0  0  0  0  0  0  0  0  0  0  0
   -0.7284    2.1361    1.0572 O   0  0  0  0  0  0  0  0  0  0  0  0
   -0.8728    3.0587    0.8371 H   0  0  0  0  0  0  0  0  0  0  0  0
    0.9348   -0.2507    1.5428 C   0  0  0  0  0  0  0  0  0  0  0  0
    0.4517   -0.9876    2.4023 O   0  0  0  0  0  0  0  0  0  0  0  0
    2.1431    0.3113    1.6869 N   0  0  0  0  0  0  0  0  0  0  0  0
    2.4924    0.8885    0.9397 H   0  0  0  0  0  0  0  0  0  0  0  0
    2.9866    0.1373    2.8684 C   0  0  0  0  0  0  0  0  0  0  0  0
    3.1208   -0.9268    3.0729 H   0  0  0  0  0  0  0  0  0  0  0  0
    3.9620    0.5980    2.7110 H   0  0  0  0  0  0  0  0  0  0  0  0
    2.5057    0.5974    3.7342 H   0  0  0  0  0  0  0  0  0  0  0  0
  5  6  2  0  0  0  0
  5  7  1  0  0  0  0
  2  3  1  0  0  0  0
  2  4  1  0  0  0  0
  2  5  1  0  0  0  0
  1  2  1  0  0  0  0
 19 20  2  0  0  0  0
 19 21  1  0  0  0  0
 17 18  1  0  0  0  0
 13 14  1  0  0  0  0
 13 15  1  0  0  0  0
 13 16  1  0  0  0  0
 11 12  1  0  0  0  0
 11 13  1  0  0  0  0
 11 17  1  0  0  0  0
  9 10  1  0  0  0  0
  9 11  1  0  0  0  0
  9 19  1  0  0  0  0
  7  8  1  0  0  0  0
  7  9  1  0  0  0  0
 23 24  1  0  0  0  0
 23 25  1  0  0  0  0
 23 26  1  0  0  0  0
 21 22  1  0  0  0  0
 21 23  1  0  0  0  0
M  END
$$$$
default_name
  -OEChem-01062215323D

 26 25  0     1  0  0  0  0  0999 V2000
   -2.8882   -3.2497    1.2537 H   0  0  0  0  0  0  0  0  0  0  0  0
   -2.8032   -2.3157    0.7017 C   0  0  0  0  0  0  0  0  0  0  0  0
   -3.5012   -1.5857    1.1067 H   0  0  0  0  0  0  0  0  0  0  0  0
   -3.0182   -2.4907   -0.3513 H   0  0  0  0  0  0  0  0  0  0  0  0
   -1.3942   -1.7897    0.8407 C   0  0  0  0  0  0  0  0  0  0  0  0
   -0.5672   -2.4077    1.5007 O   0  0  0  0  0  0  0  0  0  0  0  0
   -1.1222   -0.6447    0.2217 N   0  0  0  0  0  0  0  0  0  0  0  0
   -1.8592   -0.1777   -0.2863 H   0  0  0  0  0  0  0  0  0  0  0  0
    0.1838    0.0363    0.2367 C   0  0  1  0  0  0  0  0  0  0  0  0
    0.7905   -0.3549   -0.5792 H   0  0  0  0  0  0  0  0  0  0  0  0
    0.0393    1.5582    0.0305 C   0  0  1  0  0  0  0  0  0  0  0  0
    1.0346    2.0016    0.0543 H   0  0  0  0  0  0  0  0  0  0  0  0
   -0.6115    1.9484   -1.2951 C   0  0  0  0  0  0  0  0  0  0  0  0
   -1.6569    1.6378   -1.3111 H   0  0  0  0  0  0  0  0  0  0  0  0
   -0.5568    3.0279   -1.4302 H   0  0  0  0  0  0  0  0  0  0  0  0
   -0.0859    1.4634   -2.1182 H   0  0  0  0  0  0  0  0  0  0  0  0
   -0.7284    2.1361    1.0572 O   0  0  0  0  0  0  0  0  0  0  0  0
   -0.8728    3.0587    0.8371 H   0  0  0  0  0  0  0  0  0  0  0  0
    0.9348   -0.2507    1.5428 C   0  0  0  0  0  0  0  0  0  0  0  0
    0.5995   -1.1820    2.2746 O   0  0  0  0  0  0  0  0  0  0  0  0
    1.9813    0.5363    1.8294 N   0  0  0  0  0  0  0  0  0  0  0  0
    2.2181    1.2692    1.1811 H   0  0  0  0  0  0  0  0  0  0  0  0
    2.8013    0.3952    3.0315 C   0  0  0  0  0  0  0  0  0  0  0  0
    3.1630   -0.6318    3.1135 H   0  0  0  0  0  0  0  0  0  0  0  0
    3.6539    1.0734    2.9926 H   0  0  0  0  0  0  0  0  0  0  0  0
    2.2004    0.6212    3.9150 H   0  0  0  0  0  0  0  0  0  0  0  0
  5  6  2  0  0  0  0
  5  7  1  0  0  0  0
  2  3  1  0  0  0  0
  2  4  1  0  0  0  0
  2  5  1  0  0  0  0
  1  2  1  0  0  0  0
 19 20  2  0  0  0  0
 19 21  1  0  0  0  0
 17 18  1  0  0  0  0
 13 14  1  0  0  0  0
 13 15  1  0  0  0  0
 13 16  1  0  0  0  0
 11 12  1  0  0  0  0
 11 13  1  0  0  0  0
 11 17  1  0  0  0  0
  9 10  1  0  0  0  0
  9 11  1  0  0  0  0
  9 19  1  0  0  0  0
  7  8  1  0  0  0  0
  7  9  1  0  0  0  0
 23 24  1  0  0  0  0
 23 25  1  0  0  0  0
 23 26  1  0  0  0  0
 21 22  1  0  0  0  0
 21 23  1  0  0  0  0
M  END
$$$$
default_name
  -OEChem-01062215323D

 26 25  0     1  0  0  0  0  0999 V2000
   -2.8882   -3.2497    1.2537 H   0  0  0  0  0  0  0  0  0  0  0  0
   -2.8032   -2.3157    0.7017 C   0  0  0  0  0  0  0  0  0  0  0  0
   -3.5012   -1.5857    1.1067 H   0  0  0  0  0  0  0  0  0  0  0  0
   -3.0182   -2.4907   -0.3513 H   0  0  0  0  0  0  0  0  0  0  0  0
   -1.3942   -1.7897    0.8407 C   0  0  0  0  0  0  0  0  0  0  0  0
   -0.5672   -2.4077    1.5007 O   0  0  0  0  0  0  0  0  0  0  0  0
   -1.1222   -0.6447    0.2217 N   0  0  0  0  0  0  0  0  0  0  0  0
   -1.8592   -0.1777   -0.2863 H   0  0  0  0  0  0  0  0  0  0  0  0
    0.1838    0.0363    0.2367 C   0  0  1  0  0  0  0  0  0  0  0  0
    0.7905   -0.3549   -0.5792 H   0  0  0  0  0  0  0  0  0  0  0  0
    0.0393    1.5582    0.0305 C   0  0  1  0  0  0  0  0  0  0  0  0
    1.0346    2.0016    0.0543 H   0  0  0  0  0  0  0  0  0  0  0  0
   -0.6115    1.9484   -1.2951 C   0  0  0  0  0  0  0  0  0  0  0  0
   -1.6569    1.6378   -1.3111 H   0  0  0  0  0  0  0  0  0  0  0  0
   -0.5568    3.0279   -1.4302 H   0  0  0  0  0  0  0  0  0  0  0  0
   -0.0859    1.4634   -2.1182 H   0  0  0  0  0  0  0  0  0  0  0  0
   -0.7284    2.1361    1.0572 O   0  0  0  0  0  0  0  0  0  0  0  0
   -0.8728    3.0587    0.8371 H   0  0  0  0  0  0  0  0  0  0  0  0
    0.9348   -0.2507    1.5428 C   0  0  0  0  0  0  0  0  0  0  0  0
    0.7913   -1.3209    2.1337 O   0  0  0  0  0  0  0  0  0  0  0  0
    1.7684    0.6999    1.9877 N   0  0  0  0  0  0  0  0  0  0  0  0
    1.8575    1.5458    1.4492 H   0  0  0  0  0  0  0  0  0  0  0  0
    2.5577    0.5827    3.2129 C   0  0  0  0  0  0  0  0  0  0  0  0
    3.1367   -0.3427    3.1921 H   0  0  0  0  0  0  0  0  0  0  0  0
    3.2379    1.4291    3.3100 H   0  0  0  0  0  0  0  0  0  0  0  0
    1.8915    0.5540    4.0778 H   0  0  0  0  0  0  0  0  0  0  0  0
  5  6  2  0  0  0  0
  5  7  1  0  0  0  0
  2  3  1  0  0  0  0
  2  4  1  0  0  0  0
  2  5  1  0  0  0  0
  1  2  1  0  0  0  0
 19 20  2  0  0  0  0
 19 21  1  0  0  0  0
 17 18  1  0  0  0  0
 13 14  1  0  0  0  0
 13 15  1  0  0  0  0
 13 16  1  0  0  0  0
 11 12  1  0  0  0  0
 11 13  1  0  0  0  0
 11 17  1  0  0  0  0
  9 10  1  0  0  0  0
  9 11  1  0  0  0  0
  9 19  1  0  0  0  0
  7  8  1  0  0  0  0
  7  9  1  0  0  0  0
 23 24  1  0  0  0  0
 23 25  1  0  0  0  0
 23 26  1  0  0  0  0
 21 22  1  0  0  0  0
 21 23  1  0  0  0  0
M  END
$$$$
default_name
  -OEChem-01062215323D

 26 25  0     1  0  0  0  0  0999 V2000
   -2.8882   -3.2497    1.2537 H   0  0  0  0  0  0  0  0  0  0  0  0
   -2.8032   -2.3157    0.7017 C   0  0  0  0  0  0  0  0  0  0  0  0
   -3.5012   -1.5857    1.1067 H   0  0  0  0  0  0  0  0  0  0  0  0
   -3.0182   -2.4907   -0.3513 H   0  0  0  0  0  0  0  0  0  0  0  0
   -1.3942   -1.7897    0.8407 C   0  0  0  0  0  0  0  0  0  0  0  0
   -0.5672   -2.4077    1.5007 O   0  0  0  0  0  0  0  0  0  0  0  0
   -1.1222   -0.6447    0.2217 N   0  0  0  0  0  0  0  0  0  0  0  0
   -1.8592   -0.1777   -0.2863 H   0  0  0  0  0  0  0  0  0  0  0  0
    0.1838    0.0363    0.2367 C   0  0  1  0  0  0  0  0  0  0  0  0
    0.7905   -0.3549   -0.5792 H   0  0  0  0  0  0  0  0  0  0  0  0
    0.0393    1.5582    0.0305 C   0  0  1  0  0  0  0  0  0  0  0  0
    1.0346    2.0016    0.0543 H   0  0  0  0  0  0  0  0  0  0  0  0
   -0.6115    1.9484   -1.2951 C   0  0  0  0  0  0  0  0  0  0  0  0
   -1.6569    1.6378   -1.3111 H   0  0  0  0  0  0  0  0  0  0  0  0
   -0.5568    3.0279   -1.4302 H   0  0  0  0  0  0  0  0  0  0  0  0
   -0.0859    1.4634   -2.1182 H   0  0  0  0  0  0  0  0  0  0  0  0
   -0.7284    2.1361    1.0572 O   0  0  0  0  0  0  0  0  0  0  0  0
   -0.8728    3.0587    0.8371 H   0  0  0  0  0  0  0  0  0  0  0  0
    0.9348   -0.2507    1.5428 C   0  0  0  0  0  0  0  0  0  0  0  0
    1.0140   -1.3950    1.9894 O   0  0  0  0  0  0  0  0  0  0  0  0
    1.5191    0.7910    2.1511 N   0  0  0  0  0  0  0  0  0  0  0  0
    1.4352    1.6996    1.7258 H   0  0  0  0  0  0  0  0  0  0  0  0
    2.2722    0.6872    3.4000 C   0  0  0  0  0  0  0  0  0  0  0  0
    3.0437   -0.0792    3.3034 H   0  0  0  0  0  0  0  0  0  0  0  0
    2.7422    1.6407    3.6415 H   0  0  0  0  0  0  0  0  0  0  0  0
    1.6001    0.4004    4.2116 H   0  0  0  0  0  0  0  0  0  0  0  0
  5  6  2  0  0  0  0
  5  7  1  0  0  0  0
  2  3  1  0  0  0  0
  2  4  1  0  0  0  0
  2  5  1  0  0  0  0
  1  2  1  0  0  0  0
 19 20  2  0  0  0  0
 19 21  1  0  0  0  0
 17 18  1  0  0  0  0
 13 14  1  0  0  0  0
 13 15  1  0  0  0  0
 13 16  1  0  0  0  0
 11 12  1  0  0  0  0
 11 13  1  0  0  0  0
 11 17  1  0  0  0  0
  9 10  1  0  0  0  0
  9 11  1  0  0  0  0
  9 19  1  0  0  0  0
  7  8  1  0  0  0  0
  7  9  1  0  0  0  0
 23 24  1  0  0  0  0
 23 25  1  0  0  0  0
 23 26  1  0  0  0  0
 21 22  1  0  0  0  0
 21 23  1  0  0  0  0
M  END
$$$$
default_name
  -OEChem-01062215323D

 26 25  0     1  0  0  0  0  0999 V2000
   -2.8882   -3.2497    1.2537 H   0  0  0  0  0  0  0  0  0  0  0  0
   -2.8032   -2.3157    0.7017 C   0  0  0  0  0  0  0  0  0  0  0  0
   -3.5012   -1.5857    1.1067 H   0  0  0  0  0  0  0  0  0  0  0  0
   -3.0182   -2.4907   -0.3513 H   0  0  0  0  0  0  0  0  0  0  0  0
   -1.3942   -1.7897    0.8407 C   0  0  0  0  0  0  0  0  0  0  0  0
   -0.5672   -2.4077    1.5007 O   0  0  0  0  0  0  0  0  0  0  0  0
   -1.1222   -0.6447    0.2217 N   0  0  0  0  0  0  0  0  0  0  0  0
   -1.8592   -0.1777   -0.2863 H   0  0  0  0  0  0  0  0  0  0  0  0
    0.1838    0.0363    0.2367 C   0  0  1  0  0  0  0  0  0  0  0  0
    0.7905   -0.3549   -0.5792 H   0  0  0  0  0  0  0  0  0  0  0  0
    0.0393    1.5582    0.0305 C   0  0  1  0  0  0  0  0  0  0  0  0
    1.0346    2.0016    0.0543 H   0  0  0  0  0  0  0  0  0  0  0  0
   -0.6115    1.9484   -1.2951 C   0  0  0  0  0  0  0  0  0  0  0  0
   -1.6569    1.6378   -1.3111 H   0  0  0  0  0  0  0  0  0  0  0  0
   -0.5568    3.0279   -1.4302 H   0  0  0  0  0  0  0  0  0  0  0  0
   -0.0859    1.4634   -2.1182 H   0  0  0  0  0  0  0  0  0  0  0  0
   -0.7284    2.1361    1.0572 O   0  0  0  0  0  0  0  0  0  0  0  0
   -0.8728    3.0587    0.8371 H   0  0  0  0  0  0  0  0  0  0  0  0
    0.9348   -0.2507    1.5428 C   0  0  0  0  0  0  0  0  0  0  0  0
    1.2525   -1.3992    1.8513 O   0  0  0  0  0  0  0  0  0  0  0  0
    1.2503    0.8033    2.3083 N   0  0  0  0  0  0  0  0  0  0  0  0
    0.9800    1.7200    1.9920 H   0  0  0  0  0  0  0  0  0  0  0  0
    1.9643    0.7015    3.5802 C   0  0  0  0  0  0  0  0  0  0  0  0
    2.8905    0.1407    3.4398 H   0  0  0  0  0  0  0  0  0  0  0  0
    2.2008    1.6938    3.9645 H   0  0  0  0  0  0  0  0  0  0  0  0
    1.3460    0.1708    4.3073 H   0  0  0  0  0  0  0  0  0  0  0  0
  5  6  2  0  0  0  0
  5  7  1  0  0  0  0
  2  3  1  0  0  0  0
  2  4  1  0  0  0  0
  2  5  1  0  0  0  0
  1  2  1  0  0  0  0
 19 20  2  0  0  0  0
 19 21  1  0  0  0  0
 17 18  1  0  0  0  0
 13 14  1  0  0  0  0
 13 15  1  0  0  0  0
 13 16  1  0  0  0  0
 11 12  1  0  0  0  0
 11 13  1  0  0  0  0
 11 17  1  0  0  0  0
  9 10  1  0  0  0  0
  9 11  1  0  0  0  0
  9 19  1  0  0  0  0
  7  8  1  0  0  0  0
  7  9  1  0  0  0  0
 23 24  1  0  0  0  0
 23 25  1  0  0  0  0
 23 26  1  0  0  0  0
 21 22  1  0  0  0  0
 21 23  1  0  0  0  0
M  END
$$$$
default_name
  -OEChem-01062215323D

 26 25  0     1  0  0  0  0  0999 V2000
   -2.8882   -3.2497    1.2537 H   0  0  0  0  0  0  0  0  0  0  0  0
   -2.8032   -2.3157    0.7017 C   0  0  0  0  0  0  0  0  0  0  0  0
   -3.5012   -1.5857    1.1067 H   0  0  0  0  0  0  0  0  0  0  0  0
   -3.0182   -2.4907   -0.3513 H   0  0  0  0  0  0  0  0  0  0  0  0
   -1.3942   -1.7897    0.8407 C   0  0  0  0  0  0  0  0  0  0  0  0
   -0.5672   -2.4077    1.5007 O   0  0  0  0  0  0  0  0  0  0  0  0
   -1.1222   -0.6447    0.2217 N   0  0  0  0  0  0  0  0  0  0  0  0
   -1.8592   -0.1777   -0.2863 H   0  0  0  0  0  0  0  0  0  0  0  0
    0.1838    0.0363    0.2367 C   0  0  1  0  0  0  0  0  0  0  0  0
    0.7905   -0.3549   -0.5792 H   0  0  0  0  0  0  0  0  0  0  0  0
    0.0393    1.5582    0.0305 C   0  0  1  0  0  0  0  0  0  0  0  0
    1.0346    2.0016    0.0543 H   0  0  0  0  0  0  0  0  0  0  0  0
   -0.6115    1.9484   -1.2951 C   0  0  0  0  0  0  0  0  0  0  0  0
   -1.6569    1.6378   -1.3111 H   0  0  0  0  0  0  0  0  0  0  0  0
   -0.5568    3.0279   -1.4302 H   0  0  0  0  0  0  0  0  0  0  0  0
   -0.0859    1.4634   -2.1182 H   0  0  0  0  0  0  0  0  0  0  0  0
   -0.7284    2.1361    1.0572 O   0  0  0  0  0  0  0  0  0  0  0  0
   -0.8728    3.0587    0.8371 H   0  0  0  0  0  0  0  0  0  0  0  0
    0.9348   -0.2507    1.5428 C   0  0  0  0  0  0  0  0  0  0  0  0
    1.4904   -1.3332    1.7290 O   0  0  0  0  0  0  0  0  0  0  0  0
    0.9804    0.7360    2.4488 N   0  0  0  0  0  0  0  0  0  0  0  0
    0.5230    1.6057    2.2297 H   0  0  0  0  0  0  0  0  0  0  0  0
    1.6551    0.6246    3.7411 C   0  0  0  0  0  0  0  0  0  0  0  0
    2.6875    0.3020    3.5921 H   0  0  0  0  0  0  0  0  0  0  0  0
    1.6505    1.5849    4.2570 H   0  0  0  0  0  0  0  0  0  0  0  0
    1.1465   -0.1191    4.3583 H   0  0  0  0  0  0  0  0  0  0  0  0
  5  6  2  0  0  0  0
  5  7  1  0  0  0  0
  2  3  1  0  0  0  0
  2  4  1  0  0  0  0
  2  5  1  0  0  0  0
  1  2  1  0  0  0  0
 19 20  2  0  0  0  0
 19 21  1  0  0  0  0
 17 18  1  0  0  0  0
 13 14  1  0  0  0  0
 13 15  1  0  0  0  0
 13 16  1  0  0  0  0
 11 12  1  0  0  0  0
 11 13  1  0  0  0  0
 11 17  1  0  0  0  0
  9 10  1  0  0  0  0
  9 11  1  0  0  0  0
  9 19  1  0  0  0  0
  7  8  1  0  0  0  0
  7  9  1  0  0  0  0
 23 24  1  0  0  0  0
 23 25  1  0  0  0  0
 23 26  1  0  0  0  0
 21 22  1  0  0  0  0
 21 23  1  0  0  0  0
M  END
$$$$
default_name
  -OEChem-01062215323D

 26 25  0     1  0  0  0  0  0999 V2000
   -2.8882   -3.2497    1.2537 H   0  0  0  0  0  0  0  0  0  0  0  0
   -2.8032   -2.3157    0.7017 C   0  0  0  0  0  0  0  0  0  0  0  0
   -3.5012   -1.5857    1.1067 H   0  0  0  0  0  0  0  0  0  0  0  0
   -3.0182   -2.4907   -0.3513 H   0  0  0  0  0  0  0  0  0  0  0  0
   -1.3942   -1.7897    0.8407 C   0  0  0  0  0  0  0  0  0  0  0  0
   -0.5672   -2.4077    1.5007 O   0  0  0  0  0  0  0  0  0  0  0  0
   -1.1222   -0.6447    0.2217 N   0  0  0  0  0  0  0  0  0  0  0  0
   -1.8592   -0.1777   -0.2863 H   0  0  0  0  0  0  0  0  0  0  0  0
    0.1838    0.0363    0.2367 C   0  0  1  0  0  0  0  0  0  0  0  0
    0.7905   -0.3549   -0.5792 H   0  0  0  0  0  0  0  0  0  0  0  0
    0.0393    1.5582    0.0305 C   0  0  1  0  0  0  0  0  0  0  0  0
    1.0346    2.0016    0.0543 H   0  0  0  0  0  0  0  0  0  0  0  0
   -0.6115    1.9484   -1.2951 C   0  0  0  0  0  0  0  0  0  0  0  0
   -1.6569    1.6378   -1.3111 H   0  0  0  0  0  0  0  0  0  0  0  0
   -0.5568    3.0279   -1.4302 H   0  0  0  0  0  0  0  0  0  0  0  0
   -0.0859    1.4634   -2.1182 H   0  0  0  0  0  0  0  0  0  0  0  0
   -0.7284    2.1361    1.0572 O   0  0  0  0  0  0  0  0  0  0  0  0
   -0.8728    3.0587    0.8371 H   0  0  0  0  0  0  0  0  0  0  0  0
    0.9348   -0.2507    1.5428 C   0  0  0  0  0  0  0  0  0  0  0  0
    1.7116   -1.2015    1.6308 O   0  0  0  0  0  0  0  0  0  0  0  0
    0.7276    0.5937    2.5629 N   0  0  0  0  0  0  0  0  0  0  0  0
    0.0952    1.3644    2.4227 H   0  0  0  0  0  0  0  0  0  0  0  0
    1.3655    0.4618    3.8718 C   0  0  0  0  0  0  0  0  0  0  0  0
    2.4484    0.3938    3.7497 H   0  0  0  0  0  0  0  0  0  0  0  0
    1.1287    1.3213    4.4991 H   0  0  0  0  0  0  0  0  0  0  0  0
    1.0153   -0.4496    4.3611 H   0  0  0  0  0  0  0  0  0  0  0  0
  5  6  2  0  0  0  0
  5  7  1  0  0  0  0
  2  3  1  0  0  0  0
  2  4  1  0  0  0  0
  2  5  1  0  0  0  0
  1  2  1  0  0  0  0
 19 20  2  0  0  0  0
 19 21  1  0  0  0  0
 17 18  1  0  0  0  0
 13 14  1  0  0  0  0
 13 15  1  0  0  0  0
 13 16  1  0  0  0  0
 11 12  1  0  0  0  0
 11 13  1  0  0  0  0
 11 17  1  0  0  0  0
  9 10  1  0  0  0  0
  9 11  1  0  0  0  0
  9 19  1  0  0  0  0
  7  8  1  0  0  0  0
  7  9  1  0  0  0  0
 23 24  1  0  0  0  0
 23 25  1  0  0  0  0
 23 26  1  0  0  0  0
 21 22  1  0  0  0  0
 21 23  1  0  0  0  0
M  END
$$$$
default_name
  -OEChem-01062215323D

 26 25  0     1  0  0  0  0  0999 V2000
   -2.8882   -3.2497    1.2537 H   0  0  0  0  0  0  0  0  0  0  0  0
   -2.8032   -2.3157    0.7017 C   0  0  0  0  0  0  0  0  0  0  0  0
   -3.5012   -1.5857    1.1067 H   0  0  0  0  0  0  0  0  0  0  0  0
   -3.0182   -2.4907   -0.3513 H   0  0  0  0  0  0  0  0  0  0  0  0
   -1.3942   -1.7897    0.8407 C   0  0  0  0  0  0  0  0  0  0  0  0
   -0.5672   -2.4077    1.5007 O   0  0  0  0  0  0  0  0  0  0  0  0
   -1.1222   -0.6447    0.2217 N   0  0  0  0  0  0  0  0  0  0  0  0
   -1.8592   -0.1777   -0.2863 H   0  0  0  0  0  0  0  0  0  0  0  0
    0.1838    0.0363    0.2367 C   0  0  1  0  0  0  0  0  0  0  0  0
    0.7905   -0.3549   -0.5792 H   0  0  0  0  0  0  0  0  0  0  0  0
    0.0393    1.5582    0.0305 C   0  0  1  0  0  0  0  0  0  0  0  0
    1.0346    2.0016    0.0543 H   0  0  0  0  0  0  0  0  0  0  0  0
   -0.6115    1.9484   -1.2951 C   0  0  0  0  0  0  0  0  0  0  0  0
   -1.6569    1.6378   -1.3111 H   0  0  0  0  0  0  0  0  0  0  0  0
   -0.5568    3.0279   -1.4302 H   0  0  0  0  0  0  0  0  0  0  0  0
   -0.0859    1.4634   -2.1182 H   0  0  0  0  0  0  0  0  0  0  0  0
   -0.7284    2.1361    1.0572 O   0  0  0  0  0  0  0  0  0  0  0  0
   -0.8728    3.0587    0.8371 H   0  0  0  0  0  0  0  0  0  0  0  0
    0.9348   -0.2507    1.5428 C   0  0  0  0  0  0  0  0  0  0  0  0
    1.9010   -1.0131    1.5633 O   0  0  0  0  0  0  0  0  0  0  0  0
    0.5093    0.3861    2.6428 N   0  0  0  0  0  0  0  0  0  0  0  0
   -0.2742    1.0125    2.5578 H   0  0  0  0  0  0  0  0  0  0  0  0
    1.1154    0.2241    3.9634 C   0  0  0  0  0  0  0  0  0  0  0  0
    2.1896    0.4098    3.9021 H   0  0  0  0  0  0  0  0  0  0  0  0
    0.6711    0.9210    4.6743 H   0  0  0  0  0  0  0  0  0  0  0  0
    0.9612   -0.7980    4.3156 H   0  0  0  0  0  0  0  0  0  0  0  0
  5  6  2  0  0  0  0
  5  7  1  0  0  0  0
  2  3  1  0  0  0  0
  2  4  1  0  0  0  0
  2  5  1  0  0  0  0
  1  2  1  0  0  0  0
 19 20  2  0  0  0  0
 19 21  1  0  0  0  0
 17 18  1  0  0  0  0
 13 14  1  0  0  0  0
 13 15  1  0  0  0  0
 13 16  1  0  0  0  0
 11 12  1  0  0  0  0
 11 13  1  0  0  0  0
 11 17  1  0  0  0  0
  9 10  1  0  0  0  0
  9 11  1  0  0  0  0
  9 19  1  0  0  0  0
  7  8  1  0  0  0  0
  7  9  1  0  0  0  0
 23 24  1  0  0  0  0
 23 25  1  0  0  0  0
 23 26  1  0  0  0  0
 21 22  1  0  0  0  0
 21 23  1  0  0  0  0
M  END
$$$$
default_name
  -OEChem-01062215323D

 26 25  0     1  0  0  0  0  0999 V2000
   -2.8882   -3.2497    1.2537 H   0  0  0  0  0  0  0  0  0  0  0  0
   -2.8032   -2.3157    0.7017 C   0  0  0  0  0  0  0  0  0  0  0  0
   -3.5012   -1.5857    1.1067 H   0  0  0  0  0  0  0  0  0  0  0  0
   -3.0182   -2.4907   -0.3513 H   0  0  0  0  0  0  0  0  0  0  0  0
   -1.3942   -1.7897    0.8407 C   0  0  0  0  0  0  0  0  0  0  0  0
   -0.5672   -2.4077    1.5007 O   0  0  0  0  0  0  0  0  0  0  0  0
   -1.1222   -0.6447    0.2217 N   0  0  0  0  0  0  0  0  0  0  0  0
   -1.8592   -0.1777   -0.2863 H   0  0  0  0  0  0  0  0  0  0  0  0
    0.1838    0.0363    0.2367 C   0  0  1  0  0  0  0  0  0  0  0  0
    0.7905   -0.3549   -0.5792 H   0  0  0  0  0  0  0  0  0  0  0  0
    0.0393    1.5582    0.0305 C   0  0  1  0  0  0  0  0  0  0  0  0
    1.0346    2.0016    0.0543 H   0  0  0  0  0  0  0  0  0  0  0  0
   -0.6115    1.9484   -1.2951 C   0  0  0  0  0  0  0  0  0  0  0  0
   -1.6569    1.6378   -1.3111 H   0  0  0  0  0  0  0  0  0  0  0  0
   -0.5568    3.0279   -1.4302 H   0  0  0  0  0  0  0  0  0  0  0  0
   -0.0859    1.4634   -2.1182 H   0  0  0  0  0  0  0  0  0  0  0  0
   -0.7284    2.1361    1.0572 O   0  0  0  0  0  0  0  0  0  0  0  0
   -0.8728    3.0587    0.8371 H   0  0  0  0  0  0  0  0  0  0  0  0
    0.9348   -0.2507    1.5428 C   0  0  0  0  0  0  0  0  0  0  0  0
    2.0457   -0.7808    1.5311 O   0  0  0  0  0  0  0  0  0  0  0  0
    0.3404    0.1273    2.6831 N   0  0  0  0  0  0  0  0  0  0  0  0
   -0.5600    0.5741    2.6258 H   0  0  0  0  0  0  0  0  0  0  0  0
    0.9218   -0.0722    4.0096 C   0  0  0  0  0  0  0  0  0  0  0  0
    1.9287    0.3489    4.0387 H   0  0  0  0  0  0  0  0  0  0  0  0
    0.3089    0.4113    4.7706 H   0  0  0  0  0  0  0  0  0  0  0  0
    0.9880   -1.1408    4.2249 H   0  0  0  0  0  0  0  0  0  0  0  0
  5  6  2  0  0  0  0
  5  7  1  0  0  0  0
  2  3  1  0  0  0  0
  2  4  1  0  0  0  0
  2  5  1  0  0  0  0
  1  2  1  0  0  0  0
 19 20  2  0  0  0  0
 19 21  1  0  0  0  0
 17 18  1  0  0  0  0
 13 14  1  0  0  0  0
 13 15  1  0  0  0  0
 13 16  1  0  0  0  0
 11 12  1  0  0  0  0
 11 13  1  0  0  0  0
 11 17  1  0  0  0  0
  9 10  1  0  0  0  0
  9 11  1  0  0  0  0
  9 19  1  0  0  0  0
  7  8  1  0  0  0  0
  7  9  1  0  0  0  0
 23 24  1  0  0  0  0
 23 25  1  0  0  0  0
 23 26  1  0  0  0  0
 21 22  1  0  0  0  0
 21 23  1  0  0  0  0
M  END
$$$$
default_name
  -OEChem-01062215323D

 26 25  0     1  0  0  0  0  0999 V2000
   -2.8882   -3.2497    1.2537 H   0  0  0  0  0  0  0  0  0  0  0  0
   -2.8032   -2.3157    0.7017 C   0  0  0  0  0  0  0  0  0  0  0  0
   -3.5012   -1.5857    1.1067 H   0  0  0  0  0  0  0  0  0  0  0  0
   -3.0182   -2.4907   -0.3513 H   0  0  0  0  0  0  0  0  0  0  0  0
   -1.3942   -1.7897    0.8407 C   0  0  0  0  0  0  0  0  0  0  0  0
   -0.5672   -2.4077    1.5007 O   0  0  0  0  0  0  0  0  0  0  0  0
   -1.1222   -0.6447    0.2217 N   0  0  0  0  0  0  0  0  0  0  0  0
   -1.8592   -0.1777   -0.2863 H   0  0  0  0  0  0  0  0  0  0  0  0
    0.1838    0.0363    0.2367 C   0  0  1  0  0  0  0  0  0  0  0  0
    0.7905   -0.3549   -0.5792 H   0  0  0  0  0  0  0  0  0  0  0  0
    0.0393    1.5582    0.0305 C   0  0  1  0  0  0  0  0  0  0  0  0
    1.0346    2.0016    0.0543 H   0  0  0  0  0  0  0  0  0  0  0  0
   -0.6115    1.9484   -1.2951 C   0  0  0  0  0  0  0  0  0  0  0  0
   -1.6569    1.6378   -1.3111 H   0  0  0  0  0  0  0  0  0  0  0  0
   -0.5568    3.0279   -1.4302 H   0  0  0  0  0  0  0  0  0  0  0  0
   -0.0859    1.4634   -2.1182 H   0  0  0  0  0  0  0  0  0  0  0  0
   -0.7284    2.1361    1.0572 O   0  0  0  0  0  0  0  0  0  0  0  0
   -0.8728    3.0587    0.8371 H   0  0  0  0  0  0  0  0  0  0  0  0
    0.9348   -0.2507    1.5428 C   0  0  0  0  0  0  0  0  0  0  0  0
    2.1358   -0.5204    1.5365 O   0  0  0  0  0  0  0  0  0  0  0  0
    0.2322   -0.1650    2.6810 N   0  0  0  0  0  0  0  0  0  0  0  0
   -0.7427    0.0791    2.6221 H   0  0  0  0  0  0  0  0  0  0  0  0
    0.7978   -0.4069    4.0074 C   0  0  0  0  0  0  0  0  0  0  0  0
    1.6835    0.2153    4.1503 H   0  0  0  0  0  0  0  0  0  0  0  0
    0.0666   -0.1731    4.7815 H   0  0  0  0  0  0  0  0  0  0  0  0
    1.0937   -1.4545    4.0952 H   0  0  0  0  0  0  0  0  0  0  0  0
  5  6  2  0  0  0  0
  5  7  1  0  0  0  0
  2  3  1  0  0  0  0
  2  4  1  0  0  0  0
  2  5  1  0  0  0  0
  1  2  1  0  0  0  0
 19 20  2  0  0  0  0
 19 21  1  0  0  0  0
 17 18  1  0  0  0  0
 13 14  1  0  0  0  0
 13 15  1  0  0  0  0
 13 16  1  0  0  0  0
 11 12  1  0  0  0  0
 11 13  1  0  0  0  0
 11 17  1  0  0  0  0
  9 10  1  0  0  0  0
  9 11  1  0  0  0  0
  9 19  1  0  0  0  0
  7  8  1  0  0  0  0
  7  9  1  0  0  0  0
 23 24  1  0  0  0  0
 23 25  1  0  0  0  0
 23 26  1  0  0  0  0
 21 22  1  0  0  0  0
 21 23  1  0  0  0  0
M  END
$$$$
default_name
  -OEChem-01062215323D

 26 25  0     1  0  0  0  0  0999 V2000
   -2.8882   -3.2497    1.2537 H   0  0  0  0  0  0  0  0  0  0  0  0
   -2.8032   -2.3157    0.7017 C   0  0  0  0  0  0  0  0  0  0  0  0
   -3.5012   -1.5857    1.1067 H   0  0  0  0  0  0  0  0  0  0  0  0
   -3.0182   -2.4907   -0.3513 H   0  0  0  0  0  0  0  0  0  0  0  0
   -1.3942   -1.7897    0.8407 C   0  0  0  0  0  0  0  0  0  0  0  0
   -0.5672   -2.4077    1.5007 O   0  0  0  0  0  0  0  0  0  0  0  0
   -1.1222   -0.6447    0.2217 N   0  0  0  0  0  0  0  0  0  0  0  0
   -1.8592   -0.1777   -0.2863 H   0  0  0  0  0  0  0  0  0  0  0  0
    0.1838    0.0363    0.2367 C   0  0  1  0  0  0  0  0  0  0  0  0
    0.7905   -0.3549   -0.5792 H   0  0  0  0  0  0  0  0  0  0  0  0
    0.0393    1.5582    0.0305 C   0  0  1  0  0  0  0  0  0  0  0  0
    1.0346    2.0016    0.0543 H   0  0  0  0  0  0  0  0  0  0  0  0
   -0.6115    1.9484   -1.2951 C   0  0  0  0  0  0  0  0  0  0  0  0
   -1.6569    1.6378   -1.3111 H   0  0  0  0  0  0  0  0  0  0  0  0
   -0.5568    3.0279   -1.4302 H   0  0  0  0  0  0  0  0  0  0  0  0
   -0.0859    1.4634   -2.1182 H   0  0  0  0  0  0  0  0  0  0  0  0
   -0.7284    2.1361    1.0572 O   0  0  0  0  0  0  0  0  0  0  0  0
   -0.8728    3.0587    0.8371 H   0  0  0  0  0  0  0  0  0  0  0  0
    0.9348   -0.2507    1.5428 C   0  0  0  0  0  0  0  0  0  0  0  0
    2.1652   -0.2498    1.5791 O   0  0  0  0  0  0  0  0  0  0  0  0
    0.1923   -0.4709    2.6367 N   0  0  0  0  0  0  0  0  0  0  0  0
   -0.8099   -0.4389    2.5469 H   0  0  0  0  0  0  0  0  0  0  0  0
    0.7519   -0.7573    3.9568 C   0  0  0  0  0  0  0  0  0  0  0  0
    1.4707    0.0180    4.2293 H   0  0  0  0  0  0  0  0  0  0  0  0
   -0.0391   -0.7923    4.7062 H   0  0  0  0  0  0  0  0  0  0  0  0
    1.2713   -1.7177    3.9352 H   0  0  0  0  0  0  0  0  0  0  0  0
  5  6  2  0  0  0  0
  5  7  1  0  0  0  0
  2  3  1  0  0  0  0
  2  4  1  0  0  0  0
  2  5  1  0  0  0  0
  1  2  1  0  0  0  0
 19 20  2  0  0  0  0
 19 21  1  0  0  0  0
 17 18  1  0  0  0  0
 13 14  1  0  0  0  0
 13 15  1  0  0  0  0
 13 16  1  0  0  0  0
 11 12  1  0  0  0  0
 11 13  1  0  0  0  0
 11 17  1  0  0  0  0
  9 10  1  0  0  0  0
  9 11  1  0  0  0  0
  9 19  1  0  0  0  0
  7  8  1  0  0  0  0
  7  9  1  0  0  0  0
 23 24  1  0  0  0  0
 23 25  1  0  0  0  0
 23 26  1  0  0  0  0
 21 22  1  0  0  0  0
 21 23  1  0  0  0  0
M  END
$$$$
default_name
  -OEChem-01062215323D

 26 25  0     1  0  0  0  0  0999 V2000
   -2.8882   -3.2497    1.2537 H   0  0  0  0  0  0  0  0  0  0  0  0
   -2.8032   -2.3157    0.7017 C   0  0  0  0  0  0  0  0  0  0  0  0
   -3.5012   -1.5857    1.1067 H   0  0  0  0  0  0  0  0  0  0  0  0
   -3.0182   -2.4907   -0.3513 H   0  0  0  0  0  0  0  0  0  0  0  0
   -1.3942   -1.7897    0.8407 C   0  0  0  0  0  0  0  0  0  0  0  0
   -0.5672   -2.4077    1.5007 O   0  0  0  0  0  0  0  0  0  0  0  0
   -1.1222   -0.6447    0.2217 N   0  0  0  0  0  0  0  0  0  0  0  0
   -1.8592   -0.1777   -0.2863 H   0  0  0  0  0  0  0  0  0  0  0  0
    0.1838    0.0363    0.2367 C   0  0  1  0  0  0  0  0  0  0  0  0
    0.7905   -0.3549   -0.5792 H   0  0  0  0  0  0  0  0  0  0  0  0
    0.0393    1.5582    0.0305 C   0  0  1  0  0  0  0  0  0  0  0  0
    1.0346    2.0016    0.0543 H   0  0  0  0  0  0  0  0  0  0  0  0
   -0.6115    1.9484   -1.2951 C   0  0  0  0  0  0  0  0  0  0  0  0
   -1.6569    1.6378   -1.3111 H   0  0  0  0  0  0  0  0  0  0  0  0
   -0.5568    3.0279   -1.4302 H   0  0  0  0  0  0  0  0  0  0  0  0
   -0.0859    1.4634   -2.1182 H   0  0  0  0  0  0  0  0  0  0  0  0
   -0.7284    2.1361    1.0572 O   0  0  0  0  0  0  0  0  0  0  0  0
   -0.8728    3.0587    0.8371 H   0  0  0  0  0  0  0  0  0  0  0  0
    0.9348   -0.2507    1.5428 C   0  0  0  0  0  0  0  0  0  0  0  0
    2.1319    0.0127    1.6559 O   0  0  0  0  0  0  0  0  0  0  0  0
    0.2233   -0.7696    2.5533 N   0  0  0  0  0  0  0  0  0  0  0  0
   -0.7570   -0.9445    2.4053 H   0  0  0  0  0  0  0  0  0  0  0  0
    0.7873   -1.0995    3.8612 C   0  0  0  0  0  0  0  0  0  0  0  0
    1.3048   -0.2295    4.2703 H   0  0  0  0  0  0  0  0  0  0  0  0
   -0.0010   -1.4042    4.5498 H   0  0  0  0  0  0  0  0  0  0  0  0
    1.5087   -1.9125    3.7559 H   0  0  0  0  0  0  0  0  0  0  0  0
  5  6  2  0  0  0  0
  5  7  1  0  0  0  0
  2  3  1  0  0  0  0
  2  4  1  0  0  0  0
  2  5  1  0  0  0  0
  1  2  1  0  0  0  0
 19 20  2  0  0  0  0
 19 21  1  0  0  0  0
 17 18  1  0  0  0  0
 13 14  1  0  0  0  0
 13 15  1  0  0  0  0
 13 16  1  0  0  0  0
 11 12  1  0  0  0  0
 11 13  1  0  0  0  0
 11 17  1  0  0  0  0
  9 10  1  0  0  0  0
  9 11  1  0  0  0  0
  9 19  1  0  0  0  0
  7  8  1  0  0  0  0
  7  9  1  0  0  0  0
 23 24  1  0  0  0  0
 23 25  1  0  0  0  0
 23 26  1  0  0  0  0
 21 22  1  0  0  0  0
 21 23  1  0  0  0  0
M  END
$$$$
default_name
  -OEChem-01062215323D

 26 25  0     1  0  0  0  0  0999 V2000
   -2.8882   -3.2497    1.2537 H   0  0  0  0  0  0  0  0  0  0  0  0
   -2.8032   -2.3157    0.7017 C   0  0  0  0  0  0  0  0  0  0  0  0
   -3.5012   -1.5857    1.1067 H   0  0  0  0  0  0  0  0  0  0  0  0
   -3.0182   -2.4907   -0.3513 H   0  0  0  0  0  0  0  0  0  0  0  0
   -1.3942   -1.7897    0.8407 C   0  0  0  0  0  0  0  0  0  0  0  0
   -0.5672   -2.4077    1.5007 O   0  0  0  0  0  0  0  0  0  0  0  0
   -1.1222   -0.6447    0.2217 N   0  0  0  0  0  0  0  0  0  0  0  0
   -1.8592   -0.1777   -0.2863 H   0  0  0  0  0  0  0  0  0  0  0  0
    0.1838    0.0363    0.2367 C   0  0  1  0  0  0  0  0  0  0  0  0
    0.7905   -0.3549   -0.5792 H   0  0  0  0  0  0  0  0  0  0  0  0
    0.0393    1.5582    0.0305 C   0  0  1  0  0  0  0  0  0  0  0  0
    1.0346    2.0016    0.0543 H   0  0  0  0  0  0  0  0  0  0  0  0
   -0.6115    1.9484   -1.2951 C   0  0  0  0  0  0  0  0  0  0  0  0
   -1.6569    1.6378   -1.3111 H   0  0  0  0  0  0  0  0  0  0  0  0
   -0.5568    3.0279   -1.4302 H   0  0  0  0  0  0  0  0  0  0  0  0
   -0.0859    1.4634   -2.1182 H   0  0  0  0  0  0  0  0  0  0  0  0
   -0.7284    2.1361    1.0572 O   0  0  0  0  0  0  0  0  0  0  0  0
   -0.8728    3.0587    0.8371 H   0  0  0  0  0  0  0  0  0  0  0  0
    0.9348   -0.2507    1.5428 C   0  0  0  0  0  0  0  0  0  0  0  0
    2.0381    0.2492    1.7618 O   0  0  0  0  0  0  0  0  0  0  0  0
    0.3232   -1.0407    2.4363 N   0  0  0  0  0  0  0  0  0  0  0  0
   -0.5876   -1.4033    2.2071 H   0  0  0  0  0  0  0  0  0  0  0  0
    0.9015   -1.4100    3.7273 C   0  0  0  0  0  0  0  0  0  0  0  0
    1.1971   -0.5103    4.2705 H   0  0  0  0  0  0  0  0  0  0  0  0
    0.1781   -1.9671    4.3231 H   0  0  0  0  0  0  0  0  0  0  0  0
    1.7895   -2.0257    3.5696 H   0  0  0  0  0  0  0  0  0  0  0  0
  5  6  2  0  0  0  0
  5  7  1  0  0  0  0
  2  3  1  0  0  0  0
  2  4  1  0  0  0  0
  2  5  1  0  0  0  0
  1  2  1  0  0  0  0
 19 20  2  0  0  0  0
 19 21  1  0  0  0  0
 17 18  1  0  0  0  0
 13 14  1  0  0  0  0
 13 15  1  0  0  0  0
 13 16  1  0  0  0  0
 11 12  1  0  0  0  0
 11 13  1  0  0  0  0
 11 17  1  0  0  0  0
  9 10  1  0  0  0  0
  9 11  1  0  0  0  0
  9 19  1  0  0  0  0
  7  8  1  0  0  0  0
  7  9  1  0  0  0  0
 23 24  1  0  0  0  0
 23 25  1  0  0  0  0
 23 26  1  0  0  0  0
 21 22  1  0  0  0  0
 21 23  1  0  0  0  0
M  END
$$$$
default_name
  -OEChem-01062215323D

 26 25  0     1  0  0  0  0  0999 V2000
   -2.8882   -3.2497    1.2537 H   0  0  0  0  0  0  0  0  0  0  0  0
   -2.8032   -2.3157    0.7017 C   0  0  0  0  0  0  0  0  0  0  0  0
   -3.5012   -1.5857    1.1067 H   0  0  0  0  0  0  0  0  0  0  0  0
   -3.0182   -2.4907   -0.3513 H   0  0  0  0  0  0  0  0  0  0  0  0
   -1.3942   -1.7897    0.8407 C   0  0  0  0  0  0  0  0  0  0  0  0
   -0.5672   -2.4077    1.5007 O   0  0  0  0  0  0  0  0  0  0  0  0
   -1.1222   -0.6447    0.2217 N   0  0  0  0  0  0  0  0  0  0  0  0
   -1.8592   -0.1777   -0.2863 H   0  0  0  0  0  0  0  0  0  0  0  0
    0.1838    0.0363    0.2367 C   0  0  1  0  0  0  0  0  0  0  0  0
    0.7905   -0.3549   -0.5792 H   0  0  0  0  0  0  0  0  0  0  0  0
    0.0393    1.5582    0.0305 C   0  0  1  0  0  0  0  0  0  0  0  0
    1.0346    2.0016    0.0543 H   0  0  0  0  0  0  0  0  0  0  0  0
   -0.6115    1.9484   -1.2951 C   0  0  0  0  0  0  0  0  0  0  0  0
   -1.6569    1.6378   -1.3111 H   0  0  0  0  0  0  0  0  0  0  0  0
   -0.5568    3.0279   -1.4302 H   0  0  0  0  0  0  0  0  0  0  0  0
   -0.0859    1.4634   -2.1182 H   0  0  0  0  0  0  0  0  0  0  0  0
   -0.7284    2.1361    1.0572 O   0  0  0  0  0  0  0  0  0  0  0  0
   -0.8728    3.0587    0.8371 H   0  0  0  0  0  0  0  0  0  0  0  0
    0.9348   -0.2507    1.5428 C   0  0  0  0  0  0  0  0  0  0  0  0
    1.8903    0.4436    1.8895 O   0  0  0  0  0  0  0  0  0  0  0  0
    0.4850   -1.2657    2.2938 N   0  0  0  0  0  0  0  0  0  0  0  0
   -0.3133   -1.7840    1.9657 H   0  0  0  0  0  0  0  0  0  0  0  0
    1.0867   -1.6679    3.5641 C   0  0  0  0  0  0  0  0  0  0  0  0
    1.1550   -0.8053    4.2299 H   0  0  0  0  0  0  0  0  0  0  0  0
    0.4862   -2.4425    4.0415 H   0  0  0  0  0  0  0  0  0  0  0  0
    2.0948   -2.0495    3.3888 H   0  0  0  0  0  0  0  0  0  0  0  0
  5  6  2  0  0  0  0
  5  7  1  0  0  0  0
  2  3  1  0  0  0  0
  2  4  1  0  0  0  0
  2  5  1  0  0  0  0
  1  2  1  0  0  0  0
 19 20  2  0  0  0  0
 19 21  1  0  0  0  0
 17 18  1  0  0  0  0
 13 14  1  0  0  0  0
 13 15  1  0  0  0  0
 13 16  1  0  0  0  0
 11 12  1  0  0  0  0
 11 13  1  0  0  0  0
 11 17  1  0  0  0  0
  9 10  1  0  0  0  0
  9 11  1  0  0  0  0
  9 19  1  0  0  0  0
  7  8  1  0  0  0  0
  7  9  1  0  0  0  0
 23 24  1  0  0  0  0
 23 25  1  0  0  0  0
 23 26  1  0  0  0  0
 21 22  1  0  0  0  0
 21 23  1  0  0  0  0
M  END
$$$$
default_name
  -OEChem-01062215323D

 26 25  0     1  0  0  0  0  0999 V2000
   -2.8882   -3.2497    1.2537 H   0  0  0  0  0  0  0  0  0  0  0  0
   -2.8032   -2.3157    0.7017 C   0  0  0  0  0  0  0  0  0  0  0  0
   -3.5012   -1.5857    1.1067 H   0  0  0  0  0  0  0  0  0  0  0  0
   -3.0182   -2.4907   -0.3513 H   0  0  0  0  0  0  0  0  0  0  0  0
   -1.3942   -1.7897    0.8407 C   0  0  0  0  0  0  0  0  0  0  0  0
   -0.5672   -2.4077    1.5007 O   0  0  0  0  0  0  0  0  0  0  0  0
   -1.1222   -0.6447    0.2217 N   0  0  0  0  0  0  0  0  0  0  0  0
   -1.8592   -0.1777   -0.2863 H   0  0  0  0  0  0  0  0  0  0  0  0
    0.1838    0.0363    0.2367 C   0  0  1  0  0  0  0  0  0  0  0  0
    0.7905   -0.3549   -0.5792 H   0  0  0  0  0  0  0  0  0  0  0  0
    0.0393    1.5582    0.0305 C   0  0  1  0  0  0  0  0  0  0  0  0
    1.0346    2.0016    0.0543 H   0  0  0  0  0  0  0  0  0  0  0  0
   -0.6115    1.9484   -1.2951 C   0  0  0  0  0  0  0  0  0  0  0  0
   -1.6569    1.6378   -1.3111 H   0  0  0  0  0  0  0  0  0  0  0  0
   -0.5568    3.0279   -1.4302 H   0  0  0  0  0  0  0  0  0  0  0  0
   -0.0859    1.4634   -2.1182 H   0  0  0  0  0  0  0  0  0  0  0  0
   -0.7284    2.1361    1.0572 O   0  0  0  0  0  0  0  0  0  0  0  0
   -0.8728    3.0587    0.8371 H   0  0  0  0  0  0  0  0  0  0  0  0
    0.9348   -0.2507    1.5428 C   0  0  0  0  0  0  0  0  0  0  0  0
    1.6985    0.5825    2.0304 O   0  0  0  0  0  0  0  0  0  0  0  0
    0.6978   -1.4293    2.1354 N   0  0  0  0  0  0  0  0  0  0  0  0
    0.0473   -2.0607    1.6976 H   0  0  0  0  0  0  0  0  0  0  0  0
    1.3304   -1.8555    3.3828 C   0  0  0  0  0  0  0  0  0  0  0  0
    1.1813   -1.0944    4.1513 H   0  0  0  0  0  0  0  0  0  0  0  0
    0.9023   -2.7982    3.7241 H   0  0  0  0  0  0  0  0  0  0  0  0
    2.4036   -1.9823    3.2260 H   0  0  0  0  0  0  0  0  0  0  0  0
  5  6  2  0  0  0  0
  5  7  1  0  0  0  0
  2  3  1  0  0  0  0
  2  4  1  0  0  0  0
  2  5  1  0  0  0  0
  1  2  1  0  0  0  0
 19 20  2  0  0  0  0
 19 21  1  0  0  0  0
 17 18  1  0  0  0  0
 13 14  1  0  0  0  0
 13 15  1  0  0  0  0
 13 16  1  0  0  0  0
 11 12  1  0  0  0  0
 11 13  1  0  0  0  0
 11 17  1  0  0  0  0
  9 10  1  0  0  0  0
  9 11  1  0  0  0  0
  9 19  1  0  0  0  0
  7  8  1  0  0  0  0
  7  9  1  0  0  0  0
 23 24  1  0  0  0  0
 23 25  1  0  0  0  0
 23 26  1  0  0  0  0
 21 22  1  0  0  0  0
 21 23  1  0  0  0  0
M  END
$$$$
default_name
  -OEChem-01062215323D

 26 25  0     1  0  0  0  0  0999 V2000
   -2.8882   -3.2497    1.2537 H   0  0  0  0  0  0  0  0  0  0  0  0
   -2.8032   -2.3157    0.7017 C   0  0  0  0  0  0  0  0  0  0  0  0
   -3.5012   -1.5857    1.1067 H   0  0  0  0  0  0  0  0  0  0  0  0
   -3.0182   -2.4907   -0.3513 H   0  0  0  0  0  0  0  0  0  0  0  0
   -1.3942   -1.7897    0.8407 C   0  0  0  0  0  0  0  0  0  0  0  0
   -0.5672   -2.4077    1.5007 O   0  0  0  0  0  0  0  0  0  0  0  0
   -1.1222   -0.6447    0.2217 N   0  0  0  0  0  0  0  0  0  0  0  0
   -1.8592   -0.1777   -0.2863 H   0  0  0  0  0  0  0  0  0  0  0  0
    0.1838    0.0363    0.2367 C   0  0  1  0  0  0  0  0  0  0  0  0
    0.7905   -0.3549   -0.5792 H   0  0  0  0  0  0  0  0  0  0  0  0
    0.0393    1.5582    0.0305 C   0  0  1  0  0  0  0  0  0  0  0  0
    1.0346    2.0016    0.0543 H   0  0  0  0  0  0  0  0  0  0  0  0
   -0.6115    1.9484   -1.2951 C   0  0  0  0  0  0  0  0  0  0  0  0
   -1.6569    1.6378   -1.3111 H   0  0  0  0  0  0  0  0  0  0  0  0
   -0.5568    3.0279   -1.4302 H   0  0  0  0  0  0  0  0  0  0  0  0
   -0.0859    1.4634   -2.1182 H   0  0  0  0  0  0  0  0  0  0  0  0
   -0.7284    2.1361    1.0572 O   0  0  0  0  0  0  0  0  0  0  0  0
   -0.8728    3.0587    0.8371 H   0  0  0  0  0  0  0  0  0  0  0  0
    0.9348   -0.2507    1.5428 C   0  0  0  0  0  0  0  0  0  0  0  0
    1.4758    0.6566    2.1747 O   0  0  0  0  0  0  0  0  0  0  0  0
    0.9471   -1.5204    1.9721 N   0  0  0  0  0  0  0  0  0  0  0  0
    0.4696   -2.2145    1.4210 H   0  0  0  0  0  0  0  0  0  0  0  0
    1.6159   -1.9599    3.1957 C   0  0  0  0  0  0  0  0  0  0  0  0
    1.2742   -1.3578    4.0400 H   0  0  0  0  0  0  0  0  0  0  0  0
    1.3979   -3.0098    3.3926 H   0  0  0  0  0  0  0  0  0  0  0  0
    2.6951   -1.8287    3.0922 H   0  0  0  0  0  0  0  0  0  0  0  0
  5  6  2  0  0  0  0
  5  7  1  0  0  0  0
  2  3  1  0  0  0  0
  2  4  1  0  0  0  0
  2  5  1  0  0  0  0
  1  2  1  0  0  0  0
 19 20  2  0  0  0  0
 19 21  1  0  0  0  0
 17 18  1  0  0  0  0
 13 14  1  0  0  0  0
 13 15  1  0  0  0  0
 13 16  1  0  0  0  0
 11 12  1  0  0  0  0
 11 13  1  0  0  0  0
 11 17  1  0  0  0  0
  9 10  1  0  0  0  0
  9 11  1  0  0  0  0
  9 19  1  0  0  0  0
  7  8  1  0  0  0  0
  7  9  1  0  0  0  0
 23 24  1  0  0  0  0
 23 25  1  0  0  0  0
 23 26  1  0  0  0  0
 21 22  1  0  0  0  0
 21 23  1  0  0  0  0
M  END
$$$$
default_name
  -OEChem-01062215323D

 26 25  0     1  0  0  0  0  0999 V2000
   -2.8882   -3.2497    1.2537 H   0  0  0  0  0  0  0  0  0  0  0  0
   -2.8032   -2.3157    0.7017 C   0  0  0  0  0  0  0  0  0  0  0  0
   -3.5012   -1.5857    1.1067 H   0  0  0  0  0  0  0  0  0  0  0  0
   -3.0182   -2.4907   -0.3513 H   0  0  0  0  0  0  0  0  0  0  0  0
   -1.3942   -1.7897    0.8407 C   0  0  0  0  0  0  0  0  0  0  0  0
   -0.5672   -2.4077    1.5007 O   0  0  0  0  0  0  0  0  0  0  0  0
   -1.1222   -0.6447    0.2217 N   0  0  0  0  0  0  0  0  0  0  0  0
   -1.8592   -0.1777   -0.2863 H   0  0  0  0  0  0  0  0  0  0  0  0
    0.1838    0.0363    0.2367 C   0  0  1  0  0  0  0  0  0  0  0  0
    0.7905   -0.3549   -0.5792 H   0  0  0  0  0  0  0  0  0  0  0  0
    0.0393    1.5582    0.0305 C   0  0  1  0  0  0  0  0  0  0  0  0
    1.0346    2.0016    0.0543 H   0  0  0  0  0  0  0  0  0  0  0  0
   -0.6115    1.9484   -1.2951 C   0  0  0  0  0  0  0  0  0  0  0  0
   -1.6569    1.6378   -1.3111 H   0  0  0  0  0  0  0  0  0  0  0  0
   -0.5568    3.0279   -1.4302 H   0  0  0  0  0  0  0  0  0  0  0  0
   -0.0859    1.4634   -2.1182 H   0  0  0  0  0  0  0  0  0  0  0  0
   -0.7284    2.1361    1.0572 O   0  0  0  0  0  0  0  0  0  0  0  0
   -0.8728    3.0587    0.8371 H   0  0  0  0  0  0  0  0  0  0  0  0
    0.9348   -0.2507    1.5428 C   0  0  0  0  0  0  0  0  0  0  0  0
    1.2373    0.6608    2.3127 O   0  0  0  0  0  0  0  0  0  0  0  0
    1.2159   -1.5327    1.8148 N   0  0  0  0  0  0  0  0  0  0  0  0
    0.9248   -2.2349    1.1547 H   0  0  0  0  0  0  0  0  0  0  0  0
    1.9237   -1.9742    3.0155 C   0  0  0  0  0  0  0  0  0  0  0  0
    1.4274   -1.5777    3.9035 H   0  0  0  0  0  0  0  0  0  0  0  0
    1.9393   -3.0629    3.0696 H   0  0  0  0  0  0  0  0  0  0  0  0
    2.9492   -1.5991    2.9965 H   0  0  0  0  0  0  0  0  0  0  0  0
  5  6  2  0  0  0  0
  5  7  1  0  0  0  0
  2  3  1  0  0  0  0
  2  4  1  0  0  0  0
  2  5  1  0  0  0  0
  1  2  1  0  0  0  0
 19 20  2  0  0  0  0
 19 21  1  0  0  0  0
 17 18  1  0  0  0  0
 13 14  1  0  0  0  0
 13 15  1  0  0  0  0
 13 16  1  0  0  0  0
 11 12  1  0  0  0  0
 11 13  1  0  0  0  0
 11 17  1  0  0  0  0
  9 10  1  0  0  0  0
  9 11  1  0  0  0  0
  9 19  1  0  0  0  0
  7  8  1  0  0  0  0
  7  9  1  0  0  0  0
 23 24  1  0  0  0  0
 23 25  1  0  0  0  0
 23 26  1  0  0  0  0
 21 22  1  0  0  0  0
 21 23  1  0  0  0  0
M  END
$$$$
default_name
  -OEChem-01062215323D

 26 25  0     1  0  0  0  0  0999 V2000
   -2.8882   -3.2497    1.2537 H   0  0  0  0  0  0  0  0  0  0  0  0
   -2.8032   -2.3157    0.7017 C   0  0  0  0  0  0  0  0  0  0  0  0
   -3.5012   -1.5857    1.1067 H   0  0  0  0  0  0  0  0  0  0  0  0
   -3.0182   -2.4907   -0.3513 H   0  0  0  0  0  0  0  0  0  0  0  0
   -1.3942   -1.7897    0.8407 C   0  0  0  0  0  0  0  0  0  0  0  0
   -0.5672   -2.4077    1.5007 O   0  0  0  0  0  0  0  0  0  0  0  0
   -1.1222   -0.6447    0.2217 N   0  0  0  0  0  0  0  0  0  0  0  0
   -1.8592   -0.1777   -0.2863 H   0  0  0  0  0  0  0  0  0  0  0  0
    0.1838    0.0363    0.2367 C   0  0  1  0  0  0  0  0  0  0  0  0
    0.7905   -0.3549   -0.5792 H   0  0  0  0  0  0  0  0  0  0  0  0
    0.0393    1.5582    0.0305 C   0  0  1  0  0  0  0  0  0  0  0  0
    1.0346    2.0016    0.0543 H   0  0  0  0  0  0  0  0  0  0  0  0
   -0.6115    1.9484   -1.2951 C   0  0  0  0  0  0  0  0  0  0  0  0
   -1.6569    1.6378   -1.3111 H   0  0  0  0  0  0  0  0  0  0  0  0
   -0.5568    3.0279   -1.4302 H   0  0  0  0  0  0  0  0  0  0  0  0
   -0.0859    1.4634   -2.1182 H   0  0  0  0  0  0  0  0  0  0  0  0
   -0.7284    2.1361    1.0572 O   0  0  0  0  0  0  0  0  0  0  0  0
   -0.8728    3.0587    0.8371 H   0  0  0  0  0  0  0  0  0  0  0  0
    0.9348   -0.2507    1.5428 C   0  0  0  0  0  0  0  0  0  0  0  0
    0.9994    0.5948    2.4351 O   0  0  0  0  0  0  0  0  0  0  0  0
    1.4859   -1.4654    1.6743 N   0  0  0  0  0  0  0  0  0  0  0  0
    1.3818   -2.1205    0.9170 H   0  0  0  0  0  0  0  0  0  0  0  0
    2.2329   -1.8973    2.8546 C   0  0  0  0  0  0  0  0  0  0  0  0
    1.6305   -1.7391    3.7513 H   0  0  0  0  0  0  0  0  0  0  0  0
    2.4896   -2.9540    2.7771 H   0  0  0  0  0  0  0  0  0  0  0  0
    3.1486   -1.3092    2.9455 H   0  0  0  0  0  0  0  0  0  0  0  0
  5  6  2  0  0  0  0
  5  7  1  0  0  0  0
  2  3  1  0  0  0  0
  2  4  1  0  0  0  0
  2  5  1  0  0  0  0
  1  2  1  0  0  0  0
 19 20  2  0  0  0  0
 19 21  1  0  0  0  0
 17 18  1  0  0  0  0
 13 14  1  0  0  0  0
 13 15  1  0  0  0  0
 13 16  1  0  0  0  0
 11 12  1  0  0  0  0
 11 13  1  0  0  0  0
 11 17  1  0  0  0  0
  9 10  1  0  0  0  0
  9 11  1  0  0  0  0
  9 19  1  0  0  0  0
  7  8  1  0  0  0  0
  7  9  1  0  0  0  0
 23 24  1  0  0  0  0
 23 25  1  0  0  0  0
 23 26  1  0  0  0  0
 21 22  1  0  0  0  0
 21 23  1  0  0  0  0
M  END
$$$$
default_name
  -OEChem-01062215323D

 26 25  0     1  0  0  0  0  0999 V2000
   -2.8882   -3.2497    1.2537 H   0  0  0  0  0  0  0  0  0  0  0  0
   -2.8032   -2.3157    0.7017 C   0  0  0  0  0  0  0  0  0  0  0  0
   -3.5012   -1.5857    1.1067 H   0  0  0  0  0  0  0  0  0  0  0  0
   -3.0182   -2.4907   -0.3513 H   0  0  0  0  0  0  0  0  0  0  0  0
   -1.3942   -1.7897    0.8407 C   0  0  0  0  0  0  0  0  0  0  0  0
   -0.5672   -2.4077    1.5007 O   0  0  0  0  0  0  0  0  0  0  0  0
   -1.1222   -0.6447    0.2217 N   0  0  0  0  0  0  0  0  0  0  0  0
   -1.8592   -0.1777   -0.2863 H   0  0  0  0  0  0  0  0  0  0  0  0
    0.1838    0.0363    0.2367 C   0  0  1  0  0  0  0  0  0  0  0  0
    0.7905   -0.3549   -0.5792 H   0  0  0  0  0  0  0  0  0  0  0  0
    0.0393    1.5582    0.0305 C   0  0  1  0  0  0  0  0  0  0  0  0
    1.0346    2.0016    0.0543 H   0  0  0  0  0  0  0  0  0  0  0  0
   -0.6115    1.9484   -1.2951 C   0  0  0  0  0  0  0  0  0  0  0  0
   -1.6569    1.6378   -1.3111 H   0  0  0  0  0  0  0  0  0  0  0  0
   -0.5568    3.0279   -1.4302 H   0  0  0  0  0  0  0  0  0  0  0  0
   -0.0859    1.4634   -2.1182 H   0  0  0  0  0  0  0  0  0  0  0  0
   -0.7284    2.1361    1.0572 O   0  0  0  0  0  0  0  0  0  0  0  0
   -0.8728    3.0587    0.8371 H   0  0  0  0  0  0  0  0  0  0  0  0
    0.9348   -0.2507    1.5428 C   0  0  0  0  0  0  0  0  0  0  0  0
    0.7782    0.4631    2.5333 O   0  0  0  0  0  0  0  0  0  0  0  0
    1.7386   -1.3231    1.5603 N   0  0  0  0  0  0  0  0  0  0  0  0
    1.8096   -1.8792    0.7241 H   0  0  0  0  0  0  0  0  0  0  0  0
    2.5225   -1.7345    2.7239 C   0  0  0  0  0  0  0  0  0  0  0  0
    1.8696   -1.8309    3.5937 H   0  0  0  0  0  0  0  0  0  0  0  0
    3.0114   -2.6904    2.5350 H   0  0  0  0  0  0  0  0  0  0  0  0
    3.2799   -0.9788    2.9426 H   0  0  0  0  0  0  0  0  0  0  0  0
  5  6  2  0  0  0  0
  5  7  1  0  0  0  0
  2  3  1  0  0  0  0
  2  4  1  0  0  0  0
  2  5  1  0  0  0  0
  1  2  1  0  0  0  0
 19 20  2  0  0  0  0
 19 21  1  0  0  0  0
 17 18  1  0  0  0  0
 13 14  1  0  0  0  0
 13 15  1  0  0  0  0
 13 16  1  0  0  0  0
 11 12  1  0  0  0  0
 11 13  1  0  0  0  0
 11 17  1  0  0  0  0
  9 10  1  0  0  0  0
  9 11  1  0  0  0  0
  9 19  1  0  0  0  0
  7  8  1  0  0  0  0
  7  9  1  0  0  0  0
 23 24  1  0  0  0  0
 23 25  1  0  0  0  0
 23 26  1  0  0  0  0
 21 22  1  0  0  0  0
 21 23  1  0  0  0  0
M  END
$$$$
default_name
  -OEChem-01062215323D

 26 25  0     1  0  0  0  0  0999 V2000
   -2.8882   -3.2497    1.2537 H   0  0  0  0  0  0  0  0  0  0  0  0
   -2.8032   -2.3157    0.7017 C   0  0  0  0  0  0  0  0  0  0  0  0
   -3.5012   -1.5857    1.1067 H   0  0  0  0  0  0  0  0  0  0  0  0
   -3.0182   -2.4907   -0.3513 H   0  0  0  0  0  0  0  0  0  0  0  0
   -1.3942   -1.7897    0.8407 C   0  0  0  0  0  0  0  0  0  0  0  0
   -0.5672   -2.4077    1.5007 O   0  0  0  0  0  0  0  0  0  0  0  0
   -1.1222   -0.6447    0.2217 N   0  0  0  0  0  0  0  0  0  0  0  0
   -1.8592   -0.1777   -0.2863 H   0  0  0  0  0  0  0  0  0  0  0  0
    0.1838    0.0363    0.2367 C   0  0  1  0  0  0  0  0  0  0  0  0
    0.7905   -0.3549   -0.5792 H   0  0  0  0  0  0  0  0  0  0  0  0
    0.0393    1.5582    0.0305 C   0  0  1  0  0  0  0  0  0  0  0  0
    1.0346    2.0016    0.0543 H   0  0  0  0  0  0  0  0  0  0  0  0
   -0.6115    1.9484   -1.2951 C   0  0  0  0  0  0  0  0  0  0  0  0
   -1.6569    1.6378   -1.3111 H   0  0  0  0  0  0  0  0  0  0  0  0
   -0.5568    3.0279   -1.4302 H   0  0  0  0  0  0  0  0  0  0  0  0
   -0.0859    1.4634   -2.1182 H   0  0  0  0  0  0  0  0  0  0  0  0
   -0.7284    2.1361    1.0572 O   0  0  0  0  0  0  0  0  0  0  0  0
   -0.8728    3.0587    0.8371 H   0  0  0  0  0  0  0  0  0  0  0  0
    0.9348   -0.2507    1.5428 C   0  0  0  0  0  0  0  0  0  0  0  0
    0.5888    0.2747    2.6008 O   0  0  0  0  0  0  0  0  0  0  0  0
    1.9569   -1.1155    1.4804 N   0  0  0  0  0  0  0  0  0  0  0  0
    2.1790   -1.5274    0.5890 H   0  0  0  0  0  0  0  0  0  0  0  0
    2.7726   -1.4969    2.6323 C   0  0  0  0  0  0  0  0  0  0  0  0
    2.1284   -1.8469    3.4413 H   0  0  0  0  0  0  0  0  0  0  0  0
    3.4690   -2.2901    2.3598 H   0  0  0  0  0  0  0  0  0  0  0  0
    3.3340   -0.6303    2.9881 H   0  0  0  0  0  0  0  0  0  0  0  0
  5  6  2  0  0  0  0
  5  7  1  0  0  0  0
  2  3  1  0  0  0  0
  2  4  1  0  0  0  0
  2  5  1  0  0  0  0
  1  2  1  0  0  0  0
 19 20  2  0  0  0  0
 19 21  1  0  0  0  0
 17 18  1  0  0  0  0
 13 14  1  0  0  0  0
 13 15  1  0  0  0  0
 13 16  1  0  0  0  0
 11 12  1  0  0  0  0
 11 13  1  0  0  0  0
 11 17  1  0  0  0  0
  9 10  1  0  0  0  0
  9 11  1  0  0  0  0
  9 19  1  0  0  0  0
  7  8  1  0  0  0  0
  7  9  1  0  0  0  0
 23 24  1  0  0  0  0
 23 25  1  0  0  0  0
 23 26  1  0  0  0  0
 21 22  1  0  0  0  0
 21 23  1  0  0  0  0
M  END
$$$$
default_name
  -OEChem-01062215323D

 26 25  0     1  0  0  0  0  0999 V2000
   -2.8882   -3.2497    1.2537 H   0  0  0  0  0  0  0  0  0  0  0  0
   -2.8032   -2.3157    0.7017 C   0  0  0  0  0  0  0  0  0  0  0  0
   -3.5012   -1.5857    1.1067 H   0  0  0  0  0  0  0  0  0  0  0  0
   -3.0182   -2.4907   -0.3513 H   0  0  0  0  0  0  0  0  0  0  0  0
   -1.3942   -1.7897    0.8407 C   0  0  0  0  0  0  0  0  0  0  0  0
   -0.5672   -2.4077    1.5007 O   0  0  0  0  0  0  0  0  0  0  0  0
   -1.1222   -0.6447    0.2217 N   0  0  0  0  0  0  0  0  0  0  0  0
   -1.8592   -0.1777   -0.2863 H   0  0  0  0  0  0  0  0  0  0  0  0
    0.1838    0.0363    0.2367 C   0  0  1  0  0  0  0  0  0  0  0  0
    0.7905   -0.3549   -0.5792 H   0  0  0  0  0  0  0  0  0  0  0  0
    0.0393    1.5582    0.0305 C   0  0  1  0  0  0  0  0  0  0  0  0
    1.0346    2.0016    0.0543 H   0  0  0  0  0  0  0  0  0  0  0  0
   -0.6115    1.9484   -1.2951 C   0  0  0  0  0  0  0  0  0  0  0  0
   -1.6569    1.6378   -1.3111 H   0  0  0  0  0  0  0  0  0  0  0  0
   -0.5568    3.0279   -1.4302 H   0  0  0  0  0  0  0  0  0  0  0  0
   -0.0859    1.4634   -2.1182 H   0  0  0  0  0  0  0  0  0  0  0  0
   -0.7284    2.1361    1.0572 O   0  0  0  0  0  0  0  0  0  0  0  0
   -0.8728    3.0587    0.8371 H   0  0  0  0  0  0  0  0  0  0  0  0
    0.9348   -0.2507    1.5428 C   0  0  0  0  0  0  0  0  0  0  0  0
    0.4441    0.0424    2.6330 O   0  0  0  0  0  0  0  0  0  0  0  0
    2.1259   -0.8567    1.4401 N   0  0  0  0  0  0  0  0  0  0  0  0
    2.4648   -1.0890    0.5210 H   0  0  0  0  0  0  0  0  0  0  0  0
    2.9663   -1.2006    2.5860 C   0  0  0  0  0  0  0  0  0  0  0  0
    2.3893   -1.7860    3.3047 H   0  0  0  0  0  0  0  0  0  0  0  0
    3.8312   -1.7804    2.2635 H   0  0  0  0  0  0  0  0  0  0  0  0
    3.3072   -0.2876    3.0788 H   0  0  0  0  0  0  0  0  0  0  0  0
  5  6  2  0  0  0  0
  5  7  1  0  0  0  0
  2  3  1  0  0  0  0
  2  4  1  0  0  0  0
  2  5  1  0  0  0  0
  1  2  1  0  0  0  0
 19 20  2  0  0  0  0
 19 21  1  0  0  0  0
 17 18  1  0  0  0  0
 13 14  1  0  0  0  0
 13 15  1  0  0  0  0
 13 16  1  0  0  0  0
 11 12  1  0  0  0  0
 11 13  1  0  0  0  0
 11 17  1  0  0  0  0
  9 10  1  0  0  0  0
  9 11  1  0  0  0  0
  9 19  1  0  0  0  0
  7  8  1  0  0  0  0
  7  9  1  0  0  0  0
 23 24  1  0  0  0  0
 23 25  1  0  0  0  0
 23 26  1  0  0  0  0
 21 22  1  0  0  0  0
 21 23  1  0  0  0  0
M  END
$$$$
default_name
  -OEChem-01062215323D

 26 25  0     1  0  0  0  0  0999 V2000
   -2.8882   -3.2497    1.2537 H   0  0  0  0  0  0  0  0  0  0  0  0
   -2.8032   -2.3157    0.7017 C   0  0  0  0  0  0  0  0  0  0  0  0
   -3.5012   -1.5857    1.1067 H   0  0  0  0  0  0  0  0  0  0  0  0
   -3.0182   -2.4907   -0.3513 H   0  0  0  0  0  0  0  0  0  0  0  0
   -1.3942   -1.7897    0.8407 C   0  0  0  0  0  0  0  0  0  0  0  0
   -0.5672   -2.4077    1.5007 O   0  0  0  0  0  0  0  0  0  0  0  0
   -1.1222   -0.6447    0.2217 N   0  0  0  0  0  0  0  0  0  0  0  0
   -1.8592   -0.1777   -0.2863 H   0  0  0  0  0  0  0  0  0  0  0  0
    0.1838    0.0363    0.2367 C   0  0  1  0  0  0  0  0  0  0  0  0
    0.7905   -0.3549   -0.5792 H   0  0  0  0  0  0  0  0  0  0  0  0
    0.0393    1.5582    0.0305 C   0  0  1  0  0  0  0  0  0  0  0  0
    1.0346    2.0016    0.0543 H   0  0  0  0  0  0  0  0  0  0  0  0
   -0.6115    1.9484   -1.2951 C   0  0  0  0  0  0  0  0  0  0  0  0
   -1.6569    1.6378   -1.3111 H   0  0  0  0  0  0  0  0  0  0  0  0
   -0.5568    3.0279   -1.4302 H   0  0  0  0  0  0  0  0  0  0  0  0
   -0.0859    1.4634   -2.1182 H   0  0  0  0  0  0  0  0  0  0  0  0
   -0.7284    2.1361    1.0572 O   0  0  0  0  0  0  0  0  0  0  0  0
   -0.8728    3.0587    0.8371 H   0  0  0  0  0  0  0  0  0  0  0  0
    0.9348   -0.2507    1.5428 C   0  0  0  0  0  0  0  0  0  0  0  0
    0.3540   -0.2180    2.6276 O   0  0  0  0  0  0  0  0  0  0  0  0
    2.2340   -0.5644    1.4421 N   0  0  0  0  0  0  0  0  0  0  0  0
    2.6475   -0.5939    0.5247 H   0  0  0  0  0  0  0  0  0  0  0  0
    3.0903   -0.8658    2.5883 C   0  0  0  0  0  0  0  0  0  0  0  0
    2.6345   -1.6523    3.1931 H   0  0  0  0  0  0  0  0  0  0  0  0
    4.0735   -1.1960    2.2526 H   0  0  0  0  0  0  0  0  0  0  0  0
    3.2014    0.0261    3.2086 H   0  0  0  0  0  0  0  0  0  0  0  0
  5  6  2  0  0  0  0
  5  7  1  0  0  0  0
  2  3  1  0  0  0  0
  2  4  1  0  0  0  0
  2  5  1  0  0  0  0
  1  2  1  0  0  0  0
 19 20  2  0  0  0  0
 19 21  1  0  0  0  0
 17 18  1  0  0  0  0
 13 14  1  0  0  0  0
 13 15  1  0  0  0  0
 13 16  1  0  0  0  0
 11 12  1  0  0  0  0
 11 13  1  0  0  0  0
 11 17  1  0  0  0  0
  9 10  1  0  0  0  0
  9 11  1  0  0  0  0
  9 19  1  0  0  0  0
  7  8  1  0  0  0  0
  7  9  1  0  0  0  0
 23 24  1  0  0  0  0
 23 25  1  0  0  0  0
 23 26  1  0  0  0  0
 21 22  1  0  0  0  0
 21 23  1  0  0  0  0
M  END
$$$$
default_name
  -OEChem-01062215323D

 26 25  0     1  0  0  0  0  0999 V2000
   -2.8882   -3.2497    1.2537 H   0  0  0  0  0  0  0  0  0  0  0  0
   -2.8032   -2.3157    0.7017 C   0  0  0  0  0  0  0  0  0  0  0  0
   -3.5012   -1.5857    1.1067 H   0  0  0  0  0  0  0  0  0  0  0  0
   -3.0182   -2.4907   -0.3513 H   0  0  0  0  0  0  0  0  0  0  0  0
   -1.3942   -1.7897    0.8407 C   0  0  0  0  0  0  0  0  0  0  0  0
   -0.5672   -2.4077    1.5007 O   0  0  0  0  0  0  0  0  0  0  0  0
   -1.1222   -0.6447    0.2217 N   0  0  0  0  0  0  0  0  0  0  0  0
   -1.8592   -0.1777   -0.2863 H   0  0  0  0  0  0  0  0  0  0  0  0
    0.1838    0.0363    0.2367 C   0  0  1  0  0  0  0  0  0  0  0  0
    0.7905   -0.3549   -0.5792 H   0  0  0  0  0  0  0  0  0  0  0  0
    0.0393    1.5582    0.0305 C   0  0  1  0  0  0  0  0  0  0  0  0
    1.0346    2.0016    0.0543 H   0  0  0  0  0  0  0  0  0  0  0  0
   -0.6115    1.9484   -1.2951 C   0  0  0  0  0  0  0  0  0  0  0  0
   -1.6569    1.6378   -1.3111 H   0  0  0  0  0  0  0  0  0  0  0  0
   -0.5568    3.0279   -1.4302 H   0  0  0  0  0  0  0  0  0  0  0  0
   -0.0859    1.4634   -2.1182 H   0  0  0  0  0  0  0  0  0  0  0  0
   -0.7284    2.1361    1.0572 O   0  0  0  0  0  0  0  0  0  0  0  0
   -0.8728    3.0587    0.8371 H   0  0  0  0  0  0  0  0  0  0  0  0
    0.9348   -0.2507    1.5428 C   0  0  0  0  0  0  0  0  0  0  0  0
    0.3246   -0.4886    2.5850 O   0  0  0  0  0  0  0  0  0  0  0  0
    2.2740   -0.2585    1.4864 N   0  0  0  0  0  0  0  0  0  0  0  0
    2.7147   -0.0759    0.5999 H   0  0  0  0  0  0  0  0  0  0  0  0
    3.1361   -0.5154    2.6389 C   0  0  0  0  0  0  0  0  0  0  0  0
    2.8473   -1.4550    3.1141 H   0  0  0  0  0  0  0  0  0  0  0  0
    4.1792   -0.5768    2.3279 H   0  0  0  0  0  0  0  0  0  0  0  0
    3.0238    0.2894    3.3685 H   0  0  0  0  0  0  0  0  0  0  0  0
  5  6  2  0  0  0  0
  5  7  1  0  0  0  0
  2  3  1  0  0  0  0
  2  4  1  0  0  0  0
  2  5  1  0  0  0  0
  1  2  1  0  0  0  0
 19 20  2  0  0  0  0
 19 21  1  0  0  0  0
 17 18  1  0  0  0  0
 13 14  1  0  0  0  0
 13 15  1  0  0  0  0
 13 16  1  0  0  0  0
 11 12  1  0  0  0  0
 11 13  1  0  0  0  0
 11 17  1  0  0  0  0
  9 10  1  0  0  0  0
  9 11  1  0  0  0  0
  9 19  1  0  0  0  0
  7  8  1  0  0  0  0
  7  9  1  0  0  0  0
 23 24  1  0  0  0  0
 23 25  1  0  0  0  0
 23 26  1  0  0  0  0
 21 22  1  0  0  0  0
 21 23  1  0  0  0  0
M  END
$$$$
default_name
  -OEChem-01062215323D

 26 25  0     1  0  0  0  0  0999 V2000
   -2.8882   -3.2497    1.2537 H   0  0  0  0  0  0  0  0  0  0  0  0
   -2.8032   -2.3157    0.7017 C   0  0  0  0  0  0  0  0  0  0  0  0
   -3.5012   -1.5857    1.1067 H   0  0  0  0  0  0  0  0  0  0  0  0
   -3.0182   -2.4907   -0.3513 H   0  0  0  0  0  0  0  0  0  0  0  0
   -1.3942   -1.7897    0.8407 C   0  0  0  0  0  0  0  0  0  0  0  0
   -0.5672   -2.4077    1.5007 O   0  0  0  0  0  0  0  0  0  0  0  0
   -1.1222   -0.6447    0.2217 N   0  0  0  0  0  0  0  0  0  0  0  0
   -1.8592   -0.1777   -0.2863 H   0  0  0  0  0  0  0  0  0  0  0  0
    0.1838    0.0363    0.2367 C   0  0  1  0  0  0  0  0  0  0  0  0
    0.7905   -0.3549   -0.5792 H   0  0  0  0  0  0  0  0  0  0  0  0
    0.0393    1.5582    0.0305 C   0  0  1  0  0  0  0  0  0  0  0  0
    1.0346    2.0016    0.0543 H   0  0  0  0  0  0  0  0  0  0  0  0
   -0.6115    1.9484   -1.2951 C   0  0  0  0  0  0  0  0  0  0  0  0
   -1.6569    1.6378   -1.3111 H   0  0  0  0  0  0  0  0  0  0  0  0
   -0.5568    3.0279   -1.4302 H   0  0  0  0  0  0  0  0  0  0  0  0
   -0.0859    1.4634   -2.1182 H   0  0  0  0  0  0  0  0  0  0  0  0
   -0.7284    2.1361    1.0572 O   0  0  0  0  0  0  0  0  0  0  0  0
   -0.8728    3.0587    0.8371 H   0  0  0  0  0  0  0  0  0  0  0  0
    0.9348   -0.2507    1.5428 C   0  0  0  0  0  0  0  0  0  0  0  0
    0.3579   -0.7511    2.5082 O   0  0  0  0  0  0  0  0  0  0  0  0
    2.2429    0.0402    1.5699 N   0  0  0  0  0  0  0  0  0  0  0  0
    2.6618    0.4297    0.7414 H   0  0  0  0  0  0  0  0  0  0  0  0
    3.1008   -0.1733    2.7344 C   0  0  0  0  0  0  0  0  0  0  0  0
    3.0132   -1.2076    3.0731 H   0  0  0  0  0  0  0  0  0  0  0  0
    4.1412    0.0351    2.4843 H   0  0  0  0  0  0  0  0  0  0  0  0
    2.7865    0.4842    3.5478 H   0  0  0  0  0  0  0  0  0  0  0  0
  5  6  2  0  0  0  0
  5  7  1  0  0  0  0
  2  3  1  0  0  0  0
  2  4  1  0  0  0  0
  2  5  1  0  0  0  0
  1  2  1  0  0  0  0
 19 20  2  0  0  0  0
 19 21  1  0  0  0  0
 17 18  1  0  0  0  0
 13 14  1  0  0  0  0
 13 15  1  0  0  0  0
 13 16  1  0  0  0  0
 11 12  1  0  0  0  0
 11 13  1  0  0  0  0
 11 17  1  0  0  0  0
  9 10  1  0  0  0  0
  9 11  1  0  0  0  0
  9 19  1  0  0  0  0
  7  8  1  0  0  0  0
  7  9  1  0  0  0  0
 23 24  1  0  0  0  0
 23 25  1  0  0  0  0
 23 26  1  0  0  0  0
 21 22  1  0  0  0  0
 21 23  1  0  0  0  0
M  END
$$$$
default_name
  -OEChem-01062215323D

 26 25  0     1  0  0  0  0  0999 V2000
   -2.8882   -3.2497    1.2537 H   0  0  0  0  0  0  0  0  0  0  0  0
   -2.8032   -2.3157    0.7017 C   0  0  0  0  0  0  0  0  0  0  0  0
   -3.5012   -1.5857    1.1067 H   0  0  0  0  0  0  0  0  0  0  0  0
   -3.0182   -2.4907   -0.3513 H   0  0  0  0  0  0  0  0  0  0  0  0
   -1.3942   -1.7897    0.8407 C   0  0  0  0  0  0  0  0  0  0  0  0
   -0.5672   -2.4077    1.5007 O   0  0  0  0  0  0  0  0  0  0  0  0
   -1.1222   -0.6447    0.2217 N   0  0  0  0  0  0  0  0  0  0  0  0
   -1.8592   -0.1777   -0.2863 H   0  0  0  0  0  0  0  0  0  0  0  0
    0.1838    0.0363    0.2367 C   0  0  1  0  0  0  0  0  0  0  0  0
    0.6838   -0.1472   -0.7136 H   0  0  0  0  0  0  0  0  0  0  0  0
    0.0329    1.5623    0.4043 C   0  0  1  0  0  0  0  0  0  0  0  0
    1.0288    2.0049    0.4103 H   0  0  0  0  0  0  0  0  0  0  0  0
   -0.7678    2.2352   -0.7089 C   0  0  0  0  0  0  0  0  0  0  0  0
   -1.8111    1.9193   -0.6709 H   0  0  0  0  0  0  0  0  0  0  0  0
   -0.7175    3.3178   -0.5980 H   0  0  0  0  0  0  0  0  0  0  0  0
   -0.3503    1.9608   -1.6780 H   0  0  0  0  0  0  0  0  0  0  0  0
   -0.5995    1.8766    1.6203 O   0  0  0  0  0  0  0  0  0  0  0  0
   -0.7588    2.8225    1.6368 H   0  0  0  0  0  0  0  0  0  0  0  0
    1.0828   -0.5300    1.3427 C   0  0  0  0  0  0  0  0  0  0  0  0
    0.6979   -1.4523    2.0614 O   0  0  0  0  0  0  0  0  0  0  0  0
    2.3059    0.0039    1.4667 N   0  0  0  0  0  0  0  0  0  0  0  0
    2.5696    0.7428    0.8359 H   0  0  0  0  0  0  0  0  0  0  0  0
    3.2830   -0.4224    2.4674 C   0  0  0  0  0  0  0  0  0  0  0  0
    3.4288   -1.5026    2.4045 H   0  0  0  0  0  0  0  0  0  0  0  0
    4.2377    0.0783    2.3047 H   0  0  0  0  0  0  0  0  0  0  0  0
    2.9147   -0.1811    3.4668 H   0  0  0  0  0  0  0  0  0  0  0  0
  5  6  2  0  0  0  0
  5  7  1  0  0  0  0
  2  3  1  0  0  0  0
  2  4  1  0  0  0  0
  2  5  1  0  0  0  0
  1  2  1  0  0  0  0
 19 20  2  0  0  0  0
 19 21  1  0  0  0  0
 17 18  1  0  0  0  0
 13 14  1  0  0  0  0
 13 15  1  0  0  0  0
 13 16  1  0  0  0  0
 11 12  1  0  0  0  0
 11 13  1  0  0  0  0
 11 17  1  0  0  0  0
  9 10  1  0  0  0  0
  9 11  1  0  0  0  0
  9 19  1  0  0  0  0
  7  8  1  0  0  0  0
  7  9  1  0  0  0  0
 23 24  1  0  0  0  0
 23 25  1  0  0  0  0
 23 26  1  0  0  0  0
 21 22  1  0  0  0  0
 21 23  1  0  0  0  0
M  END
$$$$
default_name
  -OEChem-01062215323D

 26 25  0     1  0  0  0  0  0999 V2000
   -2.8882   -3.2497    1.2537 H   0  0  0  0  0  0  0  0  0  0  0  0
   -2.8032   -2.3157    0.7017 C   0  0  0  0  0  0  0  0  0  0  0  0
   -3.5012   -1.5857    1.1067 H   0  0  0  0  0  0  0  0  0  0  0  0
   -3.0182   -2.4907   -0.3513 H   0  0  0  0  0  0  0  0  0  0  0  0
   -1.3942   -1.7897    0.8407 C   0  0  0  0  0  0  0  0  0  0  0  0
   -0.5672   -2.4077    1.5007 O   0  0  0  0  0  0  0  0  0  0  0  0
   -1.1222   -0.6447    0.2217 N   0  0  0  0  0  0  0  0  0  0  0  0
   -1.8592   -0.1777   -0.2863 H   0  0  0  0  0  0  0  0  0  0  0  0
    0.1838    0.0363    0.2367 C   0  0  1  0  0  0  0  0  0  0  0  0
    0.6838   -0.1472   -0.7136 H   0  0  0  0  0  0  0  0  0  0  0  0
    0.0329    1.5623    0.4043 C   0  0  1  0  0  0  0  0  0  0  0  0
    1.0288    2.0049    0.4103 H   0  0  0  0  0  0  0  0  0  0  0  0
   -0.7678    2.2352   -0.7089 C   0  0  0  0  0  0  0  0  0  0  0  0
   -1.8111    1.9193   -0.6709 H   0  0  0  0  0  0  0  0  0  0  0  0
   -0.7175    3.3178   -0.5980 H   0  0  0  0  0  0  0  0  0  0  0  0
   -0.3503    1.9608   -1.6780 H   0  0  0  0  0  0  0  0  0  0  0  0
   -0.5995    1.8766    1.6203 O   0  0  0  0  0  0  0  0  0  0  0  0
   -0.7588    2.8225    1.6368 H   0  0  0  0  0  0  0  0  0  0  0  0
    1.0828   -0.5300    1.3427 C   0  0  0  0  0  0  0  0  0  0  0  0
    0.8271   -1.6097    1.8757 O   0  0  0  0  0  0  0  0  0  0  0  0
    2.1649    0.1875    1.6754 N   0  0  0  0  0  0  0  0  0  0  0  0
    2.3305    1.0534    1.1892 H   0  0  0  0  0  0  0  0  0  0  0  0
    3.1216   -0.2119    2.7063 C   0  0  0  0  0  0  0  0  0  0  0  0
    3.4788   -1.2241    2.5065 H   0  0  0  0  0  0  0  0  0  0  0  0
    3.9710    0.4713    2.7227 H   0  0  0  0  0  0  0  0  0  0  0  0
    2.6336   -0.2045    3.6833 H   0  0  0  0  0  0  0  0  0  0  0  0
  5  6  2  0  0  0  0
  5  7  1  0  0  0  0
  2  3  1  0  0  0  0
  2  4  1  0  0  0  0
  2  5  1  0  0  0  0
  1  2  1  0  0  0  0
 19 20  2  0  0  0  0
 19 21  1  0  0  0  0
 17 18  1  0  0  0  0
 13 14  1  0  0  0  0
 13 15  1  0  0  0  0
 13 16  1  0  0  0  0
 11 12  1  0  0  0  0
 11 13  1  0  0  0  0
 11 17  1  0  0  0  0
  9 10  1  0  0  0  0
  9 11  1  0  0  0  0
  9 19  1  0  0  0  0
  7  8  1  0  0  0  0
  7  9  1  0  0  0  0
 23 24  1  0  0  0  0
 23 25  1  0  0  0  0
 23 26  1  0  0  0  0
 21 22  1  0  0  0  0
 21 23  1  0  0  0  0
M  END
$$$$
default_name
  -OEChem-01062215323D

 26 25  0     1  0  0  0  0  0999 V2000
   -2.8882   -3.2497    1.2537 H   0  0  0  0  0  0  0  0  0  0  0  0
   -2.8032   -2.3157    0.7017 C   0  0  0  0  0  0  0  0  0  0  0  0
   -3.5012   -1.5857    1.1067 H   0  0  0  0  0  0  0  0  0  0  0  0
   -3.0182   -2.4907   -0.3513 H   0  0  0  0  0  0  0  0  0  0  0  0
   -1.3942   -1.7897    0.8407 C   0  0  0  0  0  0  0  0  0  0  0  0
   -0.5672   -2.4077    1.5007 O   0  0  0  0  0  0  0  0  0  0  0  0
   -1.1222   -0.6447    0.2217 N   0  0  0  0  0  0  0  0  0  0  0  0
   -1.8592   -0.1777   -0.2863 H   0  0  0  0  0  0  0  0  0  0  0  0
    0.1838    0.0363    0.2367 C   0  0  1  0  0  0  0  0  0  0  0  0
    0.6838   -0.1472   -0.7136 H   0  0  0  0  0  0  0  0  0  0  0  0
    0.0329    1.5623    0.4043 C   0  0  1  0  0  0  0  0  0  0  0  0
    1.0288    2.0049    0.4103 H   0  0  0  0  0  0  0  0  0  0  0  0
   -0.7678    2.2352   -0.7089 C   0  0  0  0  0  0  0  0  0  0  0  0
   -1.8111    1.9193   -0.6709 H   0  0  0  0  0  0  0  0  0  0  0  0
   -0.7175    3.3178   -0.5980 H   0  0  0  0  0  0  0  0  0  0  0  0
   -0.3503    1.9608   -1.6780 H   0  0  0  0  0  0  0  0  0  0  0  0
   -0.5995    1.8766    1.6203 O   0  0  0  0  0  0  0  0  0  0  0  0
   -0.7588    2.8225    1.6368 H   0  0  0  0  0  0  0  0  0  0  0  0
    1.0828   -0.5300    1.3427 C   0  0  0  0  0  0  0  0  0  0  0  0
    0.9991   -1.7095    1.6849 O   0  0  0  0  0  0  0  0  0  0  0  0
    1.9745    0.3069    1.8913 N   0  0  0  0  0  0  0  0  0  0  0  0
    2.0079    1.2551    1.5548 H   0  0  0  0  0  0  0  0  0  0  0  0
    2.9036   -0.0750    2.9536 C   0  0  0  0  0  0  0  0  0  0  0  0
    3.4654   -0.9612    2.6519 H   0  0  0  0  0  0  0  0  0  0  0  0
    3.6001    0.7377    3.1606 H   0  0  0  0  0  0  0  0  0  0  0  0
    2.3458   -0.3124    3.8620 H   0  0  0  0  0  0  0  0  0  0  0  0
  5  6  2  0  0  0  0
  5  7  1  0  0  0  0
  2  3  1  0  0  0  0
  2  4  1  0  0  0  0
  2  5  1  0  0  0  0
  1  2  1  0  0  0  0
 19 20  2  0  0  0  0
 19 21  1  0  0  0  0
 17 18  1  0  0  0  0
 13 14  1  0  0  0  0
 13 15  1  0  0  0  0
 13 16  1  0  0  0  0
 11 12  1  0  0  0  0
 11 13  1  0  0  0  0
 11 17  1  0  0  0  0
  9 10  1  0  0  0  0
  9 11  1  0  0  0  0
  9 19  1  0  0  0  0
  7  8  1  0  0  0  0
  7  9  1  0  0  0  0
 23 24  1  0  0  0  0
 23 25  1  0  0  0  0
 23 26  1  0  0  0  0
 21 22  1  0  0  0  0
 21 23  1  0  0  0  0
M  END
$$$$
default_name
  -OEChem-01062215323D

 26 25  0     1  0  0  0  0  0999 V2000
   -2.8882   -3.2497    1.2537 H   0  0  0  0  0  0  0  0  0  0  0  0
   -2.8032   -2.3157    0.7017 C   0  0  0  0  0  0  0  0  0  0  0  0
   -3.5012   -1.5857    1.1067 H   0  0  0  0  0  0  0  0  0  0  0  0
   -3.0182   -2.4907   -0.3513 H   0  0  0  0  0  0  0  0  0  0  0  0
   -1.3942   -1.7897    0.8407 C   0  0  0  0  0  0  0  0  0  0  0  0
   -0.5672   -2.4077    1.5007 O   0  0  0  0  0  0  0  0  0  0  0  0
   -1.1222   -0.6447    0.2217 N   0  0  0  0  0  0  0  0  0  0  0  0
   -1.8592   -0.1777   -0.2863 H   0  0  0  0  0  0  0  0  0  0  0  0
    0.1838    0.0363    0.2367 C   0  0  1  0  0  0  0  0  0  0  0  0
    0.6838   -0.1472   -0.7136 H   0  0  0  0  0  0  0  0  0  0  0  0
    0.0329    1.5623    0.4043 C   0  0  1  0  0  0  0  0  0  0  0  0
    1.0288    2.0049    0.4103 H   0  0  0  0  0  0  0  0  0  0  0  0
   -0.7678    2.2352   -0.7089 C   0  0  0  0  0  0  0  0  0  0  0  0
   -1.8111    1.9193   -0.6709 H   0  0  0  0  0  0  0  0  0  0  0  0
   -0.7175    3.3178   -0.5980 H   0  0  0  0  0  0  0  0  0  0  0  0
   -0.3503    1.9608   -1.6780 H   0  0  0  0  0  0  0  0  0  0  0  0
   -0.5995    1.8766    1.6203 O   0  0  0  0  0  0  0  0  0  0  0  0
   -0.7588    2.8225    1.6368 H   0  0  0  0  0  0  0  0  0  0  0  0
    1.0828   -0.5300    1.3427 C   0  0  0  0  0  0  0  0  0  0  0  0
    1.2020   -1.7448    1.5019 O   0  0  0  0  0  0  0  0  0  0  0  0
    1.7476    0.3539    2.0998 N   0  0  0  0  0  0  0  0  0  0  0  0
    1.6236    1.3343    1.9077 H   0  0  0  0  0  0  0  0  0  0  0  0
    2.6438   -0.0210    3.1924 C   0  0  0  0  0  0  0  0  0  0  0  0
    3.3895   -0.7319    2.8311 H   0  0  0  0  0  0  0  0  0  0  0  0
    3.1502    0.8594    3.5886 H   0  0  0  0  0  0  0  0  0  0  0  0
    2.0708   -0.4974    3.9907 H   0  0  0  0  0  0  0  0  0  0  0  0
  5  6  2  0  0  0  0
  5  7  1  0  0  0  0
  2  3  1  0  0  0  0
  2  4  1  0  0  0  0
  2  5  1  0  0  0  0
  1  2  1  0  0  0  0
 19 20  2  0  0  0  0
 19 21  1  0  0  0  0
 17 18  1  0  0  0  0
 13 14  1  0  0  0  0
 13 15  1  0  0  0  0
 13 16  1  0  0  0  0
 11 12  1  0  0  0  0
 11 13  1  0  0  0  0
 11 17  1  0  0  0  0
  9 10  1  0  0  0  0
  9 11  1  0  0  0  0
  9 19  1  0  0  0  0
  7  8  1  0  0  0  0
  7  9  1  0  0  0  0
 23 24  1  0  0  0  0
 23 25  1  0  0  0  0
 23 26  1  0  0  0  0
 21 22  1  0  0  0  0
 21 23  1  0  0  0  0
M  END
$$$$
default_name
  -OEChem-01062215323D

 26 25  0     1  0  0  0  0  0999 V2000
   -2.8882   -3.2497    1.2537 H   0  0  0  0  0  0  0  0  0  0  0  0
   -2.8032   -2.3157    0.7017 C   0  0  0  0  0  0  0  0  0  0  0  0
   -3.5012   -1.5857    1.1067 H   0  0  0  0  0  0  0  0  0  0  0  0
   -3.0182   -2.4907   -0.3513 H   0  0  0  0  0  0  0  0  0  0  0  0
   -1.3942   -1.7897    0.8407 C   0  0  0  0  0  0  0  0  0  0  0  0
   -0.5672   -2.4077    1.5007 O   0  0  0  0  0  0  0  0  0  0  0  0
   -1.1222   -0.6447    0.2217 N   0  0  0  0  0  0  0  0  0  0  0  0
   -1.8592   -0.1777   -0.2863 H   0  0  0  0  0  0  0  0  0  0  0  0
    0.1838    0.0363    0.2367 C   0  0  1  0  0  0  0  0  0  0  0  0
    0.6838   -0.1472   -0.7136 H   0  0  0  0  0  0  0  0  0  0  0  0
    0.0329    1.5623    0.4043 C   0  0  1  0  0  0  0  0  0  0  0  0
    1.0288    2.0049    0.4103 H   0  0  0  0  0  0  0  0  0  0  0  0
   -0.7678    2.2352   -0.7089 C   0  0  0  0  0  0  0  0  0  0  0  0
   -1.8111    1.9193   -0.6709 H   0  0  0  0  0  0  0  0  0  0  0  0
   -0.7175    3.3178   -0.5980 H   0  0  0  0  0  0  0  0  0  0  0  0
   -0.3503    1.9608   -1.6780 H   0  0  0  0  0  0  0  0  0  0  0  0
   -0.5995    1.8766    1.6203 O   0  0  0  0  0  0  0  0  0  0  0  0
   -0.7588    2.8225    1.6368 H   0  0  0  0  0  0  0  0  0  0  0  0
    1.0828   -0.5300    1.3427 C   0  0  0  0  0  0  0  0  0  0  0  0
    1.4221   -1.7133    1.3391 O   0  0  0  0  0  0  0  0  0  0  0  0
    1.4998    0.3254    2.2866 N   0  0  0  0  0  0  0  0  0  0  0  0
    1.2039    1.2856    2.2239 H   0  0  0  0  0  0  0  0  0  0  0  0
    2.3600   -0.0535    3.4065 C   0  0  0  0  0  0  0  0  0  0  0  0
    3.2563   -0.5517    3.0316 H   0  0  0  0  0  0  0  0  0  0  0  0
    2.6521    0.8281    3.9774 H   0  0  0  0  0  0  0  0  0  0  0  0
    1.8274   -0.7470    4.0607 H   0  0  0  0  0  0  0  0  0  0  0  0
  5  6  2  0  0  0  0
  5  7  1  0  0  0  0
  2  3  1  0  0  0  0
  2  4  1  0  0  0  0
  2  5  1  0  0  0  0
  1  2  1  0  0  0  0
 19 20  2  0  0  0  0
 19 21  1  0  0  0  0
 17 18  1  0  0  0  0
 13 14  1  0  0  0  0
 13 15  1  0  0  0  0
 13 16  1  0  0  0  0
 11 12  1  0  0  0  0
 11 13  1  0  0  0  0
 11 17  1  0  0  0  0
  9 10  1  0  0  0  0
  9 11  1  0  0  0  0
  9 19  1  0  0  0  0
  7  8  1  0  0  0  0
  7  9  1  0  0  0  0
 23 24  1  0  0  0  0
 23 25  1  0  0  0  0
 23 26  1  0  0  0  0
 21 22  1  0  0  0  0
 21 23  1  0  0  0  0
M  END
$$$$
default_name
  -OEChem-01062215323D

 26 25  0     1  0  0  0  0  0999 V2000
   -2.8882   -3.2497    1.2537 H   0  0  0  0  0  0  0  0  0  0  0  0
   -2.8032   -2.3157    0.7017 C   0  0  0  0  0  0  0  0  0  0  0  0
   -3.5012   -1.5857    1.1067 H   0  0  0  0  0  0  0  0  0  0  0  0
   -3.0182   -2.4907   -0.3513 H   0  0  0  0  0  0  0  0  0  0  0  0
   -1.3942   -1.7897    0.8407 C   0  0  0  0  0  0  0  0  0  0  0  0
   -0.5672   -2.4077    1.5007 O   0  0  0  0  0  0  0  0  0  0  0  0
   -1.1222   -0.6447    0.2217 N   0  0  0  0  0  0  0  0  0  0  0  0
   -1.8592   -0.1777   -0.2863 H   0  0  0  0  0  0  0  0  0  0  0  0
    0.1838    0.0363    0.2367 C   0  0  1  0  0  0  0  0  0  0  0  0
    0.6838   -0.1472   -0.7136 H   0  0  0  0  0  0  0  0  0  0  0  0
    0.0329    1.5623    0.4043 C   0  0  1  0  0  0  0  0  0  0  0  0
    1.0288    2.0049    0.4103 H   0  0  0  0  0  0  0  0  0  0  0  0
   -0.7678    2.2352   -0.7089 C   0  0  0  0  0  0  0  0  0  0  0  0
   -1.8111    1.9193   -0.6709 H   0  0  0  0  0  0  0  0  0  0  0  0
   -0.7175    3.3178   -0.5980 H   0  0  0  0  0  0  0  0  0  0  0  0
   -0.3503    1.9608   -1.6780 H   0  0  0  0  0  0  0  0  0  0  0  0
   -0.5995    1.8766    1.6203 O   0  0  0  0  0  0  0  0  0  0  0  0
   -0.7588    2.8225    1.6368 H   0  0  0  0  0  0  0  0  0  0  0  0
    1.0828   -0.5300    1.3427 C   0  0  0  0  0  0  0  0  0  0  0  0
    1.6444   -1.6170    1.2077 O   0  0  0  0  0  0  0  0  0  0  0  0
    1.2479    0.2232    2.4390 N   0  0  0  0  0  0  0  0  0  0  0  0
    0.7774    1.1122    2.4817 H   0  0  0  0  0  0  0  0  0  0  0  0
    2.0714   -0.1704    3.5812 C   0  0  0  0  0  0  0  0  0  0  0  0
    3.0748   -0.4330    3.2400 H   0  0  0  0  0  0  0  0  0  0  0  0
    2.1397    0.6458    4.3006 H   0  0  0  0  0  0  0  0  0  0  0  0
    1.6322   -1.0441    4.0672 H   0  0  0  0  0  0  0  0  0  0  0  0
  5  6  2  0  0  0  0
  5  7  1  0  0  0  0
  2  3  1  0  0  0  0
  2  4  1  0  0  0  0
  2  5  1  0  0  0  0
  1  2  1  0  0  0  0
 19 20  2  0  0  0  0
 19 21  1  0  0  0  0
 17 18  1  0  0  0  0
 13 14  1  0  0  0  0
 13 15  1  0  0  0  0
 13 16  1  0  0  0  0
 11 12  1  0  0  0  0
 11 13  1  0  0  0  0
 11 17  1  0  0  0  0
  9 10  1  0  0  0  0
  9 11  1  0  0  0  0
  9 19  1  0  0  0  0
  7  8  1  0  0  0  0
  7  9  1  0  0  0  0
 23 24  1  0  0  0  0
 23 25  1  0  0  0  0
 23 26  1  0  0  0  0
 21 22  1  0  0  0  0
 21 23  1  0  0  0  0
M  END
$$$$
default_name
  -OEChem-01062215323D

 26 25  0     1  0  0  0  0  0999 V2000
   -2.8882   -3.2497    1.2537 H   0  0  0  0  0  0  0  0  0  0  0  0
   -2.8032   -2.3157    0.7017 C   0  0  0  0  0  0  0  0  0  0  0  0
   -3.5012   -1.5857    1.1067 H   0  0  0  0  0  0  0  0  0  0  0  0
   -3.0182   -2.4907   -0.3513 H   0  0  0  0  0  0  0  0  0  0  0  0
   -1.3942   -1.7897    0.8407 C   0  0  0  0  0  0  0  0  0  0  0  0
   -0.5672   -2.4077    1.5007 O   0  0  0  0  0  0  0  0  0  0  0  0
   -1.1222   -0.6447    0.2217 N   0  0  0  0  0  0  0  0  0  0  0  0
   -1.8592   -0.1777   -0.2863 H   0  0  0  0  0  0  0  0  0  0  0  0
    0.1838    0.0363    0.2367 C   0  0  1  0  0  0  0  0  0  0  0  0
    0.6838   -0.1472   -0.7136 H   0  0  0  0  0  0  0  0  0  0  0  0
    0.0329    1.5623    0.4043 C   0  0  1  0  0  0  0  0  0  0  0  0
    1.0288    2.0049    0.4103 H   0  0  0  0  0  0  0  0  0  0  0  0
   -0.7678    2.2352   -0.7089 C   0  0  0  0  0  0  0  0  0  0  0  0
   -1.8111    1.9193   -0.6709 H   0  0  0  0  0  0  0  0  0  0  0  0
   -0.7175    3.3178   -0.5980 H   0  0  0  0  0  0  0  0  0  0  0  0
   -0.3503    1.9608   -1.6780 H   0  0  0  0  0  0  0  0  0  0  0  0
   -0.5995    1.8766    1.6203 O   0  0  0  0  0  0  0  0  0  0  0  0
   -0.7588    2.8225    1.6368 H   0  0  0  0  0  0  0  0  0  0  0  0
    1.0828   -0.5300    1.3427 C   0  0  0  0  0  0  0  0  0  0  0  0
    1.8537   -1.4627    1.1167 O   0  0  0  0  0  0  0  0  0  0  0  0
    1.0090    0.0544    2.5467 N   0  0  0  0  0  0  0  0  0  0  0  0
    0.3731    0.8260    2.6638 H   0  0  0  0  0  0  0  0  0  0  0  0
    1.7978   -0.3636    3.7046 C   0  0  0  0  0  0  0  0  0  0  0  0
    2.8574   -0.3838    3.4418 H   0  0  0  0  0  0  0  0  0  0  0  0
    1.6478    0.3251    4.5362 H   0  0  0  0  0  0  0  0  0  0  0  0
    1.4985   -1.3685    4.0098 H   0  0  0  0  0  0  0  0  0  0  0  0
  5  6  2  0  0  0  0
  5  7  1  0  0  0  0
  2  3  1  0  0  0  0
  2  4  1  0  0  0  0
  2  5  1  0  0  0  0
  1  2  1  0  0  0  0
 19 20  2  0  0  0  0
 19 21  1  0  0  0  0
 17 18  1  0  0  0  0
 13 14  1  0  0  0  0
 13 15  1  0  0  0  0
 13 16  1  0  0  0  0
 11 12  1  0  0  0  0
 11 13  1  0  0  0  0
 11 17  1  0  0  0  0
  9 10  1  0  0  0  0
  9 11  1  0  0  0  0
  9 19  1  0  0  0  0
  7  8  1  0  0  0  0
  7  9  1  0  0  0  0
 23 24  1  0  0  0  0
 23 25  1  0  0  0  0
 23 26  1  0  0  0  0
 21 22  1  0  0  0  0
 21 23  1  0  0  0  0
M  END
$$$$
default_name
  -OEChem-01062215323D

 26 25  0     1  0  0  0  0  0999 V2000
   -2.8882   -3.2497    1.2537 H   0  0  0  0  0  0  0  0  0  0  0  0
   -2.8032   -2.3157    0.7017 C   0  0  0  0  0  0  0  0  0  0  0  0
   -3.5012   -1.5857    1.1067 H   0  0  0  0  0  0  0  0  0  0  0  0
   -3.0182   -2.4907   -0.3513 H   0  0  0  0  0  0  0  0  0  0  0  0
   -1.3942   -1.7897    0.8407 C   0  0  0  0  0  0  0  0  0  0  0  0
   -0.5672   -2.4077    1.5007 O   0  0  0  0  0  0  0  0  0  0  0  0
   -1.1222   -0.6447    0.2217 N   0  0  0  0  0  0  0  0  0  0  0  0
   -1.8592   -0.1777   -0.2863 H   0  0  0  0  0  0  0  0  0  0  0  0
    0.1838    0.0363    0.2367 C   0  0  1  0  0  0  0  0  0  0  0  0
    0.6838   -0.1472   -0.7136 H   0  0  0  0  0  0  0  0  0  0  0  0
    0.0329    1.5623    0.4043 C   0  0  1  0  0  0  0  0  0  0  0  0
    1.0288    2.0049    0.4103 H   0  0  0  0  0  0  0  0  0  0  0  0
   -0.7678    2.2352   -0.7089 C   0  0  0  0  0  0  0  0  0  0  0  0
   -1.8111    1.9193   -0.6709 H   0  0  0  0  0  0  0  0  0  0  0  0
   -0.7175    3.3178   -0.5980 H   0  0  0  0  0  0  0  0  0  0  0  0
   -0.3503    1.9608   -1.6780 H   0  0  0  0  0  0  0  0  0  0  0  0
   -0.5995    1.8766    1.6203 O   0  0  0  0  0  0  0  0  0  0  0  0
   -0.7588    2.8225    1.6368 H   0  0  0  0  0  0  0  0  0  0  0  0
    1.0828   -0.5300    1.3427 C   0  0  0  0  0  0  0  0  0  0  0  0
    2.0358   -1.2607    1.0721 O   0  0  0  0  0  0  0  0  0  0  0  0
    0.7996   -0.1696    2.6023 N   0  0  0  0  0  0  0  0  0  0  0  0
    0.0187    0.4465    2.7575 H   0  0  0  0  0  0  0  0  0  0  0  0
    1.5578   -0.6201    3.7684 C   0  0  0  0  0  0  0  0  0  0  0  0
    2.6189   -0.4074    3.6236 H   0  0  0  0  0  0  0  0  0  0  0  0
    1.2100   -0.1122    4.6681 H   0  0  0  0  0  0  0  0  0  0  0  0
    1.4354   -1.6981    3.8923 H   0  0  0  0  0  0  0  0  0  0  0  0
  5  6  2  0  0  0  0
  5  7  1  0  0  0  0
  2  3  1  0  0  0  0
  2  4  1  0  0  0  0
  2  5  1  0  0  0  0
  1  2  1  0  0  0  0
 19 20  2  0  0  0  0
 19 21  1  0  0  0  0
 17 18  1  0  0  0  0
 13 14  1  0  0  0  0
 13 15  1  0  0  0  0
 13 16  1  0  0  0  0
 11 12  1  0  0  0  0
 11 13  1  0  0  0  0
 11 17  1  0  0  0  0
  9 10  1  0  0  0  0
  9 11  1  0  0  0  0
  9 19  1  0  0  0  0
  7  8  1  0  0  0  0
  7  9  1  0  0  0  0
 23 24  1  0  0  0  0
 23 25  1  0  0  0  0
 23 26  1  0  0  0  0
 21 22  1  0  0  0  0
 21 23  1  0  0  0  0
M  END
$$$$
default_name
  -OEChem-01062215323D

 26 25  0     1  0  0  0  0  0999 V2000
   -2.8882   -3.2497    1.2537 H   0  0  0  0  0  0  0  0  0  0  0  0
   -2.8032   -2.3157    0.7017 C   0  0  0  0  0  0  0  0  0  0  0  0
   -3.5012   -1.5857    1.1067 H   0  0  0  0  0  0  0  0  0  0  0  0
   -3.0182   -2.4907   -0.3513 H   0  0  0  0  0  0  0  0  0  0  0  0
   -1.3942   -1.7897    0.8407 C   0  0  0  0  0  0  0  0  0  0  0  0
   -0.5672   -2.4077    1.5007 O   0  0  0  0  0  0  0  0  0  0  0  0
   -1.1222   -0.6447    0.2217 N   0  0  0  0  0  0  0  0  0  0  0  0
   -1.8592   -0.1777   -0.2863 H   0  0  0  0  0  0  0  0  0  0  0  0
    0.1838    0.0363    0.2367 C   0  0  1  0  0  0  0  0  0  0  0  0
    0.6838   -0.1472   -0.7136 H   0  0  0  0  0  0  0  0  0  0  0  0
    0.0329    1.5623    0.4043 C   0  0  1  0  0  0  0  0  0  0  0  0
    1.0288    2.0049    0.4103 H   0  0  0  0  0  0  0  0  0  0  0  0
   -0.7678    2.2352   -0.7089 C   0  0  0  0  0  0  0  0  0  0  0  0
   -1.8111    1.9193   -0.6709 H   0  0  0  0  0  0  0  0  0  0  0  0
   -0.7175    3.3178   -0.5980 H   0  0  0  0  0  0  0  0  0  0  0  0
   -0.3503    1.9608   -1.6780 H   0  0  0  0  0  0  0  0  0  0  0  0
   -0.5995    1.8766    1.6203 O   0  0  0  0  0  0  0  0  0  0  0  0
   -0.7588    2.8225    1.6368 H   0  0  0  0  0  0  0  0  0  0  0  0
    1.0828   -0.5300    1.3427 C   0  0  0  0  0  0  0  0  0  0  0  0
    2.1782   -1.0248    1.0772 O   0  0  0  0  0  0  0  0  0  0  0  0
    0.6337   -0.4335    2.6019 N   0  0  0  0  0  0  0  0  0  0  0  0
   -0.2618   -0.0005    2.7567 H   0  0  0  0  0  0  0  0  0  0  0  0
    1.3678   -0.9222    3.7681 C   0  0  0  0  0  0  0  0  0  0  0  0
    2.3756   -0.5024    3.7727 H   0  0  0  0  0  0  0  0  0  0  0  0
    0.8561   -0.6363    4.6873 H   0  0  0  0  0  0  0  0  0  0  0  0
    1.4472   -2.0105    3.7228 H   0  0  0  0  0  0  0  0  0  0  0  0
  5  6  2  0  0  0  0
  5  7  1  0  0  0  0
  2  3  1  0  0  0  0
  2  4  1  0  0  0  0
  2  5  1  0  0  0  0
  1  2  1  0  0  0  0
 19 20  2  0  0  0  0
 19 21  1  0  0  0  0
 17 18  1  0  0  0  0
 13 14  1  0  0  0  0
 13 15  1  0  0  0  0
 13 16  1  0  0  0  0
 11 12  1  0  0  0  0
 11 13  1  0  0  0  0
 11 17  1  0  0  0  0
  9 10  1  0  0  0  0
  9 11  1  0  0  0  0
  9 19  1  0  0  0  0
  7  8  1  0  0  0  0
  7  9  1  0  0  0  0
 23 24  1  0  0  0  0
 23 25  1  0  0  0  0
 23 26  1  0  0  0  0
 21 22  1  0  0  0  0
 21 23  1  0  0  0  0
M  END
$$$$
default_name
  -OEChem-01062215323D

 26 25  0     1  0  0  0  0  0999 V2000
   -2.8882   -3.2497    1.2537 H   0  0  0  0  0  0  0  0  0  0  0  0
   -2.8032   -2.3157    0.7017 C   0  0  0  0  0  0  0  0  0  0  0  0
   -3.5012   -1.5857    1.1067 H   0  0  0  0  0  0  0  0  0  0  0  0
   -3.0182   -2.4907   -0.3513 H   0  0  0  0  0  0  0  0  0  0  0  0
   -1.3942   -1.7897    0.8407 C   0  0  0  0  0  0  0  0  0  0  0  0
   -0.5672   -2.4077    1.5007 O   0  0  0  0  0  0  0  0  0  0  0  0
   -1.1222   -0.6447    0.2217 N   0  0  0  0  0  0  0  0  0  0  0  0
   -1.8592   -0.1777   -0.2863 H   0  0  0  0  0  0  0  0  0  0  0  0
    0.1838    0.0363    0.2367 C   0  0  1  0  0  0  0  0  0  0  0  0
    0.6838   -0.1472   -0.7136 H   0  0  0  0  0  0  0  0  0  0  0  0
    0.0329    1.5623    0.4043 C   0  0  1  0  0  0  0  0  0  0  0  0
    1.0288    2.0049    0.4103 H   0  0  0  0  0  0  0  0  0  0  0  0
   -0.7678    2.2352   -0.7089 C   0  0  0  0  0  0  0  0  0  0  0  0
   -1.8111    1.9193   -0.6709 H   0  0  0  0  0  0  0  0  0  0  0  0
   -0.7175    3.3178   -0.5980 H   0  0  0  0  0  0  0  0  0  0  0  0
   -0.3503    1.9608   -1.6780 H   0  0  0  0  0  0  0  0  0  0  0  0
   -0.5995    1.8766    1.6203 O   0  0  0  0  0  0  0  0  0  0  0  0
   -0.7588    2.8225    1.6368 H   0  0  0  0  0  0  0  0  0  0  0  0
    1.0828   -0.5300    1.3427 C   0  0  0  0  0  0  0  0  0  0  0  0
    2.2712   -0.7712    1.1314 O   0  0  0  0  0  0  0  0  0  0  0  0
    0.5228   -0.7193    2.5457 N   0  0  0  0  0  0  0  0  0  0  0  0
   -0.4493   -0.4844    2.6612 H   0  0  0  0  0  0  0  0  0  0  0  0
    1.2406   -1.2496    3.7038 C   0  0  0  0  0  0  0  0  0  0  0  0
    2.1441   -0.6621    3.8791 H   0  0  0  0  0  0  0  0  0  0  0  0
    0.6103   -1.2116    4.5925 H   0  0  0  0  0  0  0  0  0  0  0  0
    1.5331   -2.2842    3.5128 H   0  0  0  0  0  0  0  0  0  0  0  0
  5  6  2  0  0  0  0
  5  7  1  0  0  0  0
  2  3  1  0  0  0  0
  2  4  1  0  0  0  0
  2  5  1  0  0  0  0
  1  2  1  0  0  0  0
 19 20  2  0  0  0  0
 19 21  1  0  0  0  0
 17 18  1  0  0  0  0
 13 14  1  0  0  0  0
 13 15  1  0  0  0  0
 13 16  1  0  0  0  0
 11 12  1  0  0  0  0
 11 13  1  0  0  0  0
 11 17  1  0  0  0  0
  9 10  1  0  0  0  0
  9 11  1  0  0  0  0
  9 19  1  0  0  0  0
  7  8  1  0  0  0  0
  7  9  1  0  0  0  0
 23 24  1  0  0  0  0
 23 25  1  0  0  0  0
 23 26  1  0  0  0  0
 21 22  1  0  0  0  0
 21 23  1  0  0  0  0
M  END
$$$$
default_name
  -OEChem-01062215323D

 26 25  0     1  0  0  0  0  0999 V2000
   -2.8882   -3.2497    1.2537 H   0  0  0  0  0  0  0  0  0  0  0  0
   -2.8032   -2.3157    0.7017 C   0  0  0  0  0  0  0  0  0  0  0  0
   -3.5012   -1.5857    1.1067 H   0  0  0  0  0  0  0  0  0  0  0  0
   -3.0182   -2.4907   -0.3513 H   0  0  0  0  0  0  0  0  0  0  0  0
   -1.3942   -1.7897    0.8407 C   0  0  0  0  0  0  0  0  0  0  0  0
   -0.5672   -2.4077    1.5007 O   0  0  0  0  0  0  0  0  0  0  0  0
   -1.1222   -0.6447    0.2217 N   0  0  0  0  0  0  0  0  0  0  0  0
   -1.8592   -0.1777   -0.2863 H   0  0  0  0  0  0  0  0  0  0  0  0
    0.1838    0.0363    0.2367 C   0  0  1  0  0  0  0  0  0  0  0  0
    0.6838   -0.1472   -0.7136 H   0  0  0  0  0  0  0  0  0  0  0  0
    0.0329    1.5623    0.4043 C   0  0  1  0  0  0  0  0  0  0  0  0
    1.0288    2.0049    0.4103 H   0  0  0  0  0  0  0  0  0  0  0  0
   -0.7678    2.2352   -0.7089 C   0  0  0  0  0  0  0  0  0  0  0  0
   -1.8111    1.9193   -0.6709 H   0  0  0  0  0  0  0  0  0  0  0  0
   -0.7175    3.3178   -0.5980 H   0  0  0  0  0  0  0  0  0  0  0  0
   -0.3503    1.9608   -1.6780 H   0  0  0  0  0  0  0  0  0  0  0  0
   -0.5995    1.8766    1.6203 O   0  0  0  0  0  0  0  0  0  0  0  0
   -0.7588    2.8225    1.6368 H   0  0  0  0  0  0  0  0  0  0  0  0
    1.0828   -0.5300    1.3427 C   0  0  0  0  0  0  0  0  0  0  0  0
    2.3086   -0.5170    1.2312 O   0  0  0  0  0  0  0  0  0  0  0  0
    0.4744   -1.0075    2.4375 N   0  0  0  0  0  0  0  0  0  0  0  0
   -0.5309   -0.9724    2.4776 H   0  0  0  0  0  0  0  0  0  0  0  0
    1.1850   -1.5797    3.5800 C   0  0  0  0  0  0  0  0  0  0  0  0
    1.9401   -0.8758    3.9355 H   0  0  0  0  0  0  0  0  0  0  0  0
    0.4894   -1.7987    4.3902 H   0  0  0  0  0  0  0  0  0  0  0  0
    1.6872   -2.5008    3.2766 H   0  0  0  0  0  0  0  0  0  0  0  0
  5  6  2  0  0  0  0
  5  7  1  0  0  0  0
  2  3  1  0  0  0  0
  2  4  1  0  0  0  0
  2  5  1  0  0  0  0
  1  2  1  0  0  0  0
 19 20  2  0  0  0  0
 19 21  1  0  0  0  0
 17 18  1  0  0  0  0
 13 14  1  0  0  0  0
 13 15  1  0  0  0  0
 13 16  1  0  0  0  0
 11 12  1  0  0  0  0
 11 13  1  0  0  0  0
 11 17  1  0  0  0  0
  9 10  1  0  0  0  0
  9 11  1  0  0  0  0
  9 19  1  0  0  0  0
  7  8  1  0  0  0  0
  7  9  1  0  0  0  0
 23 24  1  0  0  0  0
 23 25  1  0  0  0  0
 23 26  1  0  0  0  0
 21 22  1  0  0  0  0
 21 23  1  0  0  0  0
M  END
$$$$
default_name
  -OEChem-01062215323D

 26 25  0     1  0  0  0  0  0999 V2000
   -2.8882   -3.2497    1.2537 H   0  0  0  0  0  0  0  0  0  0  0  0
   -2.8032   -2.3157    0.7017 C   0  0  0  0  0  0  0  0  0  0  0  0
   -3.5012   -1.5857    1.1067 H   0  0  0  0  0  0  0  0  0  0  0  0
   -3.0182   -2.4907   -0.3513 H   0  0  0  0  0  0  0  0  0  0  0  0
   -1.3942   -1.7897    0.8407 C   0  0  0  0  0  0  0  0  0  0  0  0
   -0.5672   -2.4077    1.5007 O   0  0  0  0  0  0  0  0  0  0  0  0
   -1.1222   -0.6447    0.2217 N   0  0  0  0  0  0  0  0  0  0  0  0
   -1.8592   -0.1777   -0.2863 H   0  0  0  0  0  0  0  0  0  0  0  0
    0.1838    0.0363    0.2367 C   0  0  1  0  0  0  0  0  0  0  0  0
    0.6838   -0.1472   -0.7136 H   0  0  0  0  0  0  0  0  0  0  0  0
    0.0329    1.5623    0.4043 C   0  0  1  0  0  0  0  0  0  0  0  0
    1.0288    2.0049    0.4103 H   0  0  0  0  0  0  0  0  0  0  0  0
   -0.7678    2.2352   -0.7089 C   0  0  0  0  0  0  0  0  0  0  0  0
   -1.8111    1.9193   -0.6709 H   0  0  0  0  0  0  0  0  0  0  0  0
   -0.7175    3.3178   -0.5980 H   0  0  0  0  0  0  0  0  0  0  0  0
   -0.3503    1.9608   -1.6780 H   0  0  0  0  0  0  0  0  0  0  0  0
   -0.5995    1.8766    1.6203 O   0  0  0  0  0  0  0  0  0  0  0  0
   -0.7588    2.8225    1.6368 H   0  0  0  0  0  0  0  0  0  0  0  0
    1.0828   -0.5300    1.3427 C   0  0  0  0  0  0  0  0  0  0  0  0
    2.2877   -0.2797    1.3697 O   0  0  0  0  0  0  0  0  0  0  0  0
    0.4918   -1.2786    2.2846 N   0  0  0  0  0  0  0  0  0  0  0  0
   -0.5011   -1.4312    2.2185 H   0  0  0  0  0  0  0  0  0  0  0  0
    1.2048   -1.8902    3.4049 C   0  0  0  0  0  0  0  0  0  0  0  0
    1.7775   -1.1288    3.9381 H   0  0  0  0  0  0  0  0  0  0  0  0
    0.5014   -2.3578    4.0941 H   0  0  0  0  0  0  0  0  0  0  0  0
    1.8991   -2.6454    3.0304 H   0  0  0  0  0  0  0  0  0  0  0  0
  5  6  2  0  0  0  0
  5  7  1  0  0  0  0
  2  3  1  0  0  0  0
  2  4  1  0  0  0  0
  2  5  1  0  0  0  0
  1  2  1  0  0  0  0
 19 20  2  0  0  0  0
 19 21  1  0  0  0  0
 17 18  1  0  0  0  0
 13 14  1  0  0  0  0
 13 15  1  0  0  0  0
 13 16  1  0  0  0  0
 11 12  1  0  0  0  0
 11 13  1  0  0  0  0
 11 17  1  0  0  0  0
  9 10  1  0  0  0  0
  9 11  1  0  0  0  0
  9 19  1  0  0  0  0
  7  8  1  0  0  0  0
  7  9  1  0  0  0  0
 23 24  1  0  0  0  0
 23 25  1  0  0  0  0
 23 26  1  0  0  0  0
 21 22  1  0  0  0  0
 21 23  1  0  0  0  0
M  END
$$$$
default_name
  -OEChem-01062215323D

 26 25  0     1  0  0  0  0  0999 V2000
   -2.8882   -3.2497    1.2537 H   0  0  0  0  0  0  0  0  0  0  0  0
   -2.8032   -2.3157    0.7017 C   0  0  0  0  0  0  0  0  0  0  0  0
   -3.5012   -1.5857    1.1067 H   0  0  0  0  0  0  0  0  0  0  0  0
   -3.0182   -2.4907   -0.3513 H   0  0  0  0  0  0  0  0  0  0  0  0
   -1.3942   -1.7897    0.8407 C   0  0  0  0  0  0  0  0  0  0  0  0
   -0.5672   -2.4077    1.5007 O   0  0  0  0  0  0  0  0  0  0  0  0
   -1.1222   -0.6447    0.2217 N   0  0  0  0  0  0  0  0  0  0  0  0
   -1.8592   -0.1777   -0.2863 H   0  0  0  0  0  0  0  0  0  0  0  0
    0.1838    0.0363    0.2367 C   0  0  1  0  0  0  0  0  0  0  0  0
    0.6838   -0.1472   -0.7136 H   0  0  0  0  0  0  0  0  0  0  0  0
    0.0329    1.5623    0.4043 C   0  0  1  0  0  0  0  0  0  0  0  0
    1.0288    2.0049    0.4103 H   0  0  0  0  0  0  0  0  0  0  0  0
   -0.7678    2.2352   -0.7089 C   0  0  0  0  0  0  0  0  0  0  0  0
   -1.8111    1.9193   -0.6709 H   0  0  0  0  0  0  0  0  0  0  0  0
   -0.7175    3.3178   -0.5980 H   0  0  0  0  0  0  0  0  0  0  0  0
   -0.3503    1.9608   -1.6780 H   0  0  0  0  0  0  0  0  0  0  0  0
   -0.5995    1.8766    1.6203 O   0  0  0  0  0  0  0  0  0  0  0  0
   -0.7588    2.8225    1.6368 H   0  0  0  0  0  0  0  0  0  0  0  0
    1.0828   -0.5300    1.3427 C   0  0  0  0  0  0  0  0  0  0  0  0
    2.2100   -0.0754    1.5374 O   0  0  0  0  0  0  0  0  0  0  0  0
    0.5738   -1.5139    2.0974 N   0  0  0  0  0  0  0  0  0  0  0  0
   -0.3619   -1.8294    1.9015 H   0  0  0  0  0  0  0  0  0  0  0  0
    1.2986   -2.1598    3.1906 C   0  0  0  0  0  0  0  0  0  0  0  0
    1.6675   -1.4039    3.8866 H   0  0  0  0  0  0  0  0  0  0  0  0
    0.6457   -2.8506    3.7245 H   0  0  0  0  0  0  0  0  0  0  0  0
    2.1543   -2.7081    2.7908 H   0  0  0  0  0  0  0  0  0  0  0  0
  5  6  2  0  0  0  0
  5  7  1  0  0  0  0
  2  3  1  0  0  0  0
  2  4  1  0  0  0  0
  2  5  1  0  0  0  0
  1  2  1  0  0  0  0
 19 20  2  0  0  0  0
 19 21  1  0  0  0  0
 17 18  1  0  0  0  0
 13 14  1  0  0  0  0
 13 15  1  0  0  0  0
 13 16  1  0  0  0  0
 11 12  1  0  0  0  0
 11 13  1  0  0  0  0
 11 17  1  0  0  0  0
  9 10  1  0  0  0  0
  9 11  1  0  0  0  0
  9 19  1  0  0  0  0
  7  8  1  0  0  0  0
  7  9  1  0  0  0  0
 23 24  1  0  0  0  0
 23 25  1  0  0  0  0
 23 26  1  0  0  0  0
 21 22  1  0  0  0  0
 21 23  1  0  0  0  0
M  END
$$$$
default_name
  -OEChem-01062215323D

 26 25  0     1  0  0  0  0  0999 V2000
   -2.8882   -3.2497    1.2537 H   0  0  0  0  0  0  0  0  0  0  0  0
   -2.8032   -2.3157    0.7017 C   0  0  0  0  0  0  0  0  0  0  0  0
   -3.5012   -1.5857    1.1067 H   0  0  0  0  0  0  0  0  0  0  0  0
   -3.0182   -2.4907   -0.3513 H   0  0  0  0  0  0  0  0  0  0  0  0
   -1.3942   -1.7897    0.8407 C   0  0  0  0  0  0  0  0  0  0  0  0
   -0.5672   -2.4077    1.5007 O   0  0  0  0  0  0  0  0  0  0  0  0
   -1.1222   -0.6447    0.2217 N   0  0  0  0  0  0  0  0  0  0  0  0
   -1.8592   -0.1777   -0.2863 H   0  0  0  0  0  0  0  0  0  0  0  0
    0.1838    0.0363    0.2367 C   0  0  1  0  0  0  0  0  0  0  0  0
    0.6838   -0.1472   -0.7136 H   0  0  0  0  0  0  0  0  0  0  0  0
    0.0329    1.5623    0.4043 C   0  0  1  0  0  0  0  0  0  0  0  0
    1.0288    2.0049    0.4103 H   0  0  0  0  0  0  0  0  0  0  0  0
   -0.7678    2.2352   -0.7089 C   0  0  0  0  0  0  0  0  0  0  0  0
   -1.8111    1.9193   -0.6709 H   0  0  0  0  0  0  0  0  0  0  0  0
   -0.7175    3.3178   -0.5980 H   0  0  0  0  0  0  0  0  0  0  0  0
   -0.3503    1.9608   -1.6780 H   0  0  0  0  0  0  0  0  0  0  0  0
   -0.5995    1.8766    1.6203 O   0  0  0  0  0  0  0  0  0  0  0  0
   -0.7588    2.8225    1.6368 H   0  0  0  0  0  0  0  0  0  0  0  0
    1.0828   -0.5300    1.3427 C   0  0  0  0  0  0  0  0  0  0  0  0
    2.0808    0.0820    1.7231 O   0  0  0  0  0  0  0  0  0  0  0  0
    0.7148   -1.6975    1.8888 N   0  0  0  0  0  0  0  0  0  0  0  0
   -0.1228   -2.1400    1.5481 H   0  0  0  0  0  0  0  0  0  0  0  0
    1.4600   -2.3703    2.9517 C   0  0  0  0  0  0  0  0  0  0  0  0
    1.6175   -1.6823    3.7847 H   0  0  0  0  0  0  0  0  0  0  0  0
    0.9124   -3.2436    3.3065 H   0  0  0  0  0  0  0  0  0  0  0  0
    2.4354   -2.6847    2.5743 H   0  0  0  0  0  0  0  0  0  0  0  0
  5  6  2  0  0  0  0
  5  7  1  0  0  0  0
  2  3  1  0  0  0  0
  2  4  1  0  0  0  0
  2  5  1  0  0  0  0
  1  2  1  0  0  0  0
 19 20  2  0  0  0  0
 19 21  1  0  0  0  0
 17 18  1  0  0  0  0
 13 14  1  0  0  0  0
 13 15  1  0  0  0  0
 13 16  1  0  0  0  0
 11 12  1  0  0  0  0
 11 13  1  0  0  0  0
 11 17  1  0  0  0  0
  9 10  1  0  0  0  0
  9 11  1  0  0  0  0
  9 19  1  0  0  0  0
  7  8  1  0  0  0  0
  7  9  1  0  0  0  0
 23 24  1  0  0  0  0
 23 25  1  0  0  0  0
 23 26  1  0  0  0  0
 21 22  1  0  0  0  0
 21 23  1  0  0  0  0
M  END
$$$$
default_name
  -OEChem-01062215323D

 26 25  0     1  0  0  0  0  0999 V2000
   -2.8882   -3.2497    1.2537 H   0  0  0  0  0  0  0  0  0  0  0  0
   -2.8032   -2.3157    0.7017 C   0  0  0  0  0  0  0  0  0  0  0  0
   -3.5012   -1.5857    1.1067 H   0  0  0  0  0  0  0  0  0  0  0  0
   -3.0182   -2.4907   -0.3513 H   0  0  0  0  0  0  0  0  0  0  0  0
   -1.3942   -1.7897    0.8407 C   0  0  0  0  0  0  0  0  0  0  0  0
   -0.5672   -2.4077    1.5007 O   0  0  0  0  0  0  0  0  0  0  0  0
   -1.1222   -0.6447    0.2217 N   0  0  0  0  0  0  0  0  0  0  0  0
   -1.8592   -0.1777   -0.2863 H   0  0  0  0  0  0  0  0  0  0  0  0
    0.1838    0.0363    0.2367 C   0  0  1  0  0  0  0  0  0  0  0  0
    0.6838   -0.1472   -0.7136 H   0  0  0  0  0  0  0  0  0  0  0  0
    0.0329    1.5623    0.4043 C   0  0  1  0  0  0  0  0  0  0  0  0
    1.0288    2.0049    0.4103 H   0  0  0  0  0  0  0  0  0  0  0  0
   -0.7678    2.2352   -0.7089 C   0  0  0  0  0  0  0  0  0  0  0  0
   -1.8111    1.9193   -0.6709 H   0  0  0  0  0  0  0  0  0  0  0  0
   -0.7175    3.3178   -0.5980 H   0  0  0  0  0  0  0  0  0  0  0  0
   -0.3503    1.9608   -1.6780 H   0  0  0  0  0  0  0  0  0  0  0  0
   -0.5995    1.8766    1.6203 O   0  0  0  0  0  0  0  0  0  0  0  0
   -0.7588    2.8225    1.6368 H   0  0  0  0  0  0  0  0  0  0  0  0
    1.0828   -0.5300    1.3427 C   0  0  0  0  0  0  0  0  0  0  0  0
    1.9088    0.1817    1.9139 O   0  0  0  0  0  0  0  0  0  0  0  0
    0.9053   -1.8169    1.6728 N   0  0  0  0  0  0  0  0  0  0  0  0
    0.1998   -2.3418    1.1825 H   0  0  0  0  0  0  0  0  0  0  0  0
    1.6780   -2.5072    2.7043 C   0  0  0  0  0  0  0  0  0  0  0  0
    1.6309   -1.9452    3.6392 H   0  0  0  0  0  0  0  0  0  0  0  0
    1.2833   -3.5100    2.8686 H   0  0  0  0  0  0  0  0  0  0  0  0
    2.7232   -2.5769    2.3956 H   0  0  0  0  0  0  0  0  0  0  0  0
  5  6  2  0  0  0  0
  5  7  1  0  0  0  0
  2  3  1  0  0  0  0
  2  4  1  0  0  0  0
  2  5  1  0  0  0  0
  1  2  1  0  0  0  0
 19 20  2  0  0  0  0
 19 21  1  0  0  0  0
 17 18  1  0  0  0  0
 13 14  1  0  0  0  0
 13 15  1  0  0  0  0
 13 16  1  0  0  0  0
 11 12  1  0  0  0  0
 11 13  1  0  0  0  0
 11 17  1  0  0  0  0
  9 10  1  0  0  0  0
  9 11  1  0  0  0  0
  9 19  1  0  0  0  0
  7  8  1  0  0  0  0
  7  9  1  0  0  0  0
 23 24  1  0  0  0  0
 23 25  1  0  0  0  0
 23 26  1  0  0  0  0
 21 22  1  0  0  0  0
 21 23  1  0  0  0  0
M  END
$$$$
default_name
  -OEChem-01062215323D

 26 25  0     1  0  0  0  0  0999 V2000
   -2.8882   -3.2497    1.2537 H   0  0  0  0  0  0  0  0  0  0  0  0
   -2.8032   -2.3157    0.7017 C   0  0  0  0  0  0  0  0  0  0  0  0
   -3.5012   -1.5857    1.1067 H   0  0  0  0  0  0  0  0  0  0  0  0
   -3.0182   -2.4907   -0.3513 H   0  0  0  0  0  0  0  0  0  0  0  0
   -1.3942   -1.7897    0.8407 C   0  0  0  0  0  0  0  0  0  0  0  0
   -0.5672   -2.4077    1.5007 O   0  0  0  0  0  0  0  0  0  0  0  0
   -1.1222   -0.6447    0.2217 N   0  0  0  0  0  0  0  0  0  0  0  0
   -1.8592   -0.1777   -0.2863 H   0  0  0  0  0  0  0  0  0  0  0  0
    0.1838    0.0363    0.2367 C   0  0  1  0  0  0  0  0  0  0  0  0
    0.6838   -0.1472   -0.7136 H   0  0  0  0  0  0  0  0  0  0  0  0
    0.0329    1.5623    0.4043 C   0  0  1  0  0  0  0  0  0  0  0  0
    1.0288    2.0049    0.4103 H   0  0  0  0  0  0  0  0  0  0  0  0
   -0.7678    2.2352   -0.7089 C   0  0  0  0  0  0  0  0  0  0  0  0
   -1.8111    1.9193   -0.6709 H   0  0  0  0  0  0  0  0  0  0  0  0
   -0.7175    3.3178   -0.5980 H   0  0  0  0  0  0  0  0  0  0  0  0
   -0.3503    1.9608   -1.6780 H   0  0  0  0  0  0  0  0  0  0  0  0
   -0.5995    1.8766    1.6203 O   0  0  0  0  0  0  0  0  0  0  0  0
   -0.7588    2.8225    1.6368 H   0  0  0  0  0  0  0  0  0  0  0  0
    1.0828   -0.5300    1.3427 C   0  0  0  0  0  0  0  0  0  0  0  0
    1.7059    0.2170    2.0969 O   0  0  0  0  0  0  0  0  0  0  0  0
    1.1321   -1.8640    1.4644 N   0  0  0  0  0  0  0  0  0  0  0  0
    0.5841   -2.4210    0.8296 H   0  0  0  0  0  0  0  0  0  0  0  0
    1.9378   -2.5612    2.4655 C   0  0  0  0  0  0  0  0  0  0  0  0
    1.7068   -2.1745    3.4601 H   0  0  0  0  0  0  0  0  0  0  0  0
    1.7331   -3.6317    2.4407 H   0  0  0  0  0  0  0  0  0  0  0  0
    2.9982   -2.3918    2.2669 H   0  0  0  0  0  0  0  0  0  0  0  0
  5  6  2  0  0  0  0
  5  7  1  0  0  0  0
  2  3  1  0  0  0  0
  2  4  1  0  0  0  0
  2  5  1  0  0  0  0
  1  2  1  0  0  0  0
 19 20  2  0  0  0  0
 19 21  1  0  0  0  0
 17 18  1  0  0  0  0
 13 14  1  0  0  0  0
 13 15  1  0  0  0  0
 13 16  1  0  0  0  0
 11 12  1  0  0  0  0
 11 13  1  0  0  0  0
 11 17  1  0  0  0  0
  9 10  1  0  0  0  0
  9 11  1  0  0  0  0
  9 19  1  0  0  0  0
  7  8  1  0  0  0  0
  7  9  1  0  0  0  0
 23 24  1  0  0  0  0
 23 25  1  0  0  0  0
 23 26  1  0  0  0  0
 21 22  1  0  0  0  0
 21 23  1  0  0  0  0
M  END
$$$$
default_name
  -OEChem-01062215323D

 26 25  0     1  0  0  0  0  0999 V2000
   -2.8882   -3.2497    1.2537 H   0  0  0  0  0  0  0  0  0  0  0  0
   -2.8032   -2.3157    0.7017 C   0  0  0  0  0  0  0  0  0  0  0  0
   -3.5012   -1.5857    1.1067 H   0  0  0  0  0  0  0  0  0  0  0  0
   -3.0182   -2.4907   -0.3513 H   0  0  0  0  0  0  0  0  0  0  0  0
   -1.3942   -1.7897    0.8407 C   0  0  0  0  0  0  0  0  0  0  0  0
   -0.5672   -2.4077    1.5007 O   0  0  0  0  0  0  0  0  0  0  0  0
   -1.1222   -0.6447    0.2217 N   0  0  0  0  0  0  0  0  0  0  0  0
   -1.8592   -0.1777   -0.2863 H   0  0  0  0  0  0  0  0  0  0  0  0
    0.1838    0.0363    0.2367 C   0  0  1  0  0  0  0  0  0  0  0  0
    0.6838   -0.1472   -0.7136 H   0  0  0  0  0  0  0  0  0  0  0  0
    0.0329    1.5623    0.4043 C   0  0  1  0  0  0  0  0  0  0  0  0
    1.0288    2.0049    0.4103 H   0  0  0  0  0  0  0  0  0  0  0  0
   -0.7678    2.2352   -0.7089 C   0  0  0  0  0  0  0  0  0  0  0  0
   -1.8111    1.9193   -0.6709 H   0  0  0  0  0  0  0  0  0  0  0  0
   -0.7175    3.3178   -0.5980 H   0  0  0  0  0  0  0  0  0  0  0  0
   -0.3503    1.9608   -1.6780 H   0  0  0  0  0  0  0  0  0  0  0  0
   -0.5995    1.8766    1.6203 O   0  0  0  0  0  0  0  0  0  0  0  0
   -0.7588    2.8225    1.6368 H   0  0  0  0  0  0  0  0  0  0  0  0
    1.0828   -0.5300    1.3427 C   0  0  0  0  0  0  0  0  0  0  0  0
    1.4858    0.1855    2.2597 O   0  0  0  0  0  0  0  0  0  0  0  0
    1.3799   -1.8354    1.2775 N   0  0  0  0  0  0  0  0  0  0  0  0
    1.0038   -2.3722    0.5135 H   0  0  0  0  0  0  0  0  0  0  0  0
    2.2216   -2.5287    2.2515 C   0  0  0  0  0  0  0  0  0  0  0  0
    1.8400   -2.3547    3.2595 H   0  0  0  0  0  0  0  0  0  0  0  0
    2.2312   -3.6004    2.0518 H   0  0  0  0  0  0  0  0  0  0  0  0
    3.2416   -2.1423    2.1968 H   0  0  0  0  0  0  0  0  0  0  0  0
  5  6  2  0  0  0  0
  5  7  1  0  0  0  0
  2  3  1  0  0  0  0
  2  4  1  0  0  0  0
  2  5  1  0  0  0  0
  1  2  1  0  0  0  0
 19 20  2  0  0  0  0
 19 21  1  0  0  0  0
 17 18  1  0  0  0  0
 13 14  1  0  0  0  0
 13 15  1  0  0  0  0
 13 16  1  0  0  0  0
 11 12  1  0  0  0  0
 11 13  1  0  0  0  0
 11 17  1  0  0  0  0
  9 10  1  0  0  0  0
  9 11  1  0  0  0  0
  9 19  1  0  0  0  0
  7  8  1  0  0  0  0
  7  9  1  0  0  0  0
 23 24  1  0  0  0  0
 23 25  1  0  0  0  0
 23 26  1  0  0  0  0
 21 22  1  0  0  0  0
 21 23  1  0  0  0  0
M  END
$$$$
default_name
  -OEChem-01062215323D

 26 25  0     1  0  0  0  0  0999 V2000
   -2.8882   -3.2497    1.2537 H   0  0  0  0  0  0  0  0  0  0  0  0
   -2.8032   -2.3157    0.7017 C   0  0  0  0  0  0  0  0  0  0  0  0
   -3.5012   -1.5857    1.1067 H   0  0  0  0  0  0  0  0  0  0  0  0
   -3.0182   -2.4907   -0.3513 H   0  0  0  0  0  0  0  0  0  0  0  0
   -1.3942   -1.7897    0.8407 C   0  0  0  0  0  0  0  0  0  0  0  0
   -0.5672   -2.4077    1.5007 O   0  0  0  0  0  0  0  0  0  0  0  0
   -1.1222   -0.6447    0.2217 N   0  0  0  0  0  0  0  0  0  0  0  0
   -1.8592   -0.1777   -0.2863 H   0  0  0  0  0  0  0  0  0  0  0  0
    0.1838    0.0363    0.2367 C   0  0  1  0  0  0  0  0  0  0  0  0
    0.6838   -0.1472   -0.7136 H   0  0  0  0  0  0  0  0  0  0  0  0
    0.0329    1.5623    0.4043 C   0  0  1  0  0  0  0  0  0  0  0  0
    1.0288    2.0049    0.4103 H   0  0  0  0  0  0  0  0  0  0  0  0
   -0.7678    2.2352   -0.7089 C   0  0  0  0  0  0  0  0  0  0  0  0
   -1.8111    1.9193   -0.6709 H   0  0  0  0  0  0  0  0  0  0  0  0
   -0.7175    3.3178   -0.5980 H   0  0  0  0  0  0  0  0  0  0  0  0
   -0.3503    1.9608   -1.6780 H   0  0  0  0  0  0  0  0  0  0  0  0
   -0.5995    1.8766    1.6203 O   0  0  0  0  0  0  0  0  0  0  0  0
   -0.7588    2.8225    1.6368 H   0  0  0  0  0  0  0  0  0  0  0  0
    1.0828   -0.5300    1.3427 C   0  0  0  0  0  0  0  0  0  0  0  0
    1.2635    0.0893    2.3911 O   0  0  0  0  0  0  0  0  0  0  0  0
    1.6319   -1.7332    1.1251 N   0  0  0  0  0  0  0  0  0  0  0  0
    1.4303   -2.1989    0.2556 H   0  0  0  0  0  0  0  0  0  0  0  0
    2.5102   -2.4118    2.0768 C   0  0  0  0  0  0  0  0  0  0  0  0
    2.0215   -2.4734    3.0512 H   0  0  0  0  0  0  0  0  0  0  0  0
    2.7437   -3.4181    1.7286 H   0  0  0  0  0  0  0  0  0  0  0  0
    3.4367   -1.8451    2.1903 H   0  0  0  0  0  0  0  0  0  0  0  0
  5  6  2  0  0  0  0
  5  7  1  0  0  0  0
  2  3  1  0  0  0  0
  2  4  1  0  0  0  0
  2  5  1  0  0  0  0
  1  2  1  0  0  0  0
 19 20  2  0  0  0  0
 19 21  1  0  0  0  0
 17 18  1  0  0  0  0
 13 14  1  0  0  0  0
 13 15  1  0  0  0  0
 13 16  1  0  0  0  0
 11 12  1  0  0  0  0
 11 13  1  0  0  0  0
 11 17  1  0  0  0  0
  9 10  1  0  0  0  0
  9 11  1  0  0  0  0
  9 19  1  0  0  0  0
  7  8  1  0  0  0  0
  7  9  1  0  0  0  0
 23 24  1  0  0  0  0
 23 25  1  0  0  0  0
 23 26  1  0  0  0  0
 21 22  1  0  0  0  0
 21 23  1  0  0  0  0
M  END
$$$$
default_name
  -OEChem-01062215323D

 26 25  0     1  0  0  0  0  0999 V2000
   -2.8882   -3.2497    1.2537 H   0  0  0  0  0  0  0  0  0  0  0  0
   -2.8032   -2.3157    0.7017 C   0  0  0  0  0  0  0  0  0  0  0  0
   -3.5012   -1.5857    1.1067 H   0  0  0  0  0  0  0  0  0  0  0  0
   -3.0182   -2.4907   -0.3513 H   0  0  0  0  0  0  0  0  0  0  0  0
   -1.3942   -1.7897    0.8407 C   0  0  0  0  0  0  0  0  0  0  0  0
   -0.5672   -2.4077    1.5007 O   0  0  0  0  0  0  0  0  0  0  0  0
   -1.1222   -0.6447    0.2217 N   0  0  0  0  0  0  0  0  0  0  0  0
   -1.8592   -0.1777   -0.2863 H   0  0  0  0  0  0  0  0  0  0  0  0
    0.1838    0.0363    0.2367 C   0  0  1  0  0  0  0  0  0  0  0  0
    0.6838   -0.1472   -0.7136 H   0  0  0  0  0  0  0  0  0  0  0  0
    0.0329    1.5623    0.4043 C   0  0  1  0  0  0  0  0  0  0  0  0
    1.0288    2.0049    0.4103 H   0  0  0  0  0  0  0  0  0  0  0  0
   -0.7678    2.2352   -0.7089 C   0  0  0  0  0  0  0  0  0  0  0  0
   -1.8111    1.9193   -0.6709 H   0  0  0  0  0  0  0  0  0  0  0  0
   -0.7175    3.3178   -0.5980 H   0  0  0  0  0  0  0  0  0  0  0  0
   -0.3503    1.9608   -1.6780 H   0  0  0  0  0  0  0  0  0  0  0  0
   -0.5995    1.8766    1.6203 O   0  0  0  0  0  0  0  0  0  0  0  0
   -0.7588    2.8225    1.6368 H   0  0  0  0  0  0  0  0  0  0  0  0
    1.0828   -0.5300    1.3427 C   0  0  0  0  0  0  0  0  0  0  0  0
    1.0542   -0.0651    2.4821 O   0  0  0  0  0  0  0  0  0  0  0  0
    1.8707   -1.5644    1.0174 N   0  0  0  0  0  0  0  0  0  0  0  0
    1.8345   -1.9126    0.0735 H   0  0  0  0  0  0  0  0  0  0  0  0
    2.7838   -2.2186    1.9534 C   0  0  0  0  0  0  0  0  0  0  0  0
    2.2389   -2.5227    2.8493 H   0  0  0  0  0  0  0  0  0  0  0  0
    3.2356   -3.0974    1.4930 H   0  0  0  0  0  0  0  0  0  0  0  0
    3.5705   -1.5207    2.2478 H   0  0  0  0  0  0  0  0  0  0  0  0
  5  6  2  0  0  0  0
  5  7  1  0  0  0  0
  2  3  1  0  0  0  0
  2  4  1  0  0  0  0
  2  5  1  0  0  0  0
  1  2  1  0  0  0  0
 19 20  2  0  0  0  0
 19 21  1  0  0  0  0
 17 18  1  0  0  0  0
 13 14  1  0  0  0  0
 13 15  1  0  0  0  0
 13 16  1  0  0  0  0
 11 12  1  0  0  0  0
 11 13  1  0  0  0  0
 11 17  1  0  0  0  0
  9 10  1  0  0  0  0
  9 11  1  0  0  0  0
  9 19  1  0  0  0  0
  7  8  1  0  0  0  0
  7  9  1  0  0  0  0
 23 24  1  0  0  0  0
 23 25  1  0  0  0  0
 23 26  1  0  0  0  0
 21 22  1  0  0  0  0
 21 23  1  0  0  0  0
M  END
$$$$
default_name
  -OEChem-01062215323D

 26 25  0     1  0  0  0  0  0999 V2000
   -2.8882   -3.2497    1.2537 H   0  0  0  0  0  0  0  0  0  0  0  0
   -2.8032   -2.3157    0.7017 C   0  0  0  0  0  0  0  0  0  0  0  0
   -3.5012   -1.5857    1.1067 H   0  0  0  0  0  0  0  0  0  0  0  0
   -3.0182   -2.4907   -0.3513 H   0  0  0  0  0  0  0  0  0  0  0  0
   -1.3942   -1.7897    0.8407 C   0  0  0  0  0  0  0  0  0  0  0  0
   -0.5672   -2.4077    1.5007 O   0  0  0  0  0  0  0  0  0  0  0  0
   -1.1222   -0.6447    0.2217 N   0  0  0  0  0  0  0  0  0  0  0  0
   -1.8592   -0.1777   -0.2863 H   0  0  0  0  0  0  0  0  0  0  0  0
    0.1838    0.0363    0.2367 C   0  0  1  0  0  0  0  0  0  0  0  0
    0.6838   -0.1472   -0.7136 H   0  0  0  0  0  0  0  0  0  0  0  0
    0.0329    1.5623    0.4043 C   0  0  1  0  0  0  0  0  0  0  0  0
    1.0288    2.0049    0.4103 H   0  0  0  0  0  0  0  0  0  0  0  0
   -0.7678    2.2352   -0.7089 C   0  0  0  0  0  0  0  0  0  0  0  0
   -1.8111    1.9193   -0.6709 H   0  0  0  0  0  0  0  0  0  0  0  0
   -0.7175    3.3178   -0.5980 H   0  0  0  0  0  0  0  0  0  0  0  0
   -0.3503    1.9608   -1.6780 H   0  0  0  0  0  0  0  0  0  0  0  0
   -0.5995    1.8766    1.6203 O   0  0  0  0  0  0  0  0  0  0  0  0
   -0.7588    2.8225    1.6368 H   0  0  0  0  0  0  0  0  0  0  0  0
    1.0828   -0.5300    1.3427 C   0  0  0  0  0  0  0  0  0  0  0  0
    0.8722   -0.2671    2.5267 O   0  0  0  0  0  0  0  0  0  0  0  0
    2.0802   -1.3404    0.9619 N   0  0  0  0  0  0  0  0  0  0  0  0
    2.1890   -1.5331   -0.0202 H   0  0  0  0  0  0  0  0  0  0  0  0
    3.0238   -1.9621    1.8896 C   0  0  0  0  0  0  0  0  0  0  0  0
    2.4773   -2.4990    2.6676 H   0  0  0  0  0  0  0  0  0  0  0  0
    3.6734   -2.6601    1.3611 H   0  0  0  0  0  0  0  0  0  0  0  0
    3.6336   -1.1911    2.3653 H   0  0  0  0  0  0  0  0  0  0  0  0
  5  6  2  0  0  0  0
  5  7  1  0  0  0  0
  2  3  1  0  0  0  0
  2  4  1  0  0  0  0
  2  5  1  0  0  0  0
  1  2  1  0  0  0  0
 19 20  2  0  0  0  0
 19 21  1  0  0  0  0
 17 18  1  0  0  0  0
 13 14  1  0  0  0  0
 13 15  1  0  0  0  0
 13 16  1  0  0  0  0
 11 12  1  0  0  0  0
 11 13  1  0  0  0  0
 11 17  1  0  0  0  0
  9 10  1  0  0  0  0
  9 11  1  0  0  0  0
  9 19  1  0  0  0  0
  7  8  1  0  0  0  0
  7  9  1  0  0  0  0
 23 24  1  0  0  0  0
 23 25  1  0  0  0  0
 23 26  1  0  0  0  0
 21 22  1  0  0  0  0
 21 23  1  0  0  0  0
M  END
$$$$
default_name
  -OEChem-01062215323D

 26 25  0     1  0  0  0  0  0999 V2000
   -2.8882   -3.2497    1.2537 H   0  0  0  0  0  0  0  0  0  0  0  0
   -2.8032   -2.3157    0.7017 C   0  0  0  0  0  0  0  0  0  0  0  0
   -3.5012   -1.5857    1.1067 H   0  0  0  0  0  0  0  0  0  0  0  0
   -3.0182   -2.4907   -0.3513 H   0  0  0  0  0  0  0  0  0  0  0  0
   -1.3942   -1.7897    0.8407 C   0  0  0  0  0  0  0  0  0  0  0  0
   -0.5672   -2.4077    1.5007 O   0  0  0  0  0  0  0  0  0  0  0  0
   -1.1222   -0.6447    0.2217 N   0  0  0  0  0  0  0  0  0  0  0  0
   -1.8592   -0.1777   -0.2863 H   0  0  0  0  0  0  0  0  0  0  0  0
    0.1838    0.0363    0.2367 C   0  0  1  0  0  0  0  0  0  0  0  0
    0.6838   -0.1472   -0.7136 H   0  0  0  0  0  0  0  0  0  0  0  0
    0.0329    1.5623    0.4043 C   0  0  1  0  0  0  0  0  0  0  0  0
    1.0288    2.0049    0.4103 H   0  0  0  0  0  0  0  0  0  0  0  0
   -0.7678    2.2352   -0.7089 C   0  0  0  0  0  0  0  0  0  0  0  0
   -1.8111    1.9193   -0.6709 H   0  0  0  0  0  0  0  0  0  0  0  0
   -0.7175    3.3178   -0.5980 H   0  0  0  0  0  0  0  0  0  0  0  0
   -0.3503    1.9608   -1.6780 H   0  0  0  0  0  0  0  0  0  0  0  0
   -0.5995    1.8766    1.6203 O   0  0  0  0  0  0  0  0  0  0  0  0
   -0.7588    2.8225    1.6368 H   0  0  0  0  0  0  0  0  0  0  0  0
    1.0828   -0.5300    1.3427 C   0  0  0  0  0  0  0  0  0  0  0  0
    0.7297   -0.5030    2.5217 O   0  0  0  0  0  0  0  0  0  0  0  0
    2.2460   -1.0765    0.9622 N   0  0  0  0  0  0  0  0  0  0  0  0
    2.4695   -1.0861   -0.0193 H   0  0  0  0  0  0  0  0  0  0  0  0
    3.2138   -1.6600    1.8899 C   0  0  0  0  0  0  0  0  0  0  0  0
    2.7206   -2.4041    2.5185 H   0  0  0  0  0  0  0  0  0  0  0  0
    4.0272   -2.1360    1.3419 H   0  0  0  0  0  0  0  0  0  0  0  0
    3.6218   -0.8788    2.5348 H   0  0  0  0  0  0  0  0  0  0  0  0
  5  6  2  0  0  0  0
  5  7  1  0  0  0  0
  2  3  1  0  0  0  0
  2  4  1  0  0  0  0
  2  5  1  0  0  0  0
  1  2  1  0  0  0  0
 19 20  2  0  0  0  0
 19 21  1  0  0  0  0
 17 18  1  0  0  0  0
 13 14  1  0  0  0  0
 13 15  1  0  0  0  0
 13 16  1  0  0  0  0
 11 12  1  0  0  0  0
 11 13  1  0  0  0  0
 11 17  1  0  0  0  0
  9 10  1  0  0  0  0
  9 11  1  0  0  0  0
  9 19  1  0  0  0  0
  7  8  1  0  0  0  0
  7  9  1  0  0  0  0
 23 24  1  0  0  0  0
 23 25  1  0  0  0  0
 23 26  1  0  0  0  0
 21 22  1  0  0  0  0
 21 23  1  0  0  0  0
M  END
$$$$
default_name
  -OEChem-01062215323D

 26 25  0     1  0  0  0  0  0999 V2000
   -2.8882   -3.2497    1.2537 H   0  0  0  0  0  0  0  0  0  0  0  0
   -2.8032   -2.3157    0.7017 C   0  0  0  0  0  0  0  0  0  0  0  0
   -3.5012   -1.5857    1.1067 H   0  0  0  0  0  0  0  0  0  0  0  0
   -3.0182   -2.4907   -0.3513 H   0  0  0  0  0  0  0  0  0  0  0  0
   -1.3942   -1.7897    0.8407 C   0  0  0  0  0  0  0  0  0  0  0  0
   -0.5672   -2.4077    1.5007 O   0  0  0  0  0  0  0  0  0  0  0  0
   -1.1222   -0.6447    0.2217 N   0  0  0  0  0  0  0  0  0  0  0  0
   -1.8592   -0.1777   -0.2863 H   0  0  0  0  0  0  0  0  0  0  0  0
    0.1838    0.0363    0.2367 C   0  0  1  0  0  0  0  0  0  0  0  0
    0.6838   -0.1472   -0.7136 H   0  0  0  0  0  0  0  0  0  0  0  0
    0.0329    1.5623    0.4043 C   0  0  1  0  0  0  0  0  0  0  0  0
    1.0288    2.0049    0.4103 H   0  0  0  0  0  0  0  0  0  0  0  0
   -0.7678    2.2352   -0.7089 C   0  0  0  0  0  0  0  0  0  0  0  0
   -1.8111    1.9193   -0.6709 H   0  0  0  0  0  0  0  0  0  0  0  0
   -0.7175    3.3178   -0.5980 H   0  0  0  0  0  0  0  0  0  0  0  0
   -0.3503    1.9608   -1.6780 H   0  0  0  0  0  0  0  0  0  0  0  0
   -0.5995    1.8766    1.6203 O   0  0  0  0  0  0  0  0  0  0  0  0
   -0.7588    2.8225    1.6368 H   0  0  0  0  0  0  0  0  0  0  0  0
    1.0828   -0.5300    1.3427 C   0  0  0  0  0  0  0  0  0  0  0  0
    0.6367   -0.7566    2.4674 O   0  0  0  0  0  0  0  0  0  0  0  0
    2.3569   -0.7907    1.0184 N   0  0  0  0  0  0  0  0  0  0  0  0
    2.6570   -0.6022    0.0761 H   0  0  0  0  0  0  0  0  0  0  0  0
    3.3410   -1.3326    1.9541 C   0  0  0  0  0  0  0  0  0  0  0  0
    2.9522   -2.2443    2.4121 H   0  0  0  0  0  0  0  0  0  0  0  0
    4.2730   -1.5607    1.4367 H   0  0  0  0  0  0  0  0  0  0  0  0
    3.5359   -0.6050    2.7448 H   0  0  0  0  0  0  0  0  0  0  0  0
  5  6  2  0  0  0  0
  5  7  1  0  0  0  0
  2  3  1  0  0  0  0
  2  4  1  0  0  0  0
  2  5  1  0  0  0  0
  1  2  1  0  0  0  0
 19 20  2  0  0  0  0
 19 21  1  0  0  0  0
 17 18  1  0  0  0  0
 13 14  1  0  0  0  0
 13 15  1  0  0  0  0
 13 16  1  0  0  0  0
 11 12  1  0  0  0  0
 11 13  1  0  0  0  0
 11 17  1  0  0  0  0
  9 10  1  0  0  0  0
  9 11  1  0  0  0  0
  9 19  1  0  0  0  0
  7  8  1  0  0  0  0
  7  9  1  0  0  0  0
 23 24  1  0  0  0  0
 23 25  1  0  0  0  0
 23 26  1  0  0  0  0
 21 22  1  0  0  0  0
 21 23  1  0  0  0  0
M  END
$$$$
default_name
  -OEChem-01062215323D

 26 25  0     1  0  0  0  0  0999 V2000
   -2.8882   -3.2497    1.2537 H   0  0  0  0  0  0  0  0  0  0  0  0
   -2.8032   -2.3157    0.7017 C   0  0  0  0  0  0  0  0  0  0  0  0
   -3.5012   -1.5857    1.1067 H   0  0  0  0  0  0  0  0  0  0  0  0
   -3.0182   -2.4907   -0.3513 H   0  0  0  0  0  0  0  0  0  0  0  0
   -1.3942   -1.7897    0.8407 C   0  0  0  0  0  0  0  0  0  0  0  0
   -0.5672   -2.4077    1.5007 O   0  0  0  0  0  0  0  0  0  0  0  0
   -1.1222   -0.6447    0.2217 N   0  0  0  0  0  0  0  0  0  0  0  0
   -1.8592   -0.1777   -0.2863 H   0  0  0  0  0  0  0  0  0  0  0  0
    0.1838    0.0363    0.2367 C   0  0  1  0  0  0  0  0  0  0  0  0
    0.6838   -0.1472   -0.7136 H   0  0  0  0  0  0  0  0  0  0  0  0
    0.0329    1.5623    0.4043 C   0  0  1  0  0  0  0  0  0  0  0  0
    1.0288    2.0049    0.4103 H   0  0  0  0  0  0  0  0  0  0  0  0
   -0.7678    2.2352   -0.7089 C   0  0  0  0  0  0  0  0  0  0  0  0
   -1.8111    1.9193   -0.6709 H   0  0  0  0  0  0  0  0  0  0  0  0
   -0.7175    3.3178   -0.5980 H   0  0  0  0  0  0  0  0  0  0  0  0
   -0.3503    1.9608   -1.6780 H   0  0  0  0  0  0  0  0  0  0  0  0
   -0.5995    1.8766    1.6203 O   0  0  0  0  0  0  0  0  0  0  0  0
   -0.7588    2.8225    1.6368 H   0  0  0  0  0  0  0  0  0  0  0  0
    1.0828   -0.5300    1.3427 C   0  0  0  0  0  0  0  0  0  0  0  0
    0.5993   -1.0107    2.3676 O   0  0  0  0  0  0  0  0  0  0  0  0
    2.4053   -0.5025    1.1267 N   0  0  0  0  0  0  0  0  0  0  0  0
    2.7386   -0.1142    0.2597 H   0  0  0  0  0  0  0  0  0  0  0  0
    3.3966   -1.0025    2.0780 C   0  0  0  0  0  0  0  0  0  0  0  0
    3.1562   -2.0307    2.3557 H   0  0  0  0  0  0  0  0  0  0  0  0
    4.3940   -0.9736    1.6390 H   0  0  0  0  0  0  0  0  0  0  0  0
    3.3817   -0.3885    2.9810 H   0  0  0  0  0  0  0  0  0  0  0  0
  5  6  2  0  0  0  0
  5  7  1  0  0  0  0
  2  3  1  0  0  0  0
  2  4  1  0  0  0  0
  2  5  1  0  0  0  0
  1  2  1  0  0  0  0
 19 20  2  0  0  0  0
 19 21  1  0  0  0  0
 17 18  1  0  0  0  0
 13 14  1  0  0  0  0
 13 15  1  0  0  0  0
 13 16  1  0  0  0  0
 11 12  1  0  0  0  0
 11 13  1  0  0  0  0
 11 17  1  0  0  0  0
  9 10  1  0  0  0  0
  9 11  1  0  0  0  0
  9 19  1  0  0  0  0
  7  8  1  0  0  0  0
  7  9  1  0  0  0  0
 23 24  1  0  0  0  0
 23 25  1  0  0  0  0
 23 26  1  0  0  0  0
 21 22  1  0  0  0  0
 21 23  1  0  0  0  0
M  END
$$$$
default_name
  -OEChem-01062215323D

 26 25  0     1  0  0  0  0  0999 V2000
   -2.8882   -3.2497    1.2537 H   0  0  0  0  0  0  0  0  0  0  0  0
   -2.8032   -2.3157    0.7017 C   0  0  0  0  0  0  0  0  0  0  0  0
   -3.5012   -1.5857    1.1067 H   0  0  0  0  0  0  0  0  0  0  0  0
   -3.0182   -2.4907   -0.3513 H   0  0  0  0  0  0  0  0  0  0  0  0
   -1.3942   -1.7897    0.8407 C   0  0  0  0  0  0  0  0  0  0  0  0
   -0.5672   -2.4077    1.5007 O   0  0  0  0  0  0  0  0  0  0  0  0
   -1.1222   -0.6447    0.2217 N   0  0  0  0  0  0  0  0  0  0  0  0
   -1.8592   -0.1777   -0.2863 H   0  0  0  0  0  0  0  0  0  0  0  0
    0.1838    0.0363    0.2367 C   0  0  1  0  0  0  0  0  0  0  0  0
    0.6838   -0.1472   -0.7136 H   0  0  0  0  0  0  0  0  0  0  0  0
    0.0329    1.5623    0.4043 C   0  0  1  0  0  0  0  0  0  0  0  0
    1.0288    2.0049    0.4103 H   0  0  0  0  0  0  0  0  0  0  0  0
   -0.7678    2.2352   -0.7089 C   0  0  0  0  0  0  0  0  0  0  0  0
   -1.8111    1.9193   -0.6709 H   0  0  0  0  0  0  0  0  0  0  0  0
   -0.7175    3.3178   -0.5980 H   0  0  0  0  0  0  0  0  0  0  0  0
   -0.3503    1.9608   -1.6780 H   0  0  0  0  0  0  0  0  0  0  0  0
   -0.5995    1.8766    1.6203 O   0  0  0  0  0  0  0  0  0  0  0  0
   -0.7588    2.8225    1.6368 H   0  0  0  0  0  0  0  0  0  0  0  0
    1.0828   -0.5300    1.3427 C   0  0  0  0  0  0  0  0  0  0  0  0
    0.6202   -1.2480    2.2292 O   0  0  0  0  0  0  0  0  0  0  0  0
    2.3879   -0.2315    1.2796 N   0  0  0  0  0  0  0  0  0  0  0  0
    2.7088    0.3445    0.5188 H   0  0  0  0  0  0  0  0  0  0  0  0
    3.3768   -0.6920    2.2531 C   0  0  0  0  0  0  0  0  0  0  0  0
    3.3187   -1.7777    2.3531 H   0  0  0  0  0  0  0  0  0  0  0  0
    4.3819   -0.4145    1.9351 H   0  0  0  0  0  0  0  0  0  0  0  0
    3.1699   -0.2439    3.2272 H   0  0  0  0  0  0  0  0  0  0  0  0
  5  6  2  0  0  0  0
  5  7  1  0  0  0  0
  2  3  1  0  0  0  0
  2  4  1  0  0  0  0
  2  5  1  0  0  0  0
  1  2  1  0  0  0  0
 19 20  2  0  0  0  0
 19 21  1  0  0  0  0
 17 18  1  0  0  0  0
 13 14  1  0  0  0  0
 13 15  1  0  0  0  0
 13 16  1  0  0  0  0
 11 12  1  0  0  0  0
 11 13  1  0  0  0  0
 11 17  1  0  0  0  0
  9 10  1  0  0  0  0
  9 11  1  0  0  0  0
  9 19  1  0  0  0  0
  7  8  1  0  0  0  0
  7  9  1  0  0  0  0
 23 24  1  0  0  0  0
 23 25  1  0  0  0  0
 23 26  1  0  0  0  0
 21 22  1  0  0  0  0
 21 23  1  0  0  0  0
M  END
$$$$
default_name
  -OEChem-01062215323D

 26 25  0     1  0  0  0  0  0999 V2000
   -2.8882   -3.2497    1.2537 H   0  0  0  0  0  0  0  0  0  0  0  0
   -2.8032   -2.3157    0.7017 C   0  0  0  0  0  0  0  0  0  0  0  0
   -3.5012   -1.5857    1.1067 H   0  0  0  0  0  0  0  0  0  0  0  0
   -3.0182   -2.4907   -0.3513 H   0  0  0  0  0  0  0  0  0  0  0  0
   -1.3942   -1.7897    0.8407 C   0  0  0  0  0  0  0  0  0  0  0  0
   -0.5672   -2.4077    1.5007 O   0  0  0  0  0  0  0  0  0  0  0  0
   -1.1222   -0.6447    0.2217 N   0  0  0  0  0  0  0  0  0  0  0  0
   -1.8592   -0.1777   -0.2863 H   0  0  0  0  0  0  0  0  0  0  0  0
    0.1838    0.0363    0.2367 C   0  0  1  0  0  0  0  0  0  0  0  0
    0.5640    0.0840   -0.7831 H   0  0  0  0  0  0  0  0  0  0  0  0
    0.0714    1.4805    0.7670 C   0  0  1  0  0  0  0  0  0  0  0  0
    1.0658    1.9264    0.7556 H   0  0  0  0  0  0  0  0  0  0  0  0
   -0.8494    2.3774   -0.0581 C   0  0  0  0  0  0  0  0  0  0  0  0
   -1.8841    2.0439    0.0306 H   0  0  0  0  0  0  0  0  0  0  0  0
   -0.7739    3.4063    0.2915 H   0  0  0  0  0  0  0  0  0  0  0  0
   -0.5543    2.3394   -1.1071 H   0  0  0  0  0  0  0  0  0  0  0  0
   -0.4069    1.4970    2.0892 O   0  0  0  0  0  0  0  0  0  0  0  0
   -0.5524    2.4112    2.3414 H   0  0  0  0  0  0  0  0  0  0  0  0
    1.2025   -0.7536    1.0677 C   0  0  0  0  0  0  0  0  0  0  0  0
    0.8962   -1.8224    1.5960 O   0  0  0  0  0  0  0  0  0  0  0  0
    2.4377   -0.2421    1.1641 N   0  0  0  0  0  0  0  0  0  0  0  0
    2.6321    0.6261    0.6929 H   0  0  0  0  0  0  0  0  0  0  0  0
    3.5228   -0.8701    1.9161 C   0  0  0  0  0  0  0  0  0  0  0  0
    3.6477   -1.9046    1.5900 H   0  0  0  0  0  0  0  0  0  0  0  0
    4.4567   -0.3298    1.7600 H   0  0  0  0  0  0  0  0  0  0  0  0
    3.2798   -0.8707    2.9808 H   0  0  0  0  0  0  0  0  0  0  0  0
  5  6  2  0  0  0  0
  5  7  1  0  0  0  0
  2  3  1  0  0  0  0
  2  4  1  0  0  0  0
  2  5  1  0  0  0  0
  1  2  1  0  0  0  0
 19 20  2  0  0  0  0
 19 21  1  0  0  0  0
 17 18  1  0  0  0  0
 13 14  1  0  0  0  0
 13 15  1  0  0  0  0
 13 16  1  0  0  0  0
 11 12  1  0  0  0  0
 11 13  1  0  0  0  0
 11 17  1  0  0  0  0
  9 10  1  0  0  0  0
  9 11  1  0  0  0  0
  9 19  1  0  0  0  0
  7  8  1  0  0  0  0
  7  9  1  0  0  0  0
 23 24  1  0  0  0  0
 23 25  1  0  0  0  0
 23 26  1  0  0  0  0
 21 22  1  0  0  0  0
 21 23  1  0  0  0  0
M  END
$$$$
default_name
  -OEChem-01062215323D

 26 25  0     1  0  0  0  0  0999 V2000
   -2.8882   -3.2497    1.2537 H   0  0  0  0  0  0  0  0  0  0  0  0
   -2.8032   -2.3157    0.7017 C   0  0  0  0  0  0  0  0  0  0  0  0
   -3.5012   -1.5857    1.1067 H   0  0  0  0  0  0  0  0  0  0  0  0
   -3.0182   -2.4907   -0.3513 H   0  0  0  0  0  0  0  0  0  0  0  0
   -1.3942   -1.7897    0.8407 C   0  0  0  0  0  0  0  0  0  0  0  0
   -0.5672   -2.4077    1.5007 O   0  0  0  0  0  0  0  0  0  0  0  0
   -1.1222   -0.6447    0.2217 N   0  0  0  0  0  0  0  0  0  0  0  0
   -1.8592   -0.1777   -0.2863 H   0  0  0  0  0  0  0  0  0  0  0  0
    0.1838    0.0363    0.2367 C   0  0  1  0  0  0  0  0  0  0  0  0
    0.5640    0.0840   -0.7831 H   0  0  0  0  0  0  0  0  0  0  0  0
    0.0714    1.4805    0.7670 C   0  0  1  0  0  0  0  0  0  0  0  0
    1.0658    1.9264    0.7556 H   0  0  0  0  0  0  0  0  0  0  0  0
   -0.8494    2.3774   -0.0581 C   0  0  0  0  0  0  0  0  0  0  0  0
   -1.8841    2.0439    0.0306 H   0  0  0  0  0  0  0  0  0  0  0  0
   -0.7739    3.4063    0.2915 H   0  0  0  0  0  0  0  0  0  0  0  0
   -0.5543    2.3394   -1.1071 H   0  0  0  0  0  0  0  0  0  0  0  0
   -0.4069    1.4970    2.0892 O   0  0  0  0  0  0  0  0  0  0  0  0
   -0.5524    2.4112    2.3414 H   0  0  0  0  0  0  0  0  0  0  0  0
    1.2025   -0.7536    1.0677 C   0  0  0  0  0  0  0  0  0  0  0  0
    1.0004   -1.9308    1.3651 O   0  0  0  0  0  0  0  0  0  0  0  0
    2.3248   -0.1136    1.4246 N   0  0  0  0  0  0  0  0  0  0  0  0
    2.4407    0.8433    1.1341 H   0  0  0  0  0  0  0  0  0  0  0  0
    3.3937   -0.7228    2.2145 C   0  0  0  0  0  0  0  0  0  0  0  0
    3.7128   -1.6561    1.7464 H   0  0  0  0  0  0  0  0  0  0  0  0
    4.2466   -0.0476    2.2859 H   0  0  0  0  0  0  0  0  0  0  0  0
    3.0265   -0.9477    3.2181 H   0  0  0  0  0  0  0  0  0  0  0  0
  5  6  2  0  0  0  0
  5  7  1  0  0  0  0
  2  3  1  0  0  0  0
  2  4  1  0  0  0  0
  2  5  1  0  0  0  0
  1  2  1  0  0  0  0
 19 20  2  0  0  0  0
 19 21  1  0  0  0  0
 17 18  1  0  0  0  0
 13 14  1  0  0  0  0
 13 15  1  0  0  0  0
 13 16  1  0  0  0  0
 11 12  1  0  0  0  0
 11 13  1  0  0  0  0
 11 17  1  0  0  0  0
  9 10  1  0  0  0  0
  9 11  1  0  0  0  0
  9 19  1  0  0  0  0
  7  8  1  0  0  0  0
  7  9  1  0  0  0  0
 23 24  1  0  0  0  0
 23 25  1  0  0  0  0
 23 26  1  0  0  0  0
 21 22  1  0  0  0  0
 21 23  1  0  0  0  0
M  END
$$$$
default_name
  -OEChem-01062215323D

 26 25  0     1  0  0  0  0  0999 V2000
   -2.8882   -3.2497    1.2537 H   0  0  0  0  0  0  0  0  0  0  0  0
   -2.8032   -2.3157    0.7017 C   0  0  0  0  0  0  0  0  0  0  0  0
   -3.5012   -1.5857    1.1067 H   0  0  0  0  0  0  0  0  0  0  0  0
   -3.0182   -2.4907   -0.3513 H   0  0  0  0  0  0  0  0  0  0  0  0
   -1.3942   -1.7897    0.8407 C   0  0  0  0  0  0  0  0  0  0  0  0
   -0.5672   -2.4077    1.5007 O   0  0  0  0  0  0  0  0  0  0  0  0
   -1.1222   -0.6447    0.2217 N   0  0  0  0  0  0  0  0  0  0  0  0
   -1.8592   -0.1777   -0.2863 H   0  0  0  0  0  0  0  0  0  0  0  0
    0.1838    0.0363    0.2367 C   0  0  1  0  0  0  0  0  0  0  0  0
    0.5640    0.0840   -0.7831 H   0  0  0  0  0  0  0  0  0  0  0  0
    0.0714    1.4805    0.7670 C   0  0  1  0  0  0  0  0  0  0  0  0
    1.0658    1.9264    0.7556 H   0  0  0  0  0  0  0  0  0  0  0  0
   -0.8494    2.3774   -0.0581 C   0  0  0  0  0  0  0  0  0  0  0  0
   -1.8841    2.0439    0.0306 H   0  0  0  0  0  0  0  0  0  0  0  0
   -0.7739    3.4063    0.2915 H   0  0  0  0  0  0  0  0  0  0  0  0
   -0.5543    2.3394   -1.1071 H   0  0  0  0  0  0  0  0  0  0  0  0
   -0.4069    1.4970    2.0892 O   0  0  0  0  0  0  0  0  0  0  0  0
   -0.5524    2.4112    2.3414 H   0  0  0  0  0  0  0  0  0  0  0  0
    1.2025   -0.7536    1.0677 C   0  0  0  0  0  0  0  0  0  0  0  0
    1.1471   -1.9813    1.1374 O   0  0  0  0  0  0  0  0  0  0  0  0
    2.1630   -0.0500    1.6834 N   0  0  0  0  0  0  0  0  0  0  0  0
    2.1665    0.9505    1.5721 H   0  0  0  0  0  0  0  0  0  0  0  0
    3.2085   -0.6499    2.5109 C   0  0  0  0  0  0  0  0  0  0  0  0
    3.7199   -1.4339    1.9489 H   0  0  0  0  0  0  0  0  0  0  0  0
    3.9339    0.1051    2.8143 H   0  0  0  0  0  0  0  0  0  0  0  0
    2.7610   -1.0985    3.4004 H   0  0  0  0  0  0  0  0  0  0  0  0
  5  6  2  0  0  0  0
  5  7  1  0  0  0  0
  2  3  1  0  0  0  0
  2  4  1  0  0  0  0
  2  5  1  0  0  0  0
  1  2  1  0  0  0  0
 19 20  2  0  0  0  0
 19 21  1  0  0  0  0
 17 18  1  0  0  0  0
 13 14  1  0  0  0  0
 13 15  1  0  0  0  0
 13 16  1  0  0  0  0
 11 12  1  0  0  0  0
 11 13  1  0  0  0  0
 11 17  1  0  0  0  0
  9 10  1  0  0  0  0
  9 11  1  0  0  0  0
  9 19  1  0  0  0  0
  7  8  1  0  0  0  0
  7  9  1  0  0  0  0
 23 24  1  0  0  0  0
 23 25  1  0  0  0  0
 23 26  1  0  0  0  0
 21 22  1  0  0  0  0
 21 23  1  0  0  0  0
M  END
$$$$
default_name
  -OEChem-01062215323D

 26 25  0     1  0  0  0  0  0999 V2000
   -2.8882   -3.2497    1.2537 H   0  0  0  0  0  0  0  0  0  0  0  0
   -2.8032   -2.3157    0.7017 C   0  0  0  0  0  0  0  0  0  0  0  0
   -3.5012   -1.5857    1.1067 H   0  0  0  0  0  0  0  0  0  0  0  0
   -3.0182   -2.4907   -0.3513 H   0  0  0  0  0  0  0  0  0  0  0  0
   -1.3942   -1.7897    0.8407 C   0  0  0  0  0  0  0  0  0  0  0  0
   -0.5672   -2.4077    1.5007 O   0  0  0  0  0  0  0  0  0  0  0  0
   -1.1222   -0.6447    0.2217 N   0  0  0  0  0  0  0  0  0  0  0  0
   -1.8592   -0.1777   -0.2863 H   0  0  0  0  0  0  0  0  0  0  0  0
    0.1838    0.0363    0.2367 C   0  0  1  0  0  0  0  0  0  0  0  0
    0.5640    0.0840   -0.7831 H   0  0  0  0  0  0  0  0  0  0  0  0
    0.0714    1.4805    0.7670 C   0  0  1  0  0  0  0  0  0  0  0  0
    1.0658    1.9264    0.7556 H   0  0  0  0  0  0  0  0  0  0  0  0
   -0.8494    2.3774   -0.0581 C   0  0  0  0  0  0  0  0  0  0  0  0
   -1.8841    2.0439    0.0306 H   0  0  0  0  0  0  0  0  0  0  0  0
   -0.7739    3.4063    0.2915 H   0  0  0  0  0  0  0  0  0  0  0  0
   -0.5543    2.3394   -1.1071 H   0  0  0  0  0  0  0  0  0  0  0  0
   -0.4069    1.4970    2.0892 O   0  0  0  0  0  0  0  0  0  0  0  0
   -0.5524    2.4112    2.3414 H   0  0  0  0  0  0  0  0  0  0  0  0
    1.2025   -0.7536    1.0677 C   0  0  0  0  0  0  0  0  0  0  0  0
    1.3262   -1.9703    0.9282 O   0  0  0  0  0  0  0  0  0  0  0  0
    1.9633   -0.0558    1.9226 N   0  0  0  0  0  0  0  0  0  0  0  0
    1.8283    0.9403    1.9770 H   0  0  0  0  0  0  0  0  0  0  0  0
    2.9798   -0.6564    2.7850 C   0  0  0  0  0  0  0  0  0  0  0  0
    3.6687   -1.2530    2.1837 H   0  0  0  0  0  0  0  0  0  0  0  0
    3.5401    0.1180    3.3093 H   0  0  0  0  0  0  0  0  0  0  0  0
    2.5014   -1.3126    3.5150 H   0  0  0  0  0  0  0  0  0  0  0  0
  5  6  2  0  0  0  0
  5  7  1  0  0  0  0
  2  3  1  0  0  0  0
  2  4  1  0  0  0  0
  2  5  1  0  0  0  0
  1  2  1  0  0  0  0
 19 20  2  0  0  0  0
 19 21  1  0  0  0  0
 17 18  1  0  0  0  0
 13 14  1  0  0  0  0
 13 15  1  0  0  0  0
 13 16  1  0  0  0  0
 11 12  1  0  0  0  0
 11 13  1  0  0  0  0
 11 17  1  0  0  0  0
  9 10  1  0  0  0  0
  9 11  1  0  0  0  0
  9 19  1  0  0  0  0
  7  8  1  0  0  0  0
  7  9  1  0  0  0  0
 23 24  1  0  0  0  0
 23 25  1  0  0  0  0
 23 26  1  0  0  0  0
 21 22  1  0  0  0  0
 21 23  1  0  0  0  0
M  END
$$$$
default_name
  -OEChem-01062215323D

 26 25  0     1  0  0  0  0  0999 V2000
   -2.8882   -3.2497    1.2537 H   0  0  0  0  0  0  0  0  0  0  0  0
   -2.8032   -2.3157    0.7017 C   0  0  0  0  0  0  0  0  0  0  0  0
   -3.5012   -1.5857    1.1067 H   0  0  0  0  0  0  0  0  0  0  0  0
   -3.0182   -2.4907   -0.3513 H   0  0  0  0  0  0  0  0  0  0  0  0
   -1.3942   -1.7897    0.8407 C   0  0  0  0  0  0  0  0  0  0  0  0
   -0.5672   -2.4077    1.5007 O   0  0  0  0  0  0  0  0  0  0  0  0
   -1.1222   -0.6447    0.2217 N   0  0  0  0  0  0  0  0  0  0  0  0
   -1.8592   -0.1777   -0.2863 H   0  0  0  0  0  0  0  0  0  0  0  0
    0.1838    0.0363    0.2367 C   0  0  1  0  0  0  0  0  0  0  0  0
    0.5640    0.0840   -0.7831 H   0  0  0  0  0  0  0  0  0  0  0  0
    0.0714    1.4805    0.7670 C   0  0  1  0  0  0  0  0  0  0  0  0
    1.0658    1.9264    0.7556 H   0  0  0  0  0  0  0  0  0  0  0  0
   -0.8494    2.3774   -0.0581 C   0  0  0  0  0  0  0  0  0  0  0  0
   -1.8841    2.0439    0.0306 H   0  0  0  0  0  0  0  0  0  0  0  0
   -0.7739    3.4063    0.2915 H   0  0  0  0  0  0  0  0  0  0  0  0
   -0.5543    2.3394   -1.1071 H   0  0  0  0  0  0  0  0  0  0  0  0
   -0.4069    1.4970    2.0892 O   0  0  0  0  0  0  0  0  0  0  0  0
   -0.5524    2.4112    2.3414 H   0  0  0  0  0  0  0  0  0  0  0  0
    1.2025   -0.7536    1.0677 C   0  0  0  0  0  0  0  0  0  0  0  0
    1.5255   -1.8986    0.7520 O   0  0  0  0  0  0  0  0  0  0  0  0
    1.7394   -0.1306    2.1261 N   0  0  0  0  0  0  0  0  0  0  0  0
    1.4490    0.8134    2.3213 H   0  0  0  0  0  0  0  0  0  0  0  0
    2.7234   -0.7418    3.0181 C   0  0  0  0  0  0  0  0  0  0  0  0
    3.5625   -1.1259    2.4347 H   0  0  0  0  0  0  0  0  0  0  0  0
    3.0919   -0.0100    3.7372 H   0  0  0  0  0  0  0  0  0  0  0  0
    2.2653   -1.5756    3.5544 H   0  0  0  0  0  0  0  0  0  0  0  0
  5  6  2  0  0  0  0
  5  7  1  0  0  0  0
  2  3  1  0  0  0  0
  2  4  1  0  0  0  0
  2  5  1  0  0  0  0
  1  2  1  0  0  0  0
 19 20  2  0  0  0  0
 19 21  1  0  0  0  0
 17 18  1  0  0  0  0
 13 14  1  0  0  0  0
 13 15  1  0  0  0  0
 13 16  1  0  0  0  0
 11 12  1  0  0  0  0
 11 13  1  0  0  0  0
 11 17  1  0  0  0  0
  9 10  1  0  0  0  0
  9 11  1  0  0  0  0
  9 19  1  0  0  0  0
  7  8  1  0  0  0  0
  7  9  1  0  0  0  0
 23 24  1  0  0  0  0
 23 25  1  0  0  0  0
 23 26  1  0  0  0  0
 21 22  1  0  0  0  0
 21 23  1  0  0  0  0
M  END
$$$$
default_name
  -OEChem-01062215323D

 26 25  0     1  0  0  0  0  0999 V2000
   -2.8882   -3.2497    1.2537 H   0  0  0  0  0  0  0  0  0  0  0  0
   -2.8032   -2.3157    0.7017 C   0  0  0  0  0  0  0  0  0  0  0  0
   -3.5012   -1.5857    1.1067 H   0  0  0  0  0  0  0  0  0  0  0  0
   -3.0182   -2.4907   -0.3513 H   0  0  0  0  0  0  0  0  0  0  0  0
   -1.3942   -1.7897    0.8407 C   0  0  0  0  0  0  0  0  0  0  0  0
   -0.5672   -2.4077    1.5007 O   0  0  0  0  0  0  0  0  0  0  0  0
   -1.1222   -0.6447    0.2217 N   0  0  0  0  0  0  0  0  0  0  0  0
   -1.8592   -0.1777   -0.2863 H   0  0  0  0  0  0  0  0  0  0  0  0
    0.1838    0.0363    0.2367 C   0  0  1  0  0  0  0  0  0  0  0  0
    0.5640    0.0840   -0.7831 H   0  0  0  0  0  0  0  0  0  0  0  0
    0.0714    1.4805    0.7670 C   0  0  1  0  0  0  0  0  0  0  0  0
    1.0658    1.9264    0.7556 H   0  0  0  0  0  0  0  0  0  0  0  0
   -0.8494    2.3774   -0.0581 C   0  0  0  0  0  0  0  0  0  0  0  0
   -1.8841    2.0439    0.0306 H   0  0  0  0  0  0  0  0  0  0  0  0
   -0.7739    3.4063    0.2915 H   0  0  0  0  0  0  0  0  0  0  0  0
   -0.5543    2.3394   -1.1071 H   0  0  0  0  0  0  0  0  0  0  0  0
   -0.4069    1.4970    2.0892 O   0  0  0  0  0  0  0  0  0  0  0  0
   -0.5524    2.4112    2.3414 H   0  0  0  0  0  0  0  0  0  0  0  0
    1.2025   -0.7536    1.0677 C   0  0  0  0  0  0  0  0  0  0  0  0
    1.7315   -1.7712    0.6207 O   0  0  0  0  0  0  0  0  0  0  0  0
    1.5064   -0.2692    2.2799 N   0  0  0  0  0  0  0  0  0  0  0  0
    1.0546    0.5784    2.5815 H   0  0  0  0  0  0  0  0  0  0  0  0
    2.4566   -0.9004    3.1945 C   0  0  0  0  0  0  0  0  0  0  0  0
    3.4087   -1.0611    2.6848 H   0  0  0  0  0  0  0  0  0  0  0  0
    2.6198   -0.2699    4.0687 H   0  0  0  0  0  0  0  0  0  0  0  0
    2.0690   -1.8695    3.5157 H   0  0  0  0  0  0  0  0  0  0  0  0
  5  6  2  0  0  0  0
  5  7  1  0  0  0  0
  2  3  1  0  0  0  0
  2  4  1  0  0  0  0
  2  5  1  0  0  0  0
  1  2  1  0  0  0  0
 19 20  2  0  0  0  0
 19 21  1  0  0  0  0
 17 18  1  0  0  0  0
 13 14  1  0  0  0  0
 13 15  1  0  0  0  0
 13 16  1  0  0  0  0
 11 12  1  0  0  0  0
 11 13  1  0  0  0  0
 11 17  1  0  0  0  0
  9 10  1  0  0  0  0
  9 11  1  0  0  0  0
  9 19  1  0  0  0  0
  7  8  1  0  0  0  0
  7  9  1  0  0  0  0
 23 24  1  0  0  0  0
 23 25  1  0  0  0  0
 23 26  1  0  0  0  0
 21 22  1  0  0  0  0
 21 23  1  0  0  0  0
M  END
$$$$
default_name
  -OEChem-01062215323D

 26 25  0     1  0  0  0  0  0999 V2000
   -2.8882   -3.2497    1.2537 H   0  0  0  0  0  0  0  0  0  0  0  0
   -2.8032   -2.3157    0.7017 C   0  0  0  0  0  0  0  0  0  0  0  0
   -3.5012   -1.5857    1.1067 H   0  0  0  0  0  0  0  0  0  0  0  0
   -3.0182   -2.4907   -0.3513 H   0  0  0  0  0  0  0  0  0  0  0  0
   -1.3942   -1.7897    0.8407 C   0  0  0  0  0  0  0  0  0  0  0  0
   -0.5672   -2.4077    1.5007 O   0  0  0  0  0  0  0  0  0  0  0  0
   -1.1222   -0.6447    0.2217 N   0  0  0  0  0  0  0  0  0  0  0  0
   -1.8592   -0.1777   -0.2863 H   0  0  0  0  0  0  0  0  0  0  0  0
    0.1838    0.0363    0.2367 C   0  0  1  0  0  0  0  0  0  0  0  0
    0.5640    0.0840   -0.7831 H   0  0  0  0  0  0  0  0  0  0  0  0
    0.0714    1.4805    0.7670 C   0  0  1  0  0  0  0  0  0  0  0  0
    1.0658    1.9264    0.7556 H   0  0  0  0  0  0  0  0  0  0  0  0
   -0.8494    2.3774   -0.0581 C   0  0  0  0  0  0  0  0  0  0  0  0
   -1.8841    2.0439    0.0306 H   0  0  0  0  0  0  0  0  0  0  0  0
   -0.7739    3.4063    0.2915 H   0  0  0  0  0  0  0  0  0  0  0  0
   -0.5543    2.3394   -1.1071 H   0  0  0  0  0  0  0  0  0  0  0  0
   -0.4069    1.4970    2.0892 O   0  0  0  0  0  0  0  0  0  0  0  0
   -0.5524    2.4112    2.3414 H   0  0  0  0  0  0  0  0  0  0  0  0
    1.2025   -0.7536    1.0677 C   0  0  0  0  0  0  0  0  0  0  0  0
    1.9301   -1.5966    0.5432 O   0  0  0  0  0  0  0  0  0  0  0  0
    1.2804   -0.4621    2.3737 N   0  0  0  0  0  0  0  0  0  0  0  0
    0.6719    0.2514    2.7398 H   0  0  0  0  0  0  0  0  0  0  0  0
    2.1976   -1.1213    3.3020 C   0  0  0  0  0  0  0  0  0  0  0  0
    3.2176   -1.0631    2.9171 H   0  0  0  0  0  0  0  0  0  0  0  0
    2.1562   -0.6443    4.2813 H   0  0  0  0  0  0  0  0  0  0  0  0
    1.9257   -2.1743    3.4017 H   0  0  0  0  0  0  0  0  0  0  0  0
  5  6  2  0  0  0  0
  5  7  1  0  0  0  0
  2  3  1  0  0  0  0
  2  4  1  0  0  0  0
  2  5  1  0  0  0  0
  1  2  1  0  0  0  0
 19 20  2  0  0  0  0
 19 21  1  0  0  0  0
 17 18  1  0  0  0  0
 13 14  1  0  0  0  0
 13 15  1  0  0  0  0
 13 16  1  0  0  0  0
 11 12  1  0  0  0  0
 11 13  1  0  0  0  0
 11 17  1  0  0  0  0
  9 10  1  0  0  0  0
  9 11  1  0  0  0  0
  9 19  1  0  0  0  0
  7  8  1  0  0  0  0
  7  9  1  0  0  0  0
 23 24  1  0  0  0  0
 23 25  1  0  0  0  0
 23 26  1  0  0  0  0
 21 22  1  0  0  0  0
 21 23  1  0  0  0  0
M  END
$$$$
default_name
  -OEChem-01062215323D

 26 25  0     1  0  0  0  0  0999 V2000
   -2.8882   -3.2497    1.2537 H   0  0  0  0  0  0  0  0  0  0  0  0
   -2.8032   -2.3157    0.7017 C   0  0  0  0  0  0  0  0  0  0  0  0
   -3.5012   -1.5857    1.1067 H   0  0  0  0  0  0  0  0  0  0  0  0
   -3.0182   -2.4907   -0.3513 H   0  0  0  0  0  0  0  0  0  0  0  0
   -1.3942   -1.7897    0.8407 C   0  0  0  0  0  0  0  0  0  0  0  0
   -0.5672   -2.4077    1.5007 O   0  0  0  0  0  0  0  0  0  0  0  0
   -1.1222   -0.6447    0.2217 N   0  0  0  0  0  0  0  0  0  0  0  0
   -1.8592   -0.1777   -0.2863 H   0  0  0  0  0  0  0  0  0  0  0  0
    0.1838    0.0363    0.2367 C   0  0  1  0  0  0  0  0  0  0  0  0
    0.5640    0.0840   -0.7831 H   0  0  0  0  0  0  0  0  0  0  0  0
    0.0714    1.4805    0.7670 C   0  0  1  0  0  0  0  0  0  0  0  0
    1.0658    1.9264    0.7556 H   0  0  0  0  0  0  0  0  0  0  0  0
   -0.8494    2.3774   -0.0581 C   0  0  0  0  0  0  0  0  0  0  0  0
   -1.8841    2.0439    0.0306 H   0  0  0  0  0  0  0  0  0  0  0  0
   -0.7739    3.4063    0.2915 H   0  0  0  0  0  0  0  0  0  0  0  0
   -0.5543    2.3394   -1.1071 H   0  0  0  0  0  0  0  0  0  0  0  0
   -0.4069    1.4970    2.0892 O   0  0  0  0  0  0  0  0  0  0  0  0
   -0.5524    2.4112    2.3414 H   0  0  0  0  0  0  0  0  0  0  0  0
    1.2025   -0.7536    1.0677 C   0  0  0  0  0  0  0  0  0  0  0  0
    2.1078   -1.3867    0.5248 O   0  0  0  0  0  0  0  0  0  0  0  0
    1.0765   -0.6963    2.4009 N   0  0  0  0  0  0  0  0  0  0  0  0
    0.3269   -0.1453    2.7856 H   0  0  0  0  0  0  0  0  0  0  0  0
    1.9641   -1.3895    3.3333 C   0  0  0  0  0  0  0  0  0  0  0  0
    3.0025   -1.1318    3.1156 H   0  0  0  0  0  0  0  0  0  0  0  0
    1.7324   -1.1074    4.3605 H   0  0  0  0  0  0  0  0  0  0  0  0
    1.8452   -2.4692    3.2201 H   0  0  0  0  0  0  0  0  0  0  0  0
  5  6  2  0  0  0  0
  5  7  1  0  0  0  0
  2  3  1  0  0  0  0
  2  4  1  0  0  0  0
  2  5  1  0  0  0  0
  1  2  1  0  0  0  0
 19 20  2  0  0  0  0
 19 21  1  0  0  0  0
 17 18  1  0  0  0  0
 13 14  1  0  0  0  0
 13 15  1  0  0  0  0
 13 16  1  0  0  0  0
 11 12  1  0  0  0  0
 11 13  1  0  0  0  0
 11 17  1  0  0  0  0
  9 10  1  0  0  0  0
  9 11  1  0  0  0  0
  9 19  1  0  0  0  0
  7  8  1  0  0  0  0
  7  9  1  0  0  0  0
 23 24  1  0  0  0  0
 23 25  1  0  0  0  0
 23 26  1  0  0  0  0
 21 22  1  0  0  0  0
 21 23  1  0  0  0  0
M  END
$$$$
default_name
  -OEChem-01062215323D

 26 25  0     1  0  0  0  0  0999 V2000
   -2.8882   -3.2497    1.2537 H   0  0  0  0  0  0  0  0  0  0  0  0
   -2.8032   -2.3157    0.7017 C   0  0  0  0  0  0  0  0  0  0  0  0
   -3.5012   -1.5857    1.1067 H   0  0  0  0  0  0  0  0  0  0  0  0
   -3.0182   -2.4907   -0.3513 H   0  0  0  0  0  0  0  0  0  0  0  0
   -1.3942   -1.7897    0.8407 C   0  0  0  0  0  0  0  0  0  0  0  0
   -0.5672   -2.4077    1.5007 O   0  0  0  0  0  0  0  0  0  0  0  0
   -1.1222   -0.6447    0.2217 N   0  0  0  0  0  0  0  0  0  0  0  0
   -1.8592   -0.1777   -0.2863 H   0  0  0  0  0  0  0  0  0  0  0  0
    0.1838    0.0363    0.2367 C   0  0  1  0  0  0  0  0  0  0  0  0
    0.5640    0.0840   -0.7831 H   0  0  0  0  0  0  0  0  0  0  0  0
    0.0714    1.4805    0.7670 C   0  0  1  0  0  0  0  0  0  0  0  0
    1.0658    1.9264    0.7556 H   0  0  0  0  0  0  0  0  0  0  0  0
   -0.8494    2.3774   -0.0581 C   0  0  0  0  0  0  0  0  0  0  0  0
   -1.8841    2.0439    0.0306 H   0  0  0  0  0  0  0  0  0  0  0  0
   -0.7739    3.4063    0.2915 H   0  0  0  0  0  0  0  0  0  0  0  0
   -0.5543    2.3394   -1.1071 H   0  0  0  0  0  0  0  0  0  0  0  0
   -0.4069    1.4970    2.0892 O   0  0  0  0  0  0  0  0  0  0  0  0
   -0.5524    2.4112    2.3414 H   0  0  0  0  0  0  0  0  0  0  0  0
    1.2025   -0.7536    1.0677 C   0  0  0  0  0  0  0  0  0  0  0  0
    2.2524   -1.1560    0.5668 O   0  0  0  0  0  0  0  0  0  0  0  0
    0.9089   -0.9558    2.3598 N   0  0  0  0  0  0  0  0  0  0  0  0
    0.0433   -0.5848    2.7155 H   0  0  0  0  0  0  0  0  0  0  0  0
    1.7719   -1.6867    3.2864 C   0  0  0  0  0  0  0  0  0  0  0  0
    2.7778   -1.2624    3.2669 H   0  0  0  0  0  0  0  0  0  0  0  0
    1.3775   -1.6278    4.3010 H   0  0  0  0  0  0  0  0  0  0  0  0
    1.8330   -2.7341    2.9832 H   0  0  0  0  0  0  0  0  0  0  0  0
  5  6  2  0  0  0  0
  5  7  1  0  0  0  0
  2  3  1  0  0  0  0
  2  4  1  0  0  0  0
  2  5  1  0  0  0  0
  1  2  1  0  0  0  0
 19 20  2  0  0  0  0
 19 21  1  0  0  0  0
 17 18  1  0  0  0  0
 13 14  1  0  0  0  0
 13 15  1  0  0  0  0
 13 16  1  0  0  0  0
 11 12  1  0  0  0  0
 11 13  1  0  0  0  0
 11 17  1  0  0  0  0
  9 10  1  0  0  0  0
  9 11  1  0  0  0  0
  9 19  1  0  0  0  0
  7  8  1  0  0  0  0
  7  9  1  0  0  0  0
 23 24  1  0  0  0  0
 23 25  1  0  0  0  0
 23 26  1  0  0  0  0
 21 22  1  0  0  0  0
 21 23  1  0  0  0  0
M  END
$$$$
default_name
  -OEChem-01062215323D

 26 25  0     1  0  0  0  0  0999 V2000
   -2.8882   -3.2497    1.2537 H   0  0  0  0  0  0  0  0  0  0  0  0
   -2.8032   -2.3157    0.7017 C   0  0  0  0  0  0  0  0  0  0  0  0
   -3.5012   -1.5857    1.1067 H   0  0  0  0  0  0  0  0  0  0  0  0
   -3.0182   -2.4907   -0.3513 H   0  0  0  0  0  0  0  0  0  0  0  0
   -1.3942   -1.7897    0.8407 C   0  0  0  0  0  0  0  0  0  0  0  0
   -0.5672   -2.4077    1.5007 O   0  0  0  0  0  0  0  0  0  0  0  0
   -1.1222   -0.6447    0.2217 N   0  0  0  0  0  0  0  0  0  0  0  0
   -1.8592   -0.1777   -0.2863 H   0  0  0  0  0  0  0  0  0  0  0  0
    0.1838    0.0363    0.2367 C   0  0  1  0  0  0  0  0  0  0  0  0
    0.5640    0.0840   -0.7831 H   0  0  0  0  0  0  0  0  0  0  0  0
    0.0714    1.4805    0.7670 C   0  0  1  0  0  0  0  0  0  0  0  0
    1.0658    1.9264    0.7556 H   0  0  0  0  0  0  0  0  0  0  0  0
   -0.8494    2.3774   -0.0581 C   0  0  0  0  0  0  0  0  0  0  0  0
   -1.8841    2.0439    0.0306 H   0  0  0  0  0  0  0  0  0  0  0  0
   -0.7739    3.4063    0.2915 H   0  0  0  0  0  0  0  0  0  0  0  0
   -0.5543    2.3394   -1.1071 H   0  0  0  0  0  0  0  0  0  0  0  0
   -0.4069    1.4970    2.0892 O   0  0  0  0  0  0  0  0  0  0  0  0
   -0.5524    2.4112    2.3414 H   0  0  0  0  0  0  0  0  0  0  0  0
    1.2025   -0.7536    1.0677 C   0  0  0  0  0  0  0  0  0  0  0  0
    2.3542   -0.9200    0.6663 O   0  0  0  0  0  0  0  0  0  0  0  0
    0.7888   -1.2229    2.2531 N   0  0  0  0  0  0  0  0  0  0  0  0
   -0.1597   -1.0370    2.5346 H   0  0  0  0  0  0  0  0  0  0  0  0
    1.6343   -1.9926    3.1643 C   0  0  0  0  0  0  0  0  0  0  0  0
    2.5589   -1.4461    3.3606 H   0  0  0  0  0  0  0  0  0  0  0  0
    1.1157   -2.1699    4.1066 H   0  0  0  0  0  0  0  0  0  0  0  0
    1.8900   -2.9509    2.7072 H   0  0  0  0  0  0  0  0  0  0  0  0
  5  6  2  0  0  0  0
  5  7  1  0  0  0  0
  2  3  1  0  0  0  0
  2  4  1  0  0  0  0
  2  5  1  0  0  0  0
  1  2  1  0  0  0  0
 19 20  2  0  0  0  0
 19 21  1  0  0  0  0
 17 18  1  0  0  0  0
 13 14  1  0  0  0  0
 13 15  1  0  0  0  0
 13 16  1  0  0  0  0
 11 12  1  0  0  0  0
 11 13  1  0  0  0  0
 11 17  1  0  0  0  0
  9 10  1  0  0  0  0
  9 11  1  0  0  0  0
  9 19  1  0  0  0  0
  7  8  1  0  0  0  0
  7  9  1  0  0  0  0
 23 24  1  0  0  0  0
 23 25  1  0  0  0  0
 23 26  1  0  0  0  0
 21 22  1  0  0  0  0
 21 23  1  0  0  0  0
M  END
$$$$
default_name
  -OEChem-01062215323D

 26 25  0     1  0  0  0  0  0999 V2000
   -2.8882   -3.2497    1.2537 H   0  0  0  0  0  0  0  0  0  0  0  0
   -2.8032   -2.3157    0.7017 C   0  0  0  0  0  0  0  0  0  0  0  0
   -3.5012   -1.5857    1.1067 H   0  0  0  0  0  0  0  0  0  0  0  0
   -3.0182   -2.4907   -0.3513 H   0  0  0  0  0  0  0  0  0  0  0  0
   -1.3942   -1.7897    0.8407 C   0  0  0  0  0  0  0  0  0  0  0  0
   -0.5672   -2.4077    1.5007 O   0  0  0  0  0  0  0  0  0  0  0  0
   -1.1222   -0.6447    0.2217 N   0  0  0  0  0  0  0  0  0  0  0  0
   -1.8592   -0.1777   -0.2863 H   0  0  0  0  0  0  0  0  0  0  0  0
    0.1838    0.0363    0.2367 C   0  0  1  0  0  0  0  0  0  0  0  0
    0.5640    0.0840   -0.7831 H   0  0  0  0  0  0  0  0  0  0  0  0
    0.0714    1.4805    0.7670 C   0  0  1  0  0  0  0  0  0  0  0  0
    1.0658    1.9264    0.7556 H   0  0  0  0  0  0  0  0  0  0  0  0
   -0.8494    2.3774   -0.0581 C   0  0  0  0  0  0  0  0  0  0  0  0
   -1.8841    2.0439    0.0306 H   0  0  0  0  0  0  0  0  0  0  0  0
   -0.7739    3.4063    0.2915 H   0  0  0  0  0  0  0  0  0  0  0  0
   -0.5543    2.3394   -1.1071 H   0  0  0  0  0  0  0  0  0  0  0  0
   -0.4069    1.4970    2.0892 O   0  0  0  0  0  0  0  0  0  0  0  0
   -0.5524    2.4112    2.3414 H   0  0  0  0  0  0  0  0  0  0  0  0
    1.2025   -0.7536    1.0677 C   0  0  0  0  0  0  0  0  0  0  0  0
    2.4061   -0.6950    0.8166 O   0  0  0  0  0  0  0  0  0  0  0  0
    0.7245   -1.4794    2.0881 N   0  0  0  0  0  0  0  0  0  0  0  0
   -0.2683   -1.4712    2.2549 H   0  0  0  0  0  0  0  0  0  0  0  0
    1.5605   -2.2865    2.9755 C   0  0  0  0  0  0  0  0  0  0  0  0
    2.3607   -1.6704    3.3904 H   0  0  0  0  0  0  0  0  0  0  0  0
    0.9646   -2.6970    3.7908 H   0  0  0  0  0  0  0  0  0  0  0  0
    2.0122   -3.1050    2.4110 H   0  0  0  0  0  0  0  0  0  0  0  0
  5  6  2  0  0  0  0
  5  7  1  0  0  0  0
  2  3  1  0  0  0  0
  2  4  1  0  0  0  0
  2  5  1  0  0  0  0
  1  2  1  0  0  0  0
 19 20  2  0  0  0  0
 19 21  1  0  0  0  0
 17 18  1  0  0  0  0
 13 14  1  0  0  0  0
 13 15  1  0  0  0  0
 13 16  1  0  0  0  0
 11 12  1  0  0  0  0
 11 13  1  0  0  0  0
 11 17  1  0  0  0  0
  9 10  1  0  0  0  0
  9 11  1  0  0  0  0
  9 19  1  0  0  0  0
  7  8  1  0  0  0  0
  7  9  1  0  0  0  0
 23 24  1  0  0  0  0
 23 25  1  0  0  0  0
 23 26  1  0  0  0  0
 21 22  1  0  0  0  0
 21 23  1  0  0  0  0
M  END
$$$$
default_name
  -OEChem-01062215323D

 26 25  0     1  0  0  0  0  0999 V2000
   -2.8882   -3.2497    1.2537 H   0  0  0  0  0  0  0  0  0  0  0  0
   -2.8032   -2.3157    0.7017 C   0  0  0  0  0  0  0  0  0  0  0  0
   -3.5012   -1.5857    1.1067 H   0  0  0  0  0  0  0  0  0  0  0  0
   -3.0182   -2.4907   -0.3513 H   0  0  0  0  0  0  0  0  0  0  0  0
   -1.3942   -1.7897    0.8407 C   0  0  0  0  0  0  0  0  0  0  0  0
   -0.5672   -2.4077    1.5007 O   0  0  0  0  0  0  0  0  0  0  0  0
   -1.1222   -0.6447    0.2217 N   0  0  0  0  0  0  0  0  0  0  0  0
   -1.8592   -0.1777   -0.2863 H   0  0  0  0  0  0  0  0  0  0  0  0
    0.1838    0.0363    0.2367 C   0  0  1  0  0  0  0  0  0  0  0  0
    0.5640    0.0840   -0.7831 H   0  0  0  0  0  0  0  0  0  0  0  0
    0.0714    1.4805    0.7670 C   0  0  1  0  0  0  0  0  0  0  0  0
    1.0658    1.9264    0.7556 H   0  0  0  0  0  0  0  0  0  0  0  0
   -0.8494    2.3774   -0.0581 C   0  0  0  0  0  0  0  0  0  0  0  0
   -1.8841    2.0439    0.0306 H   0  0  0  0  0  0  0  0  0  0  0  0
   -0.7739    3.4063    0.2915 H   0  0  0  0  0  0  0  0  0  0  0  0
   -0.5543    2.3394   -1.1071 H   0  0  0  0  0  0  0  0  0  0  0  0
   -0.4069    1.4970    2.0892 O   0  0  0  0  0  0  0  0  0  0  0  0
   -0.5524    2.4112    2.3414 H   0  0  0  0  0  0  0  0  0  0  0  0
    1.2025   -0.7536    1.0677 C   0  0  0  0  0  0  0  0  0  0  0  0
    2.4047   -0.4961    1.0074 O   0  0  0  0  0  0  0  0  0  0  0  0
    0.7203   -1.7078    1.8761 N   0  0  0  0  0  0  0  0  0  0  0  0
   -0.2750   -1.8577    1.8957 H   0  0  0  0  0  0  0  0  0  0  0  0
    1.5556   -2.5481    2.7327 C   0  0  0  0  0  0  0  0  0  0  0  0
    2.1968   -1.9199    3.3542 H   0  0  0  0  0  0  0  0  0  0  0  0
    0.9347   -3.1729    3.3750 H   0  0  0  0  0  0  0  0  0  0  0  0
    2.1914   -3.1857    2.1146 H   0  0  0  0  0  0  0  0  0  0  0  0
  5  6  2  0  0  0  0
  5  7  1  0  0  0  0
  2  3  1  0  0  0  0
  2  4  1  0  0  0  0
  2  5  1  0  0  0  0
  1  2  1  0  0  0  0
 19 20  2  0  0  0  0
 19 21  1  0  0  0  0
 17 18  1  0  0  0  0
 13 14  1  0  0  0  0
 13 15  1  0  0  0  0
 13 16  1  0  0  0  0
 11 12  1  0  0  0  0
 11 13  1  0  0  0  0
 11 17  1  0  0  0  0
  9 10  1  0  0  0  0
  9 11  1  0  0  0  0
  9 19  1  0  0  0  0
  7  8  1  0  0  0  0
  7  9  1  0  0  0  0
 23 24  1  0  0  0  0
 23 25  1  0  0  0  0
 23 26  1  0  0  0  0
 21 22  1  0  0  0  0
 21 23  1  0  0  0  0
M  END
$$$$
default_name
  -OEChem-01062215323D

 26 25  0     1  0  0  0  0  0999 V2000
   -2.8882   -3.2497    1.2537 H   0  0  0  0  0  0  0  0  0  0  0  0
   -2.8032   -2.3157    0.7017 C   0  0  0  0  0  0  0  0  0  0  0  0
   -3.5012   -1.5857    1.1067 H   0  0  0  0  0  0  0  0  0  0  0  0
   -3.0182   -2.4907   -0.3513 H   0  0  0  0  0  0  0  0  0  0  0  0
   -1.3942   -1.7897    0.8407 C   0  0  0  0  0  0  0  0  0  0  0  0
   -0.5672   -2.4077    1.5007 O   0  0  0  0  0  0  0  0  0  0  0  0
   -1.1222   -0.6447    0.2217 N   0  0  0  0  0  0  0  0  0  0  0  0
   -1.8592   -0.1777   -0.2863 H   0  0  0  0  0  0  0  0  0  0  0  0
    0.1838    0.0363    0.2367 C   0  0  1  0  0  0  0  0  0  0  0  0
    0.5640    0.0840   -0.7831 H   0  0  0  0  0  0  0  0  0  0  0  0
    0.0714    1.4805    0.7670 C   0  0  1  0  0  0  0  0  0  0  0  0
    1.0658    1.9264    0.7556 H   0  0  0  0  0  0  0  0  0  0  0  0
   -0.8494    2.3774   -0.0581 C   0  0  0  0  0  0  0  0  0  0  0  0
   -1.8841    2.0439    0.0306 H   0  0  0  0  0  0  0  0  0  0  0  0
   -0.7739    3.4063    0.2915 H   0  0  0  0  0  0  0  0  0  0  0  0
   -0.5543    2.3394   -1.1071 H   0  0  0  0  0  0  0  0  0  0  0  0
   -0.4069    1.4970    2.0892 O   0  0  0  0  0  0  0  0  0  0  0  0
   -0.5524    2.4112    2.3414 H   0  0  0  0  0  0  0  0  0  0  0  0
    1.2025   -0.7536    1.0677 C   0  0  0  0  0  0  0  0  0  0  0  0
    2.3500   -0.3371    1.2256 O   0  0  0  0  0  0  0  0  0  0  0  0
    0.7766   -1.8926    1.6315 N   0  0  0  0  0  0  0  0  0  0  0  0
   -0.1794   -2.1702    1.4814 H   0  0  0  0  0  0  0  0  0  0  0  0
    1.6200   -2.7599    2.4526 C   0  0  0  0  0  0  0  0  0  0  0  0
    2.0782   -2.1776    3.2545 H   0  0  0  0  0  0  0  0  0  0  0  0
    1.0280   -3.5654    2.8876 H   0  0  0  0  0  0  0  0  0  0  0  0
    2.4152   -3.1876    1.8384 H   0  0  0  0  0  0  0  0  0  0  0  0
  5  6  2  0  0  0  0
  5  7  1  0  0  0  0
  2  3  1  0  0  0  0
  2  4  1  0  0  0  0
  2  5  1  0  0  0  0
  1  2  1  0  0  0  0
 19 20  2  0  0  0  0
 19 21  1  0  0  0  0
 17 18  1  0  0  0  0
 13 14  1  0  0  0  0
 13 15  1  0  0  0  0
 13 16  1  0  0  0  0
 11 12  1  0  0  0  0
 11 13  1  0  0  0  0
 11 17  1  0  0  0  0
  9 10  1  0  0  0  0
  9 11  1  0  0  0  0
  9 19  1  0  0  0  0
  7  8  1  0  0  0  0
  7  9  1  0  0  0  0
 23 24  1  0  0  0  0
 23 25  1  0  0  0  0
 23 26  1  0  0  0  0
 21 22  1  0  0  0  0
 21 23  1  0  0  0  0
M  END
$$$$
default_name
  -OEChem-01062215323D

 26 25  0     1  0  0  0  0  0999 V2000
   -2.8882   -3.2497    1.2537 H   0  0  0  0  0  0  0  0  0  0  0  0
   -2.8032   -2.3157    0.7017 C   0  0  0  0  0  0  0  0  0  0  0  0
   -3.5012   -1.5857    1.1067 H   0  0  0  0  0  0  0  0  0  0  0  0
   -3.0182   -2.4907   -0.3513 H   0  0  0  0  0  0  0  0  0  0  0  0
   -1.3942   -1.7897    0.8407 C   0  0  0  0  0  0  0  0  0  0  0  0
   -0.5672   -2.4077    1.5007 O   0  0  0  0  0  0  0  0  0  0  0  0
   -1.1222   -0.6447    0.2217 N   0  0  0  0  0  0  0  0  0  0  0  0
   -1.8592   -0.1777   -0.2863 H   0  0  0  0  0  0  0  0  0  0  0  0
    0.1838    0.0363    0.2367 C   0  0  1  0  0  0  0  0  0  0  0  0
    0.5640    0.0840   -0.7831 H   0  0  0  0  0  0  0  0  0  0  0  0
    0.0714    1.4805    0.7670 C   0  0  1  0  0  0  0  0  0  0  0  0
    1.0658    1.9264    0.7556 H   0  0  0  0  0  0  0  0  0  0  0  0
   -0.8494    2.3774   -0.0581 C   0  0  0  0  0  0  0  0  0  0  0  0
   -1.8841    2.0439    0.0306 H   0  0  0  0  0  0  0  0  0  0  0  0
   -0.7739    3.4063    0.2915 H   0  0  0  0  0  0  0  0  0  0  0  0
   -0.5543    2.3394   -1.1071 H   0  0  0  0  0  0  0  0  0  0  0  0
   -0.4069    1.4970    2.0892 O   0  0  0  0  0  0  0  0  0  0  0  0
   -0.5524    2.4112    2.3414 H   0  0  0  0  0  0  0  0  0  0  0  0
    1.2025   -0.7536    1.0677 C   0  0  0  0  0  0  0  0  0  0  0  0
    2.2458   -0.2286    1.4565 O   0  0  0  0  0  0  0  0  0  0  0  0
    0.8895   -2.0211    1.3709 N   0  0  0  0  0  0  0  0  0  0  0  0
    0.0121   -2.3875    1.0403 H   0  0  0  0  0  0  0  0  0  0  0  0
    1.7491   -2.9072    2.1542 C   0  0  0  0  0  0  0  0  0  0  0  0
    2.0132   -2.4261    3.0980 H   0  0  0  0  0  0  0  0  0  0  0  0
    1.2382   -3.8476    2.3618 H   0  0  0  0  0  0  0  0  0  0  0  0
    2.6686   -3.1105    1.6011 H   0  0  0  0  0  0  0  0  0  0  0  0
  5  6  2  0  0  0  0
  5  7  1  0  0  0  0
  2  3  1  0  0  0  0
  2  4  1  0  0  0  0
  2  5  1  0  0  0  0
  1  2  1  0  0  0  0
 19 20  2  0  0  0  0
 19 21  1  0  0  0  0
 17 18  1  0  0  0  0
 13 14  1  0  0  0  0
 13 15  1  0  0  0  0
 13 16  1  0  0  0  0
 11 12  1  0  0  0  0
 11 13  1  0  0  0  0
 11 17  1  0  0  0  0
  9 10  1  0  0  0  0
  9 11  1  0  0  0  0
  9 19  1  0  0  0  0
  7  8  1  0  0  0  0
  7  9  1  0  0  0  0
 23 24  1  0  0  0  0
 23 25  1  0  0  0  0
 23 26  1  0  0  0  0
 21 22  1  0  0  0  0
 21 23  1  0  0  0  0
M  END
$$$$
default_name
  -OEChem-01062215323D

 26 25  0     1  0  0  0  0  0999 V2000
   -2.8882   -3.2497    1.2537 H   0  0  0  0  0  0  0  0  0  0  0  0
   -2.8032   -2.3157    0.7017 C   0  0  0  0  0  0  0  0  0  0  0  0
   -3.5012   -1.5857    1.1067 H   0  0  0  0  0  0  0  0  0  0  0  0
   -3.0182   -2.4907   -0.3513 H   0  0  0  0  0  0  0  0  0  0  0  0
   -1.3942   -1.7897    0.8407 C   0  0  0  0  0  0  0  0  0  0  0  0
   -0.5672   -2.4077    1.5007 O   0  0  0  0  0  0  0  0  0  0  0  0
   -1.1222   -0.6447    0.2217 N   0  0  0  0  0  0  0  0  0  0  0  0
   -1.8592   -0.1777   -0.2863 H   0  0  0  0  0  0  0  0  0  0  0  0
    0.1838    0.0363    0.2367 C   0  0  1  0  0  0  0  0  0  0  0  0
    0.5640    0.0840   -0.7831 H   0  0  0  0  0  0  0  0  0  0  0  0
    0.0714    1.4805    0.7670 C   0  0  1  0  0  0  0  0  0  0  0  0
    1.0658    1.9264    0.7556 H   0  0  0  0  0  0  0  0  0  0  0  0
   -0.8494    2.3774   -0.0581 C   0  0  0  0  0  0  0  0  0  0  0  0
   -1.8841    2.0439    0.0306 H   0  0  0  0  0  0  0  0  0  0  0  0
   -0.7739    3.4063    0.2915 H   0  0  0  0  0  0  0  0  0  0  0  0
   -0.5543    2.3394   -1.1071 H   0  0  0  0  0  0  0  0  0  0  0  0
   -0.4069    1.4970    2.0892 O   0  0  0  0  0  0  0  0  0  0  0  0
   -0.5524    2.4112    2.3414 H   0  0  0  0  0  0  0  0  0  0  0  0
    1.2025   -0.7536    1.0677 C   0  0  0  0  0  0  0  0  0  0  0  0
    2.0991   -0.1781    1.6843 O   0  0  0  0  0  0  0  0  0  0  0  0
    1.0513   -2.0846    1.1122 N   0  0  0  0  0  0  0  0  0  0  0  0
    0.2862   -2.4947    0.6023 H   0  0  0  0  0  0  0  0  0  0  0  0
    1.9343   -2.9801    1.8578 C   0  0  0  0  0  0  0  0  0  0  0  0
    2.0060   -2.6483    2.8955 H   0  0  0  0  0  0  0  0  0  0  0  0
    1.5508   -4.0003    1.8333 H   0  0  0  0  0  0  0  0  0  0  0  0
    2.9341   -2.9598    1.4189 H   0  0  0  0  0  0  0  0  0  0  0  0
  5  6  2  0  0  0  0
  5  7  1  0  0  0  0
  2  3  1  0  0  0  0
  2  4  1  0  0  0  0
  2  5  1  0  0  0  0
  1  2  1  0  0  0  0
 19 20  2  0  0  0  0
 19 21  1  0  0  0  0
 17 18  1  0  0  0  0
 13 14  1  0  0  0  0
 13 15  1  0  0  0  0
 13 16  1  0  0  0  0
 11 12  1  0  0  0  0
 11 13  1  0  0  0  0
 11 17  1  0  0  0  0
  9 10  1  0  0  0  0
  9 11  1  0  0  0  0
  9 19  1  0  0  0  0
  7  8  1  0  0  0  0
  7  9  1  0  0  0  0
 23 24  1  0  0  0  0
 23 25  1  0  0  0  0
 23 26  1  0  0  0  0
 21 22  1  0  0  0  0
 21 23  1  0  0  0  0
M  END
$$$$
default_name
  -OEChem-01062215323D

 26 25  0     1  0  0  0  0  0999 V2000
   -2.8882   -3.2497    1.2537 H   0  0  0  0  0  0  0  0  0  0  0  0
   -2.8032   -2.3157    0.7017 C   0  0  0  0  0  0  0  0  0  0  0  0
   -3.5012   -1.5857    1.1067 H   0  0  0  0  0  0  0  0  0  0  0  0
   -3.0182   -2.4907   -0.3513 H   0  0  0  0  0  0  0  0  0  0  0  0
   -1.3942   -1.7897    0.8407 C   0  0  0  0  0  0  0  0  0  0  0  0
   -0.5672   -2.4077    1.5007 O   0  0  0  0  0  0  0  0  0  0  0  0
   -1.1222   -0.6447    0.2217 N   0  0  0  0  0  0  0  0  0  0  0  0
   -1.8592   -0.1777   -0.2863 H   0  0  0  0  0  0  0  0  0  0  0  0
    0.1838    0.0363    0.2367 C   0  0  1  0  0  0  0  0  0  0  0  0
    0.5640    0.0840   -0.7831 H   0  0  0  0  0  0  0  0  0  0  0  0
    0.0714    1.4805    0.7670 C   0  0  1  0  0  0  0  0  0  0  0  0
    1.0658    1.9264    0.7556 H   0  0  0  0  0  0  0  0  0  0  0  0
   -0.8494    2.3774   -0.0581 C   0  0  0  0  0  0  0  0  0  0  0  0
   -1.8841    2.0439    0.0306 H   0  0  0  0  0  0  0  0  0  0  0  0
   -0.7739    3.4063    0.2915 H   0  0  0  0  0  0  0  0  0  0  0  0
   -0.5543    2.3394   -1.1071 H   0  0  0  0  0  0  0  0  0  0  0  0
   -0.4069    1.4970    2.0892 O   0  0  0  0  0  0  0  0  0  0  0  0
   -0.5524    2.4112    2.3414 H   0  0  0  0  0  0  0  0  0  0  0  0
    1.2025   -0.7536    1.0677 C   0  0  0  0  0  0  0  0  0  0  0  0
    1.9200   -0.1891    1.8934 O   0  0  0  0  0  0  0  0  0  0  0  0
    1.2509   -2.0788    0.8730 N   0  0  0  0  0  0  0  0  0  0  0  0
    0.6245   -2.4845    0.1974 H   0  0  0  0  0  0  0  0  0  0  0  0
    2.1629   -2.9736    1.5838 C   0  0  0  0  0  0  0  0  0  0  0  0
    2.0573   -2.8292    2.6608 H   0  0  0  0  0  0  0  0  0  0  0  0
    1.9447   -4.0131    1.3383 H   0  0  0  0  0  0  0  0  0  0  0  0
    3.1937   -2.7456    1.3042 H   0  0  0  0  0  0  0  0  0  0  0  0
  5  6  2  0  0  0  0
  5  7  1  0  0  0  0
  2  3  1  0  0  0  0
  2  4  1  0  0  0  0
  2  5  1  0  0  0  0
  1  2  1  0  0  0  0
 19 20  2  0  0  0  0
 19 21  1  0  0  0  0
 17 18  1  0  0  0  0
 13 14  1  0  0  0  0
 13 15  1  0  0  0  0
 13 16  1  0  0  0  0
 11 12  1  0  0  0  0
 11 13  1  0  0  0  0
 11 17  1  0  0  0  0
  9 10  1  0  0  0  0
  9 11  1  0  0  0  0
  9 19  1  0  0  0  0
  7  8  1  0  0  0  0
  7  9  1  0  0  0  0
 23 24  1  0  0  0  0
 23 25  1  0  0  0  0
 23 26  1  0  0  0  0
 21 22  1  0  0  0  0
 21 23  1  0  0  0  0
M  END
$$$$
default_name
  -OEChem-01062215323D

 26 25  0     1  0  0  0  0  0999 V2000
   -2.8882   -3.2497    1.2537 H   0  0  0  0  0  0  0  0  0  0  0  0
   -2.8032   -2.3157    0.7017 C   0  0  0  0  0  0  0  0  0  0  0  0
   -3.5012   -1.5857    1.1067 H   0  0  0  0  0  0  0  0  0  0  0  0
   -3.0182   -2.4907   -0.3513 H   0  0  0  0  0  0  0  0  0  0  0  0
   -1.3942   -1.7897    0.8407 C   0  0  0  0  0  0  0  0  0  0  0  0
   -0.5672   -2.4077    1.5007 O   0  0  0  0  0  0  0  0  0  0  0  0
   -1.1222   -0.6447    0.2217 N   0  0  0  0  0  0  0  0  0  0  0  0
   -1.8592   -0.1777   -0.2863 H   0  0  0  0  0  0  0  0  0  0  0  0
    0.1838    0.0363    0.2367 C   0  0  1  0  0  0  0  0  0  0  0  0
    0.5640    0.0840   -0.7831 H   0  0  0  0  0  0  0  0  0  0  0  0
    0.0714    1.4805    0.7670 C   0  0  1  0  0  0  0  0  0  0  0  0
    1.0658    1.9264    0.7556 H   0  0  0  0  0  0  0  0  0  0  0  0
   -0.8494    2.3774   -0.0581 C   0  0  0  0  0  0  0  0  0  0  0  0
   -1.8841    2.0439    0.0306 H   0  0  0  0  0  0  0  0  0  0  0  0
   -0.7739    3.4063    0.2915 H   0  0  0  0  0  0  0  0  0  0  0  0
   -0.5543    2.3394   -1.1071 H   0  0  0  0  0  0  0  0  0  0  0  0
   -0.4069    1.4970    2.0892 O   0  0  0  0  0  0  0  0  0  0  0  0
   -0.5524    2.4112    2.3414 H   0  0  0  0  0  0  0  0  0  0  0  0
    1.2025   -0.7536    1.0677 C   0  0  0  0  0  0  0  0  0  0  0  0
    1.7207   -0.2608    2.0696 O   0  0  0  0  0  0  0  0  0  0  0  0
    1.4749   -2.0041    0.6695 N   0  0  0  0  0  0  0  0  0  0  0  0
    1.0037   -2.3576   -0.1469 H   0  0  0  0  0  0  0  0  0  0  0  0
    2.4194   -2.8882    1.3506 C   0  0  0  0  0  0  0  0  0  0  0  0
    2.1635   -2.9563    2.4098 H   0  0  0  0  0  0  0  0  0  0  0  0
    2.3929   -3.8852    0.9105 H   0  0  0  0  0  0  0  0  0  0  0  0
    3.4297   -2.4826    1.2648 H   0  0  0  0  0  0  0  0  0  0  0  0
  5  6  2  0  0  0  0
  5  7  1  0  0  0  0
  2  3  1  0  0  0  0
  2  4  1  0  0  0  0
  2  5  1  0  0  0  0
  1  2  1  0  0  0  0
 19 20  2  0  0  0  0
 19 21  1  0  0  0  0
 17 18  1  0  0  0  0
 13 14  1  0  0  0  0
 13 15  1  0  0  0  0
 13 16  1  0  0  0  0
 11 12  1  0  0  0  0
 11 13  1  0  0  0  0
 11 17  1  0  0  0  0
  9 10  1  0  0  0  0
  9 11  1  0  0  0  0
  9 19  1  0  0  0  0
  7  8  1  0  0  0  0
  7  9  1  0  0  0  0
 23 24  1  0  0  0  0
 23 25  1  0  0  0  0
 23 26  1  0  0  0  0
 21 22  1  0  0  0  0
 21 23  1  0  0  0  0
M  END
$$$$
default_name
  -OEChem-01062215323D

 26 25  0     1  0  0  0  0  0999 V2000
   -2.8882   -3.2497    1.2537 H   0  0  0  0  0  0  0  0  0  0  0  0
   -2.8032   -2.3157    0.7017 C   0  0  0  0  0  0  0  0  0  0  0  0
   -3.5012   -1.5857    1.1067 H   0  0  0  0  0  0  0  0  0  0  0  0
   -3.0182   -2.4907   -0.3513 H   0  0  0  0  0  0  0  0  0  0  0  0
   -1.3942   -1.7897    0.8407 C   0  0  0  0  0  0  0  0  0  0  0  0
   -0.5672   -2.4077    1.5007 O   0  0  0  0  0  0  0  0  0  0  0  0
   -1.1222   -0.6447    0.2217 N   0  0  0  0  0  0  0  0  0  0  0  0
   -1.8592   -0.1777   -0.2863 H   0  0  0  0  0  0  0  0  0  0  0  0
    0.1838    0.0363    0.2367 C   0  0  1  0  0  0  0  0  0  0  0  0
    0.5640    0.0840   -0.7831 H   0  0  0  0  0  0  0  0  0  0  0  0
    0.0714    1.4805    0.7670 C   0  0  1  0  0  0  0  0  0  0  0  0
    1.0658    1.9264    0.7556 H   0  0  0  0  0  0  0  0  0  0  0  0
   -0.8494    2.3774   -0.0581 C   0  0  0  0  0  0  0  0  0  0  0  0
   -1.8841    2.0439    0.0306 H   0  0  0  0  0  0  0  0  0  0  0  0
   -0.7739    3.4063    0.2915 H   0  0  0  0  0  0  0  0  0  0  0  0
   -0.5543    2.3394   -1.1071 H   0  0  0  0  0  0  0  0  0  0  0  0
   -0.4069    1.4970    2.0892 O   0  0  0  0  0  0  0  0  0  0  0  0
   -0.5524    2.4112    2.3414 H   0  0  0  0  0  0  0  0  0  0  0  0
    1.2025   -0.7536    1.0677 C   0  0  0  0  0  0  0  0  0  0  0  0
    1.5147   -0.3883    2.2010 O   0  0  0  0  0  0  0  0  0  0  0  0
    1.7078   -1.8655    0.5156 N   0  0  0  0  0  0  0  0  0  0  0  0
    1.3981   -2.1226   -0.4071 H   0  0  0  0  0  0  0  0  0  0  0  0
    2.6862   -2.7296    1.1743 C   0  0  0  0  0  0  0  0  0  0  0  0
    2.3173   -3.0211    2.1596 H   0  0  0  0  0  0  0  0  0  0  0  0
    2.8649   -3.6252    0.5790 H   0  0  0  0  0  0  0  0  0  0  0  0
    3.6261   -2.1887    1.3035 H   0  0  0  0  0  0  0  0  0  0  0  0
  5  6  2  0  0  0  0
  5  7  1  0  0  0  0
  2  3  1  0  0  0  0
  2  4  1  0  0  0  0
  2  5  1  0  0  0  0
  1  2  1  0  0  0  0
 19 20  2  0  0  0  0
 19 21  1  0  0  0  0
 17 18  1  0  0  0  0
 13 14  1  0  0  0  0
 13 15  1  0  0  0  0
 13 16  1  0  0  0  0
 11 12  1  0  0  0  0
 11 13  1  0  0  0  0
 11 17  1  0  0  0  0
  9 10  1  0  0  0  0
  9 11  1  0  0  0  0
  9 19  1  0  0  0  0
  7  8  1  0  0  0  0
  7  9  1  0  0  0  0
 23 24  1  0  0  0  0
 23 25  1  0  0  0  0
 23 26  1  0  0  0  0
 21 22  1  0  0  0  0
 21 23  1  0  0  0  0
M  END
$$$$
default_name
  -OEChem-01062215323D

 26 25  0     1  0  0  0  0  0999 V2000
   -2.8882   -3.2497    1.2537 H   0  0  0  0  0  0  0  0  0  0  0  0
   -2.8032   -2.3157    0.7017 C   0  0  0  0  0  0  0  0  0  0  0  0
   -3.5012   -1.5857    1.1067 H   0  0  0  0  0  0  0  0  0  0  0  0
   -3.0182   -2.4907   -0.3513 H   0  0  0  0  0  0  0  0  0  0  0  0
   -1.3942   -1.7897    0.8407 C   0  0  0  0  0  0  0  0  0  0  0  0
   -0.5672   -2.4077    1.5007 O   0  0  0  0  0  0  0  0  0  0  0  0
   -1.1222   -0.6447    0.2217 N   0  0  0  0  0  0  0  0  0  0  0  0
   -1.8592   -0.1777   -0.2863 H   0  0  0  0  0  0  0  0  0  0  0  0
    0.1838    0.0363    0.2367 C   0  0  1  0  0  0  0  0  0  0  0  0
    0.5640    0.0840   -0.7831 H   0  0  0  0  0  0  0  0  0  0  0  0
    0.0714    1.4805    0.7670 C   0  0  1  0  0  0  0  0  0  0  0  0
    1.0658    1.9264    0.7556 H   0  0  0  0  0  0  0  0  0  0  0  0
   -0.8494    2.3774   -0.0581 C   0  0  0  0  0  0  0  0  0  0  0  0
   -1.8841    2.0439    0.0306 H   0  0  0  0  0  0  0  0  0  0  0  0
   -0.7739    3.4063    0.2915 H   0  0  0  0  0  0  0  0  0  0  0  0
   -0.5543    2.3394   -1.1071 H   0  0  0  0  0  0  0  0  0  0  0  0
   -0.4069    1.4970    2.0892 O   0  0  0  0  0  0  0  0  0  0  0  0
   -0.5524    2.4112    2.3414 H   0  0  0  0  0  0  0  0  0  0  0  0
    1.2025   -0.7536    1.0677 C   0  0  0  0  0  0  0  0  0  0  0  0
    1.3161   -0.5629    2.2785 O   0  0  0  0  0  0  0  0  0  0  0  0
    1.9339   -1.6725    0.4219 N   0  0  0  0  0  0  0  0  0  0  0  0
    1.7809   -1.7956   -0.5655 H   0  0  0  0  0  0  0  0  0  0  0  0
    2.9452   -2.5087    1.0667 C   0  0  0  0  0  0  0  0  0  0  0  0
    2.5083   -3.0191    1.9274 H   0  0  0  0  0  0  0  0  0  0  0  0
    3.3286   -3.2509    0.3663 H   0  0  0  0  0  0  0  0  0  0  0  0
    3.7694   -1.8839    1.4175 H   0  0  0  0  0  0  0  0  0  0  0  0
  5  6  2  0  0  0  0
  5  7  1  0  0  0  0
  2  3  1  0  0  0  0
  2  4  1  0  0  0  0
  2  5  1  0  0  0  0
  1  2  1  0  0  0  0
 19 20  2  0  0  0  0
 19 21  1  0  0  0  0
 17 18  1  0  0  0  0
 13 14  1  0  0  0  0
 13 15  1  0  0  0  0
 13 16  1  0  0  0  0
 11 12  1  0  0  0  0
 11 13  1  0  0  0  0
 11 17  1  0  0  0  0
  9 10  1  0  0  0  0
  9 11  1  0  0  0  0
  9 19  1  0  0  0  0
  7  8  1  0  0  0  0
  7  9  1  0  0  0  0
 23 24  1  0  0  0  0
 23 25  1  0  0  0  0
 23 26  1  0  0  0  0
 21 22  1  0  0  0  0
 21 23  1  0  0  0  0
M  END
$$$$
default_name
  -OEChem-01062215323D

 26 25  0     1  0  0  0  0  0999 V2000
   -2.8882   -3.2497    1.2537 H   0  0  0  0  0  0  0  0  0  0  0  0
   -2.8032   -2.3157    0.7017 C   0  0  0  0  0  0  0  0  0  0  0  0
   -3.5012   -1.5857    1.1067 H   0  0  0  0  0  0  0  0  0  0  0  0
   -3.0182   -2.4907   -0.3513 H   0  0  0  0  0  0  0  0  0  0  0  0
   -1.3942   -1.7897    0.8407 C   0  0  0  0  0  0  0  0  0  0  0  0
   -0.5672   -2.4077    1.5007 O   0  0  0  0  0  0  0  0  0  0  0  0
   -1.1222   -0.6447    0.2217 N   0  0  0  0  0  0  0  0  0  0  0  0
   -1.8592   -0.1777   -0.2863 H   0  0  0  0  0  0  0  0  0  0  0  0
    0.1838    0.0363    0.2367 C   0  0  1  0  0  0  0  0  0  0  0  0
    0.5640    0.0840   -0.7831 H   0  0  0  0  0  0  0  0  0  0  0  0
    0.0714    1.4805    0.7670 C   0  0  1  0  0  0  0  0  0  0  0  0
    1.0658    1.9264    0.7556 H   0  0  0  0  0  0  0  0  0  0  0  0
   -0.8494    2.3774   -0.0581 C   0  0  0  0  0  0  0  0  0  0  0  0
   -1.8841    2.0439    0.0306 H   0  0  0  0  0  0  0  0  0  0  0  0
   -0.7739    3.4063    0.2915 H   0  0  0  0  0  0  0  0  0  0  0  0
   -0.5543    2.3394   -1.1071 H   0  0  0  0  0  0  0  0  0  0  0  0
   -0.4069    1.4970    2.0892 O   0  0  0  0  0  0  0  0  0  0  0  0
   -0.5524    2.4112    2.3414 H   0  0  0  0  0  0  0  0  0  0  0  0
    1.2025   -0.7536    1.0677 C   0  0  0  0  0  0  0  0  0  0  0  0
    1.1384   -0.7727    2.2968 O   0  0  0  0  0  0  0  0  0  0  0  0
    2.1377   -1.4383    0.3947 N   0  0  0  0  0  0  0  0  0  0  0  0
    2.1258   -1.3989   -0.6112 H   0  0  0  0  0  0  0  0  0  0  0  0
    3.1787   -2.2405    1.0354 C   0  0  0  0  0  0  0  0  0  0  0  0
    2.7235   -2.9504    1.7288 H   0  0  0  0  0  0  0  0  0  0  0  0
    3.7523   -2.7878    0.2871 H   0  0  0  0  0  0  0  0  0  0  0  0
    3.8499   -1.5891    1.5992 H   0  0  0  0  0  0  0  0  0  0  0  0
  5  6  2  0  0  0  0
  5  7  1  0  0  0  0
  2  3  1  0  0  0  0
  2  4  1  0  0  0  0
  2  5  1  0  0  0  0
  1  2  1  0  0  0  0
 19 20  2  0  0  0  0
 19 21  1  0  0  0  0
 17 18  1  0  0  0  0
 13 14  1  0  0  0  0
 13 15  1  0  0  0  0
 13 16  1  0  0  0  0
 11 12  1  0  0  0  0
 11 13  1  0  0  0  0
 11 17  1  0  0  0  0
  9 10  1  0  0  0  0
  9 11  1  0  0  0  0
  9 19  1  0  0  0  0
  7  8  1  0  0  0  0
  7  9  1  0  0  0  0
 23 24  1  0  0  0  0
 23 25  1  0  0  0  0
 23 26  1  0  0  0  0
 21 22  1  0  0  0  0
 21 23  1  0  0  0  0
M  END
$$$$
default_name
  -OEChem-01062215323D

 26 25  0     1  0  0  0  0  0999 V2000
   -2.8882   -3.2497    1.2537 H   0  0  0  0  0  0  0  0  0  0  0  0
   -2.8032   -2.3157    0.7017 C   0  0  0  0  0  0  0  0  0  0  0  0
   -3.5012   -1.5857    1.1067 H   0  0  0  0  0  0  0  0  0  0  0  0
   -3.0182   -2.4907   -0.3513 H   0  0  0  0  0  0  0  0  0  0  0  0
   -1.3942   -1.7897    0.8407 C   0  0  0  0  0  0  0  0  0  0  0  0
   -0.5672   -2.4077    1.5007 O   0  0  0  0  0  0  0  0  0  0  0  0
   -1.1222   -0.6447    0.2217 N   0  0  0  0  0  0  0  0  0  0  0  0
   -1.8592   -0.1777   -0.2863 H   0  0  0  0  0  0  0  0  0  0  0  0
    0.1838    0.0363    0.2367 C   0  0  1  0  0  0  0  0  0  0  0  0
    0.5640    0.0840   -0.7831 H   0  0  0  0  0  0  0  0  0  0  0  0
    0.0714    1.4805    0.7670 C   0  0  1  0  0  0  0  0  0  0  0  0
    1.0658    1.9264    0.7556 H   0  0  0  0  0  0  0  0  0  0  0  0
   -0.8494    2.3774   -0.0581 C   0  0  0  0  0  0  0  0  0  0  0  0
   -1.8841    2.0439    0.0306 H   0  0  0  0  0  0  0  0  0  0  0  0
   -0.7739    3.4063    0.2915 H   0  0  0  0  0  0  0  0  0  0  0  0
   -0.5543    2.3394   -1.1071 H   0  0  0  0  0  0  0  0  0  0  0  0
   -0.4069    1.4970    2.0892 O   0  0  0  0  0  0  0  0  0  0  0  0
   -0.5524    2.4112    2.3414 H   0  0  0  0  0  0  0  0  0  0  0  0
    1.2025   -0.7536    1.0677 C   0  0  0  0  0  0  0  0  0  0  0  0
    0.9938   -1.0034    2.2548 O   0  0  0  0  0  0  0  0  0  0  0  0
    2.3054   -1.1788    0.4358 N   0  0  0  0  0  0  0  0  0  0  0  0
    2.4094   -0.9594   -0.5412 H   0  0  0  0  0  0  0  0  0  0  0  0
    3.3708   -1.9433    1.0824 C   0  0  0  0  0  0  0  0  0  0  0  0
    2.9482   -2.8198    1.5775 H   0  0  0  0  0  0  0  0  0  0  0  0
    4.1072   -2.2674    0.3467 H   0  0  0  0  0  0  0  0  0  0  0  0
    3.8620   -1.3242    1.8360 H   0  0  0  0  0  0  0  0  0  0  0  0
  5  6  2  0  0  0  0
  5  7  1  0  0  0  0
  2  3  1  0  0  0  0
  2  4  1  0  0  0  0
  2  5  1  0  0  0  0
  1  2  1  0  0  0  0
 19 20  2  0  0  0  0
 19 21  1  0  0  0  0
 17 18  1  0  0  0  0
 13 14  1  0  0  0  0
 13 15  1  0  0  0  0
 13 16  1  0  0  0  0
 11 12  1  0  0  0  0
 11 13  1  0  0  0  0
 11 17  1  0  0  0  0
  9 10  1  0  0  0  0
  9 11  1  0  0  0  0
  9 19  1  0  0  0  0
  7  8  1  0  0  0  0
  7  9  1  0  0  0  0
 23 24  1  0  0  0  0
 23 25  1  0  0  0  0
 23 26  1  0  0  0  0
 21 22  1  0  0  0  0
 21 23  1  0  0  0  0
M  END
$$$$
default_name
  -OEChem-01062215323D

 26 25  0     1  0  0  0  0  0999 V2000
   -2.8882   -3.2497    1.2537 H   0  0  0  0  0  0  0  0  0  0  0  0
   -2.8032   -2.3157    0.7017 C   0  0  0  0  0  0  0  0  0  0  0  0
   -3.5012   -1.5857    1.1067 H   0  0  0  0  0  0  0  0  0  0  0  0
   -3.0182   -2.4907   -0.3513 H   0  0  0  0  0  0  0  0  0  0  0  0
   -1.3942   -1.7897    0.8407 C   0  0  0  0  0  0  0  0  0  0  0  0
   -0.5672   -2.4077    1.5007 O   0  0  0  0  0  0  0  0  0  0  0  0
   -1.1222   -0.6447    0.2217 N   0  0  0  0  0  0  0  0  0  0  0  0
   -1.8592   -0.1777   -0.2863 H   0  0  0  0  0  0  0  0  0  0  0  0
    0.1838    0.0363    0.2367 C   0  0  1  0  0  0  0  0  0  0  0  0
    0.5640    0.0840   -0.7831 H   0  0  0  0  0  0  0  0  0  0  0  0
    0.0714    1.4805    0.7670 C   0  0  1  0  0  0  0  0  0  0  0  0
    1.0658    1.9264    0.7556 H   0  0  0  0  0  0  0  0  0  0  0  0
   -0.8494    2.3774   -0.0581 C   0  0  0  0  0  0  0  0  0  0  0  0
   -1.8841    2.0439    0.0306 H   0  0  0  0  0  0  0  0  0  0  0  0
   -0.7739    3.4063    0.2915 H   0  0  0  0  0  0  0  0  0  0  0  0
   -0.5543    2.3394   -1.1071 H   0  0  0  0  0  0  0  0  0  0  0  0
   -0.4069    1.4970    2.0892 O   0  0  0  0  0  0  0  0  0  0  0  0
   -0.5524    2.4112    2.3414 H   0  0  0  0  0  0  0  0  0  0  0  0
    1.2025   -0.7536    1.0677 C   0  0  0  0  0  0  0  0  0  0  0  0
    0.8920   -1.2394    2.1553 O   0  0  0  0  0  0  0  0  0  0  0  0
    2.4255   -0.9117    0.5425 N   0  0  0  0  0  0  0  0  0  0  0  0
    2.6124   -0.5072   -0.3602 H   0  0  0  0  0  0  0  0  0  0  0  0
    3.5085   -1.6374    1.2044 C   0  0  0  0  0  0  0  0  0  0  0  0
    3.1671   -2.6361    1.4838 H   0  0  0  0  0  0  0  0  0  0  0  0
    4.3691   -1.7252    0.5410 H   0  0  0  0  0  0  0  0  0  0  0  0
    3.8051   -1.1073    2.1120 H   0  0  0  0  0  0  0  0  0  0  0  0
  5  6  2  0  0  0  0
  5  7  1  0  0  0  0
  2  3  1  0  0  0  0
  2  4  1  0  0  0  0
  2  5  1  0  0  0  0
  1  2  1  0  0  0  0
 19 20  2  0  0  0  0
 19 21  1  0  0  0  0
 17 18  1  0  0  0  0
 13 14  1  0  0  0  0
 13 15  1  0  0  0  0
 13 16  1  0  0  0  0
 11 12  1  0  0  0  0
 11 13  1  0  0  0  0
 11 17  1  0  0  0  0
  9 10  1  0  0  0  0
  9 11  1  0  0  0  0
  9 19  1  0  0  0  0
  7  8  1  0  0  0  0
  7  9  1  0  0  0  0
 23 24  1  0  0  0  0
 23 25  1  0  0  0  0
 23 26  1  0  0  0  0
 21 22  1  0  0  0  0
 21 23  1  0  0  0  0
M  END
$$$$
default_name
  -OEChem-01062215323D

 26 25  0     1  0  0  0  0  0999 V2000
   -2.8882   -3.2497    1.2537 H   0  0  0  0  0  0  0  0  0  0  0  0
   -2.8032   -2.3157    0.7017 C   0  0  0  0  0  0  0  0  0  0  0  0
   -3.5012   -1.5857    1.1067 H   0  0  0  0  0  0  0  0  0  0  0  0
   -3.0182   -2.4907   -0.3513 H   0  0  0  0  0  0  0  0  0  0  0  0
   -1.3942   -1.7897    0.8407 C   0  0  0  0  0  0  0  0  0  0  0  0
   -0.5672   -2.4077    1.5007 O   0  0  0  0  0  0  0  0  0  0  0  0
   -1.1222   -0.6447    0.2217 N   0  0  0  0  0  0  0  0  0  0  0  0
   -1.8592   -0.1777   -0.2863 H   0  0  0  0  0  0  0  0  0  0  0  0
    0.1838    0.0363    0.2367 C   0  0  1  0  0  0  0  0  0  0  0  0
    0.5640    0.0840   -0.7831 H   0  0  0  0  0  0  0  0  0  0  0  0
    0.0714    1.4805    0.7670 C   0  0  1  0  0  0  0  0  0  0  0  0
    1.0658    1.9264    0.7556 H   0  0  0  0  0  0  0  0  0  0  0  0
   -0.8494    2.3774   -0.0581 C   0  0  0  0  0  0  0  0  0  0  0  0
   -1.8841    2.0439    0.0306 H   0  0  0  0  0  0  0  0  0  0  0  0
   -0.7739    3.4063    0.2915 H   0  0  0  0  0  0  0  0  0  0  0  0
   -0.5543    2.3394   -1.1071 H   0  0  0  0  0  0  0  0  0  0  0  0
   -0.4069    1.4970    2.0892 O   0  0  0  0  0  0  0  0  0  0  0  0
   -0.5524    2.4112    2.3414 H   0  0  0  0  0  0  0  0  0  0  0  0
    1.2025   -0.7536    1.0677 C   0  0  0  0  0  0  0  0  0  0  0  0
    0.8401   -1.4644    2.0050 O   0  0  0  0  0  0  0  0  0  0  0  0
    2.4898   -0.6552    0.7075 N   0  0  0  0  0  0  0  0  0  0  0  0
    2.7210   -0.0730   -0.0806 H   0  0  0  0  0  0  0  0  0  0  0  0
    3.5823   -1.3436    1.3933 C   0  0  0  0  0  0  0  0  0  0  0  0
    3.3653   -2.4119    1.4540 H   0  0  0  0  0  0  0  0  0  0  0  0
    4.5201   -1.1982    0.8568 H   0  0  0  0  0  0  0  0  0  0  0  0
    3.6828   -0.9533    2.4083 H   0  0  0  0  0  0  0  0  0  0  0  0
  5  6  2  0  0  0  0
  5  7  1  0  0  0  0
  2  3  1  0  0  0  0
  2  4  1  0  0  0  0
  2  5  1  0  0  0  0
  1  2  1  0  0  0  0
 19 20  2  0  0  0  0
 19 21  1  0  0  0  0
 17 18  1  0  0  0  0
 13 14  1  0  0  0  0
 13 15  1  0  0  0  0
 13 16  1  0  0  0  0
 11 12  1  0  0  0  0
 11 13  1  0  0  0  0
 11 17  1  0  0  0  0
  9 10  1  0  0  0  0
  9 11  1  0  0  0  0
  9 19  1  0  0  0  0
  7  8  1  0  0  0  0
  7  9  1  0  0  0  0
 23 24  1  0  0  0  0
 23 25  1  0  0  0  0
 23 26  1  0  0  0  0
 21 22  1  0  0  0  0
 21 23  1  0  0  0  0
M  END
$$$$
default_name
  -OEChem-01062215323D

 26 25  0     1  0  0  0  0  0999 V2000
   -2.8882   -3.2497    1.2537 H   0  0  0  0  0  0  0  0  0  0  0  0
   -2.8032   -2.3157    0.7017 C   0  0  0  0  0  0  0  0  0  0  0  0
   -3.5012   -1.5857    1.1067 H   0  0  0  0  0  0  0  0  0  0  0  0
   -3.0182   -2.4907   -0.3513 H   0  0  0  0  0  0  0  0  0  0  0  0
   -1.3942   -1.7897    0.8407 C   0  0  0  0  0  0  0  0  0  0  0  0
   -0.5672   -2.4077    1.5007 O   0  0  0  0  0  0  0  0  0  0  0  0
   -1.1222   -0.6447    0.2217 N   0  0  0  0  0  0  0  0  0  0  0  0
   -1.8592   -0.1777   -0.2863 H   0  0  0  0  0  0  0  0  0  0  0  0
    0.1838    0.0363    0.2367 C   0  0  1  0  0  0  0  0  0  0  0  0
    0.5640    0.0840   -0.7831 H   0  0  0  0  0  0  0  0  0  0  0  0
    0.0714    1.4805    0.7670 C   0  0  1  0  0  0  0  0  0  0  0  0
    1.0658    1.9264    0.7556 H   0  0  0  0  0  0  0  0  0  0  0  0
   -0.8494    2.3774   -0.0581 C   0  0  0  0  0  0  0  0  0  0  0  0
   -1.8841    2.0439    0.0306 H   0  0  0  0  0  0  0  0  0  0  0  0
   -0.7739    3.4063    0.2915 H   0  0  0  0  0  0  0  0  0  0  0  0
   -0.5543    2.3394   -1.1071 H   0  0  0  0  0  0  0  0  0  0  0  0
   -0.4069    1.4970    2.0892 O   0  0  0  0  0  0  0  0  0  0  0  0
   -0.5524    2.4112    2.3414 H   0  0  0  0  0  0  0  0  0  0  0  0
    1.2025   -0.7536    1.0677 C   0  0  0  0  0  0  0  0  0  0  0  0
    0.8415   -1.6633    1.8142 O   0  0  0  0  0  0  0  0  0  0  0  0
    2.4939   -0.4268    0.9195 N   0  0  0  0  0  0  0  0  0  0  0  0
    2.7277    0.3135    0.2786 H   0  0  0  0  0  0  0  0  0  0  0  0
    3.5872   -1.0819    1.6360 C   0  0  0  0  0  0  0  0  0  0  0  0
    3.5292   -2.1624    1.4903 H   0  0  0  0  0  0  0  0  0  0  0  0
    4.5500   -0.7222    1.2726 H   0  0  0  0  0  0  0  0  0  0  0  0
    3.5037   -0.8726    2.7046 H   0  0  0  0  0  0  0  0  0  0  0  0
  5  6  2  0  0  0  0
  5  7  1  0  0  0  0
  2  3  1  0  0  0  0
  2  4  1  0  0  0  0
  2  5  1  0  0  0  0
  1  2  1  0  0  0  0
 19 20  2  0  0  0  0
 19 21  1  0  0  0  0
 17 18  1  0  0  0  0
 13 14  1  0  0  0  0
 13 15  1  0  0  0  0
 13 16  1  0  0  0  0
 11 12  1  0  0  0  0
 11 13  1  0  0  0  0
 11 17  1  0  0  0  0
  9 10  1  0  0  0  0
  9 11  1  0  0  0  0
  9 19  1  0  0  0  0
  7  8  1  0  0  0  0
  7  9  1  0  0  0  0
 23 24  1  0  0  0  0
 23 25  1  0  0  0  0
 23 26  1  0  0  0  0
 21 22  1  0  0  0  0
 21 23  1  0  0  0  0
M  END
$$$$
default_name
  -OEChem-01062215323D

 26 25  0     1  0  0  0  0  0999 V2000
   -2.8882   -3.2497    1.2537 H   0  0  0  0  0  0  0  0  0  0  0  0
   -2.8032   -2.3157    0.7017 C   0  0  0  0  0  0  0  0  0  0  0  0
   -3.5012   -1.5857    1.1067 H   0  0  0  0  0  0  0  0  0  0  0  0
   -3.0182   -2.4907   -0.3513 H   0  0  0  0  0  0  0  0  0  0  0  0
   -1.3942   -1.7897    0.8407 C   0  0  0  0  0  0  0  0  0  0  0  0
   -0.5672   -2.4077    1.5007 O   0  0  0  0  0  0  0  0  0  0  0  0
   -1.1222   -0.6447    0.2217 N   0  0  0  0  0  0  0  0  0  0  0  0
   -1.8592   -0.1777   -0.2863 H   0  0  0  0  0  0  0  0  0  0  0  0
    0.1838    0.0363    0.2367 C   0  0  1  0  0  0  0  0  0  0  0  0
    0.4395    0.3229   -0.7828 H   0  0  0  0  0  0  0  0  0  0  0  0
    0.1522    1.3184    1.0940 C   0  0  1  0  0  0  0  0  0  0  0  0
    1.1430    1.7714    1.0667 H   0  0  0  0  0  0  0  0  0  0  0  0
   -0.8507    2.3651    0.6129 C   0  0  0  0  0  0  0  0  0  0  0  0
   -1.8710    2.0030    0.7454 H   0  0  0  0  0  0  0  0  0  0  0  0
   -0.7222    3.2876    1.1779 H   0  0  0  0  0  0  0  0  0  0  0  0
   -0.6840    2.5736   -0.4443 H   0  0  0  0  0  0  0  0  0  0  0  0
   -0.1639    1.0232    2.4320 O   0  0  0  0  0  0  0  0  0  0  0  0
   -0.2677    1.8527    2.9030 H   0  0  0  0  0  0  0  0  0  0  0  0
    1.2858   -0.9061    0.7364 C   0  0  0  0  0  0  0  0  0  0  0  0
    1.0330   -2.0724    1.0378 O   0  0  0  0  0  0  0  0  0  0  0  0
    2.5293   -0.4099    0.7996 N   0  0  0  0  0  0  0  0  0  0  0  0
    2.6757    0.5463    0.5206 H   0  0  0  0  0  0  0  0  0  0  0  0
    3.6897   -1.1755    1.2522 C   0  0  0  0  0  0  0  0  0  0  0  0
    3.7629   -2.1054    0.6847 H   0  0  0  0  0  0  0  0  0  0  0  0
    4.6042   -0.5984    1.1141 H   0  0  0  0  0  0  0  0  0  0  0  0
    3.5762   -1.4243    2.3095 H   0  0  0  0  0  0  0  0  0  0  0  0
  5  6  2  0  0  0  0
  5  7  1  0  0  0  0
  2  3  1  0  0  0  0
  2  4  1  0  0  0  0
  2  5  1  0  0  0  0
  1  2  1  0  0  0  0
 19 20  2  0  0  0  0
 19 21  1  0  0  0  0
 17 18  1  0  0  0  0
 13 14  1  0  0  0  0
 13 15  1  0  0  0  0
 13 16  1  0  0  0  0
 11 12  1  0  0  0  0
 11 13  1  0  0  0  0
 11 17  1  0  0  0  0
  9 10  1  0  0  0  0
  9 11  1  0  0  0  0
  9 19  1  0  0  0  0
  7  8  1  0  0  0  0
  7  9  1  0  0  0  0
 23 24  1  0  0  0  0
 23 25  1  0  0  0  0
 23 26  1  0  0  0  0
 21 22  1  0  0  0  0
 21 23  1  0  0  0  0
M  END
$$$$
default_name
  -OEChem-01062215323D

 26 25  0     1  0  0  0  0  0999 V2000
   -2.8882   -3.2497    1.2537 H   0  0  0  0  0  0  0  0  0  0  0  0
   -2.8032   -2.3157    0.7017 C   0  0  0  0  0  0  0  0  0  0  0  0
   -3.5012   -1.5857    1.1067 H   0  0  0  0  0  0  0  0  0  0  0  0
   -3.0182   -2.4907   -0.3513 H   0  0  0  0  0  0  0  0  0  0  0  0
   -1.3942   -1.7897    0.8407 C   0  0  0  0  0  0  0  0  0  0  0  0
   -0.5672   -2.4077    1.5007 O   0  0  0  0  0  0  0  0  0  0  0  0
   -1.1222   -0.6447    0.2217 N   0  0  0  0  0  0  0  0  0  0  0  0
   -1.8592   -0.1777   -0.2863 H   0  0  0  0  0  0  0  0  0  0  0  0
    0.1838    0.0363    0.2367 C   0  0  1  0  0  0  0  0  0  0  0  0
    0.4395    0.3229   -0.7828 H   0  0  0  0  0  0  0  0  0  0  0  0
    0.1522    1.3184    1.0940 C   0  0  1  0  0  0  0  0  0  0  0  0
    1.1430    1.7714    1.0667 H   0  0  0  0  0  0  0  0  0  0  0  0
   -0.8507    2.3651    0.6129 C   0  0  0  0  0  0  0  0  0  0  0  0
   -1.8710    2.0030    0.7454 H   0  0  0  0  0  0  0  0  0  0  0  0
   -0.7222    3.2876    1.1779 H   0  0  0  0  0  0  0  0  0  0  0  0
   -0.6840    2.5736   -0.4443 H   0  0  0  0  0  0  0  0  0  0  0  0
   -0.1639    1.0232    2.4320 O   0  0  0  0  0  0  0  0  0  0  0  0
   -0.2677    1.8527    2.9030 H   0  0  0  0  0  0  0  0  0  0  0  0
    1.2858   -0.9061    0.7364 C   0  0  0  0  0  0  0  0  0  0  0  0
    1.1076   -2.1233    0.7775 O   0  0  0  0  0  0  0  0  0  0  0  0
    2.4500   -0.3464    1.0942 N   0  0  0  0  0  0  0  0  0  0  0  0
    2.5410    0.6534    1.0195 H   0  0  0  0  0  0  0  0  0  0  0  0
    3.5990   -1.1027    1.5897 C   0  0  0  0  0  0  0  0  0  0  0  0
    3.8490   -1.8984    0.8851 H   0  0  0  0  0  0  0  0  0  0  0  0
    4.4618   -0.4478    1.7119 H   0  0  0  0  0  0  0  0  0  0  0  0
    3.3523   -1.5579    2.5513 H   0  0  0  0  0  0  0  0  0  0  0  0
  5  6  2  0  0  0  0
  5  7  1  0  0  0  0
  2  3  1  0  0  0  0
  2  4  1  0  0  0  0
  2  5  1  0  0  0  0
  1  2  1  0  0  0  0
 19 20  2  0  0  0  0
 19 21  1  0  0  0  0
 17 18  1  0  0  0  0
 13 14  1  0  0  0  0
 13 15  1  0  0  0  0
 13 16  1  0  0  0  0
 11 12  1  0  0  0  0
 11 13  1  0  0  0  0
 11 17  1  0  0  0  0
  9 10  1  0  0  0  0
  9 11  1  0  0  0  0
  9 19  1  0  0  0  0
  7  8  1  0  0  0  0
  7  9  1  0  0  0  0
 23 24  1  0  0  0  0
 23 25  1  0  0  0  0
 23 26  1  0  0  0  0
 21 22  1  0  0  0  0
 21 23  1  0  0  0  0
M  END
$$$$
default_name
  -OEChem-01062215323D

 26 25  0     1  0  0  0  0  0999 V2000
   -2.8882   -3.2497    1.2537 H   0  0  0  0  0  0  0  0  0  0  0  0
   -2.8032   -2.3157    0.7017 C   0  0  0  0  0  0  0  0  0  0  0  0
   -3.5012   -1.5857    1.1067 H   0  0  0  0  0  0  0  0  0  0  0  0
   -3.0182   -2.4907   -0.3513 H   0  0  0  0  0  0  0  0  0  0  0  0
   -1.3942   -1.7897    0.8407 C   0  0  0  0  0  0  0  0  0  0  0  0
   -0.5672   -2.4077    1.5007 O   0  0  0  0  0  0  0  0  0  0  0  0
   -1.1222   -0.6447    0.2217 N   0  0  0  0  0  0  0  0  0  0  0  0
   -1.8592   -0.1777   -0.2863 H   0  0  0  0  0  0  0  0  0  0  0  0
    0.1838    0.0363    0.2367 C   0  0  1  0  0  0  0  0  0  0  0  0
    0.4395    0.3229   -0.7828 H   0  0  0  0  0  0  0  0  0  0  0  0
    0.1522    1.3184    1.0940 C   0  0  1  0  0  0  0  0  0  0  0  0
    1.1430    1.7714    1.0667 H   0  0  0  0  0  0  0  0  0  0  0  0
   -0.8507    2.3651    0.6129 C   0  0  0  0  0  0  0  0  0  0  0  0
   -1.8710    2.0030    0.7454 H   0  0  0  0  0  0  0  0  0  0  0  0
   -0.7222    3.2876    1.1779 H   0  0  0  0  0  0  0  0  0  0  0  0
   -0.6840    2.5736   -0.4443 H   0  0  0  0  0  0  0  0  0  0  0  0
   -0.1639    1.0232    2.4320 O   0  0  0  0  0  0  0  0  0  0  0  0
   -0.2677    1.8527    2.9030 H   0  0  0  0  0  0  0  0  0  0  0  0
    1.2858   -0.9061    0.7364 C   0  0  0  0  0  0  0  0  0  0  0  0
    1.2253   -2.1178    0.5284 O   0  0  0  0  0  0  0  0  0  0  0  0
    2.3211   -0.3466    1.3780 N   0  0  0  0  0  0  0  0  0  0  0  0
    2.3226    0.6527    1.4999 H   0  0  0  0  0  0  0  0  0  0  0  0
    3.4515   -1.1028    1.9148 C   0  0  0  0  0  0  0  0  0  0  0  0
    3.8829   -1.7284    1.1309 H   0  0  0  0  0  0  0  0  0  0  0  0
    4.2166   -0.4255    2.2947 H   0  0  0  0  0  0  0  0  0  0  0  0
    3.1089   -1.7508    2.7244 H   0  0  0  0  0  0  0  0  0  0  0  0
  5  6  2  0  0  0  0
  5  7  1  0  0  0  0
  2  3  1  0  0  0  0
  2  4  1  0  0  0  0
  2  5  1  0  0  0  0
  1  2  1  0  0  0  0
 19 20  2  0  0  0  0
 19 21  1  0  0  0  0
 17 18  1  0  0  0  0
 13 14  1  0  0  0  0
 13 15  1  0  0  0  0
 13 16  1  0  0  0  0
 11 12  1  0  0  0  0
 11 13  1  0  0  0  0
 11 17  1  0  0  0  0
  9 10  1  0  0  0  0
  9 11  1  0  0  0  0
  9 19  1  0  0  0  0
  7  8  1  0  0  0  0
  7  9  1  0  0  0  0
 23 24  1  0  0  0  0
 23 25  1  0  0  0  0
 23 26  1  0  0  0  0
 21 22  1  0  0  0  0
 21 23  1  0  0  0  0
M  END
$$$$
default_name
  -OEChem-01062215323D

 26 25  0     1  0  0  0  0  0999 V2000
   -2.8882   -3.2497    1.2537 H   0  0  0  0  0  0  0  0  0  0  0  0
   -2.8032   -2.3157    0.7017 C   0  0  0  0  0  0  0  0  0  0  0  0
   -3.5012   -1.5857    1.1067 H   0  0  0  0  0  0  0  0  0  0  0  0
   -3.0182   -2.4907   -0.3513 H   0  0  0  0  0  0  0  0  0  0  0  0
   -1.3942   -1.7897    0.8407 C   0  0  0  0  0  0  0  0  0  0  0  0
   -0.5672   -2.4077    1.5007 O   0  0  0  0  0  0  0  0  0  0  0  0
   -1.1222   -0.6447    0.2217 N   0  0  0  0  0  0  0  0  0  0  0  0
   -1.8592   -0.1777   -0.2863 H   0  0  0  0  0  0  0  0  0  0  0  0
    0.1838    0.0363    0.2367 C   0  0  1  0  0  0  0  0  0  0  0  0
    0.4395    0.3229   -0.7828 H   0  0  0  0  0  0  0  0  0  0  0  0
    0.1522    1.3184    1.0940 C   0  0  1  0  0  0  0  0  0  0  0  0
    1.1430    1.7714    1.0667 H   0  0  0  0  0  0  0  0  0  0  0  0
   -0.8507    2.3651    0.6129 C   0  0  0  0  0  0  0  0  0  0  0  0
   -1.8710    2.0030    0.7454 H   0  0  0  0  0  0  0  0  0  0  0  0
   -0.7222    3.2876    1.1779 H   0  0  0  0  0  0  0  0  0  0  0  0
   -0.6840    2.5736   -0.4443 H   0  0  0  0  0  0  0  0  0  0  0  0
   -0.1639    1.0232    2.4320 O   0  0  0  0  0  0  0  0  0  0  0  0
   -0.2677    1.8527    2.9030 H   0  0  0  0  0  0  0  0  0  0  0  0
    1.2858   -0.9061    0.7364 C   0  0  0  0  0  0  0  0  0  0  0  0
    1.3781   -2.0562    0.3075 O   0  0  0  0  0  0  0  0  0  0  0  0
    2.1516   -0.4104    1.6316 N   0  0  0  0  0  0  0  0  0  0  0  0
    2.0353    0.5443    1.9290 H   0  0  0  0  0  0  0  0  0  0  0  0
    3.2573   -1.1758    2.2054 C   0  0  0  0  0  0  0  0  0  0  0  0
    3.8622   -1.6071    1.4053 H   0  0  0  0  0  0  0  0  0  0  0  0
    3.8852   -0.5331    2.8228 H   0  0  0  0  0  0  0  0  0  0  0  0
    2.8625   -1.9898    2.8170 H   0  0  0  0  0  0  0  0  0  0  0  0
  5  6  2  0  0  0  0
  5  7  1  0  0  0  0
  2  3  1  0  0  0  0
  2  4  1  0  0  0  0
  2  5  1  0  0  0  0
  1  2  1  0  0  0  0
 19 20  2  0  0  0  0
 19 21  1  0  0  0  0
 17 18  1  0  0  0  0
 13 14  1  0  0  0  0
 13 15  1  0  0  0  0
 13 16  1  0  0  0  0
 11 12  1  0  0  0  0
 11 13  1  0  0  0  0
 11 17  1  0  0  0  0
  9 10  1  0  0  0  0
  9 11  1  0  0  0  0
  9 19  1  0  0  0  0
  7  8  1  0  0  0  0
  7  9  1  0  0  0  0
 23 24  1  0  0  0  0
 23 25  1  0  0  0  0
 23 26  1  0  0  0  0
 21 22  1  0  0  0  0
 21 23  1  0  0  0  0
M  END
$$$$
default_name
  -OEChem-01062215323D

 26 25  0     1  0  0  0  0  0999 V2000
   -2.8882   -3.2497    1.2537 H   0  0  0  0  0  0  0  0  0  0  0  0
   -2.8032   -2.3157    0.7017 C   0  0  0  0  0  0  0  0  0  0  0  0
   -3.5012   -1.5857    1.1067 H   0  0  0  0  0  0  0  0  0  0  0  0
   -3.0182   -2.4907   -0.3513 H   0  0  0  0  0  0  0  0  0  0  0  0
   -1.3942   -1.7897    0.8407 C   0  0  0  0  0  0  0  0  0  0  0  0
   -0.5672   -2.4077    1.5007 O   0  0  0  0  0  0  0  0  0  0  0  0
   -1.1222   -0.6447    0.2217 N   0  0  0  0  0  0  0  0  0  0  0  0
   -1.8592   -0.1777   -0.2863 H   0  0  0  0  0  0  0  0  0  0  0  0
    0.1838    0.0363    0.2367 C   0  0  1  0  0  0  0  0  0  0  0  0
    0.4395    0.3229   -0.7828 H   0  0  0  0  0  0  0  0  0  0  0  0
    0.1522    1.3184    1.0940 C   0  0  1  0  0  0  0  0  0  0  0  0
    1.1430    1.7714    1.0667 H   0  0  0  0  0  0  0  0  0  0  0  0
   -0.8507    2.3651    0.6129 C   0  0  0  0  0  0  0  0  0  0  0  0
   -1.8710    2.0030    0.7454 H   0  0  0  0  0  0  0  0  0  0  0  0
   -0.7222    3.2876    1.1779 H   0  0  0  0  0  0  0  0  0  0  0  0
   -0.6840    2.5736   -0.4443 H   0  0  0  0  0  0  0  0  0  0  0  0
   -0.1639    1.0232    2.4320 O   0  0  0  0  0  0  0  0  0  0  0  0
   -0.2677    1.8527    2.9030 H   0  0  0  0  0  0  0  0  0  0  0  0
    1.2858   -0.9061    0.7364 C   0  0  0  0  0  0  0  0  0  0  0  0
    1.5556   -1.9427    0.1300 O   0  0  0  0  0  0  0  0  0  0  0  0
    1.9528   -0.5336    1.8377 N   0  0  0  0  0  0  0  0  0  0  0  0
    1.6987    0.3355    2.2777 H   0  0  0  0  0  0  0  0  0  0  0  0
    3.0297   -1.3167    2.4416 C   0  0  0  0  0  0  0  0  0  0  0  0
    3.7884   -1.5427    1.6896 H   0  0  0  0  0  0  0  0  0  0  0  0
    3.4901   -0.7632    3.2602 H   0  0  0  0  0  0  0  0  0  0  0  0
    2.6299   -2.2587    2.8228 H   0  0  0  0  0  0  0  0  0  0  0  0
  5  6  2  0  0  0  0
  5  7  1  0  0  0  0
  2  3  1  0  0  0  0
  2  4  1  0  0  0  0
  2  5  1  0  0  0  0
  1  2  1  0  0  0  0
 19 20  2  0  0  0  0
 19 21  1  0  0  0  0
 17 18  1  0  0  0  0
 13 14  1  0  0  0  0
 13 15  1  0  0  0  0
 13 16  1  0  0  0  0
 11 12  1  0  0  0  0
 11 13  1  0  0  0  0
 11 17  1  0  0  0  0
  9 10  1  0  0  0  0
  9 11  1  0  0  0  0
  9 19  1  0  0  0  0
  7  8  1  0  0  0  0
  7  9  1  0  0  0  0
 23 24  1  0  0  0  0
 23 25  1  0  0  0  0
 23 26  1  0  0  0  0
 21 22  1  0  0  0  0
 21 23  1  0  0  0  0
M  END
$$$$
default_name
  -OEChem-01062215323D

 26 25  0     1  0  0  0  0  0999 V2000
   -2.8882   -3.2497    1.2537 H   0  0  0  0  0  0  0  0  0  0  0  0
   -2.8032   -2.3157    0.7017 C   0  0  0  0  0  0  0  0  0  0  0  0
   -3.5012   -1.5857    1.1067 H   0  0  0  0  0  0  0  0  0  0  0  0
   -3.0182   -2.4907   -0.3513 H   0  0  0  0  0  0  0  0  0  0  0  0
   -1.3942   -1.7897    0.8407 C   0  0  0  0  0  0  0  0  0  0  0  0
   -0.5672   -2.4077    1.5007 O   0  0  0  0  0  0  0  0  0  0  0  0
   -1.1222   -0.6447    0.2217 N   0  0  0  0  0  0  0  0  0  0  0  0
   -1.8592   -0.1777   -0.2863 H   0  0  0  0  0  0  0  0  0  0  0  0
    0.1838    0.0363    0.2367 C   0  0  1  0  0  0  0  0  0  0  0  0
    0.4395    0.3229   -0.7828 H   0  0  0  0  0  0  0  0  0  0  0  0
    0.1522    1.3184    1.0940 C   0  0  1  0  0  0  0  0  0  0  0  0
    1.1430    1.7714    1.0667 H   0  0  0  0  0  0  0  0  0  0  0  0
   -0.8507    2.3651    0.6129 C   0  0  0  0  0  0  0  0  0  0  0  0
   -1.8710    2.0030    0.7454 H   0  0  0  0  0  0  0  0  0  0  0  0
   -0.7222    3.2876    1.1779 H   0  0  0  0  0  0  0  0  0  0  0  0
   -0.6840    2.5736   -0.4443 H   0  0  0  0  0  0  0  0  0  0  0  0
   -0.1639    1.0232    2.4320 O   0  0  0  0  0  0  0  0  0  0  0  0
   -0.2677    1.8527    2.9030 H   0  0  0  0  0  0  0  0  0  0  0  0
    1.2858   -0.9061    0.7364 C   0  0  0  0  0  0  0  0  0  0  0  0
    1.7458   -1.7851    0.0078 O   0  0  0  0  0  0  0  0  0  0  0  0
    1.7385   -0.7076    1.9823 N   0  0  0  0  0  0  0  0  0  0  0  0
    1.3357    0.0407    2.5222 H   0  0  0  0  0  0  0  0  0  0  0  0
    2.7842   -1.5159    2.6073 C   0  0  0  0  0  0  0  0  0  0  0  0
    3.6664   -1.5396    1.9645 H   0  0  0  0  0  0  0  0  0  0  0  0
    3.0583   -1.1000    3.5771 H   0  0  0  0  0  0  0  0  0  0  0  0
    2.4270   -2.5391    2.7414 H   0  0  0  0  0  0  0  0  0  0  0  0
  5  6  2  0  0  0  0
  5  7  1  0  0  0  0
  2  3  1  0  0  0  0
  2  4  1  0  0  0  0
  2  5  1  0  0  0  0
  1  2  1  0  0  0  0
 19 20  2  0  0  0  0
 19 21  1  0  0  0  0
 17 18  1  0  0  0  0
 13 14  1  0  0  0  0
 13 15  1  0  0  0  0
 13 16  1  0  0  0  0
 11 12  1  0  0  0  0
 11 13  1  0  0  0  0
 11 17  1  0  0  0  0
  9 10  1  0  0  0  0
  9 11  1  0  0  0  0
  9 19  1  0  0  0  0
  7  8  1  0  0  0  0
  7  9  1  0  0  0  0
 23 24  1  0  0  0  0
 23 25  1  0  0  0  0
 23 26  1  0  0  0  0
 21 22  1  0  0  0  0
 21 23  1  0  0  0  0
M  END
$$$$
default_name
  -OEChem-01062215323D

 26 25  0     1  0  0  0  0  0999 V2000
   -2.8882   -3.2497    1.2537 H   0  0  0  0  0  0  0  0  0  0  0  0
   -2.8032   -2.3157    0.7017 C   0  0  0  0  0  0  0  0  0  0  0  0
   -3.5012   -1.5857    1.1067 H   0  0  0  0  0  0  0  0  0  0  0  0
   -3.0182   -2.4907   -0.3513 H   0  0  0  0  0  0  0  0  0  0  0  0
   -1.3942   -1.7897    0.8407 C   0  0  0  0  0  0  0  0  0  0  0  0
   -0.5672   -2.4077    1.5007 O   0  0  0  0  0  0  0  0  0  0  0  0
   -1.1222   -0.6447    0.2217 N   0  0  0  0  0  0  0  0  0  0  0  0
   -1.8592   -0.1777   -0.2863 H   0  0  0  0  0  0  0  0  0  0  0  0
    0.1838    0.0363    0.2367 C   0  0  1  0  0  0  0  0  0  0  0  0
    0.4395    0.3229   -0.7828 H   0  0  0  0  0  0  0  0  0  0  0  0
    0.1522    1.3184    1.0940 C   0  0  1  0  0  0  0  0  0  0  0  0
    1.1430    1.7714    1.0667 H   0  0  0  0  0  0  0  0  0  0  0  0
   -0.8507    2.3651    0.6129 C   0  0  0  0  0  0  0  0  0  0  0  0
   -1.8710    2.0030    0.7454 H   0  0  0  0  0  0  0  0  0  0  0  0
   -0.7222    3.2876    1.1779 H   0  0  0  0  0  0  0  0  0  0  0  0
   -0.6840    2.5736   -0.4443 H   0  0  0  0  0  0  0  0  0  0  0  0
   -0.1639    1.0232    2.4320 O   0  0  0  0  0  0  0  0  0  0  0  0
   -0.2677    1.8527    2.9030 H   0  0  0  0  0  0  0  0  0  0  0  0
    1.2858   -0.9061    0.7364 C   0  0  0  0  0  0  0  0  0  0  0  0
    1.9356   -1.5941   -0.0507 O   0  0  0  0  0  0  0  0  0  0  0  0
    1.5231   -0.9206    2.0555 N   0  0  0  0  0  0  0  0  0  0  0  0
    0.9710   -0.3202    2.6457 H   0  0  0  0  0  0  0  0  0  0  0  0
    2.5375   -1.7598    2.6913 C   0  0  0  0  0  0  0  0  0  0  0  0
    3.5046   -1.5980    2.2112 H   0  0  0  0  0  0  0  0  0  0  0  0
    2.6193   -1.5208    3.7518 H   0  0  0  0  0  0  0  0  0  0  0  0
    2.2676   -2.8120    2.5783 H   0  0  0  0  0  0  0  0  0  0  0  0
  5  6  2  0  0  0  0
  5  7  1  0  0  0  0
  2  3  1  0  0  0  0
  2  4  1  0  0  0  0
  2  5  1  0  0  0  0
  1  2  1  0  0  0  0
 19 20  2  0  0  0  0
 19 21  1  0  0  0  0
 17 18  1  0  0  0  0
 13 14  1  0  0  0  0
 13 15  1  0  0  0  0
 13 16  1  0  0  0  0
 11 12  1  0  0  0  0
 11 13  1  0  0  0  0
 11 17  1  0  0  0  0
  9 10  1  0  0  0  0
  9 11  1  0  0  0  0
  9 19  1  0  0  0  0
  7  8  1  0  0  0  0
  7  9  1  0  0  0  0
 23 24  1  0  0  0  0
 23 25  1  0  0  0  0
 23 26  1  0  0  0  0
 21 22  1  0  0  0  0
 21 23  1  0  0  0  0
M  END
$$$$
default_name
  -OEChem-01062215323D

 26 25  0     1  0  0  0  0  0999 V2000
   -2.8882   -3.2497    1.2537 H   0  0  0  0  0  0  0  0  0  0  0  0
   -2.8032   -2.3157    0.7017 C   0  0  0  0  0  0  0  0  0  0  0  0
   -3.5012   -1.5857    1.1067 H   0  0  0  0  0  0  0  0  0  0  0  0
   -3.0182   -2.4907   -0.3513 H   0  0  0  0  0  0  0  0  0  0  0  0
   -1.3942   -1.7897    0.8407 C   0  0  0  0  0  0  0  0  0  0  0  0
   -0.5672   -2.4077    1.5007 O   0  0  0  0  0  0  0  0  0  0  0  0
   -1.1222   -0.6447    0.2217 N   0  0  0  0  0  0  0  0  0  0  0  0
   -1.8592   -0.1777   -0.2863 H   0  0  0  0  0  0  0  0  0  0  0  0
    0.1838    0.0363    0.2367 C   0  0  1  0  0  0  0  0  0  0  0  0
    0.4395    0.3229   -0.7828 H   0  0  0  0  0  0  0  0  0  0  0  0
    0.1522    1.3184    1.0940 C   0  0  1  0  0  0  0  0  0  0  0  0
    1.1430    1.7714    1.0667 H   0  0  0  0  0  0  0  0  0  0  0  0
   -0.8507    2.3651    0.6129 C   0  0  0  0  0  0  0  0  0  0  0  0
   -1.8710    2.0030    0.7454 H   0  0  0  0  0  0  0  0  0  0  0  0
   -0.7222    3.2876    1.1779 H   0  0  0  0  0  0  0  0  0  0  0  0
   -0.6840    2.5736   -0.4443 H   0  0  0  0  0  0  0  0  0  0  0  0
   -0.1639    1.0232    2.4320 O   0  0  0  0  0  0  0  0  0  0  0  0
   -0.2677    1.8527    2.9030 H   0  0  0  0  0  0  0  0  0  0  0  0
    1.2858   -0.9061    0.7364 C   0  0  0  0  0  0  0  0  0  0  0  0
    2.1122   -1.3827   -0.0414 O   0  0  0  0  0  0  0  0  0  0  0  0
    1.3214   -1.1582    2.0524 N   0  0  0  0  0  0  0  0  0  0  0  0
    0.6296   -0.7226    2.6399 H   0  0  0  0  0  0  0  0  0  0  0  0
    2.3064   -2.0319    2.6879 C   0  0  0  0  0  0  0  0  0  0  0  0
    3.3141   -1.7139    2.4129 H   0  0  0  0  0  0  0  0  0  0  0  0
    2.2029   -1.9967    3.7726 H   0  0  0  0  0  0  0  0  0  0  0  0
    2.1626   -3.0586    2.3448 H   0  0  0  0  0  0  0  0  0  0  0  0
  5  6  2  0  0  0  0
  5  7  1  0  0  0  0
  2  3  1  0  0  0  0
  2  4  1  0  0  0  0
  2  5  1  0  0  0  0
  1  2  1  0  0  0  0
 19 20  2  0  0  0  0
 19 21  1  0  0  0  0
 17 18  1  0  0  0  0
 13 14  1  0  0  0  0
 13 15  1  0  0  0  0
 13 16  1  0  0  0  0
 11 12  1  0  0  0  0
 11 13  1  0  0  0  0
 11 17  1  0  0  0  0
  9 10  1  0  0  0  0
  9 11  1  0  0  0  0
  9 19  1  0  0  0  0
  7  8  1  0  0  0  0
  7  9  1  0  0  0  0
 23 24  1  0  0  0  0
 23 25  1  0  0  0  0
 23 26  1  0  0  0  0
 21 22  1  0  0  0  0
 21 23  1  0  0  0  0
M  END
$$$$
default_name
  -OEChem-01062215323D

 26 25  0     1  0  0  0  0  0999 V2000
   -2.8882   -3.2497    1.2537 H   0  0  0  0  0  0  0  0  0  0  0  0
   -2.8032   -2.3157    0.7017 C   0  0  0  0  0  0  0  0  0  0  0  0
   -3.5012   -1.5857    1.1067 H   0  0  0  0  0  0  0  0  0  0  0  0
   -3.0182   -2.4907   -0.3513 H   0  0  0  0  0  0  0  0  0  0  0  0
   -1.3942   -1.7897    0.8407 C   0  0  0  0  0  0  0  0  0  0  0  0
   -0.5672   -2.4077    1.5007 O   0  0  0  0  0  0  0  0  0  0  0  0
   -1.1222   -0.6447    0.2217 N   0  0  0  0  0  0  0  0  0  0  0  0
   -1.8592   -0.1777   -0.2863 H   0  0  0  0  0  0  0  0  0  0  0  0
    0.1838    0.0363    0.2367 C   0  0  1  0  0  0  0  0  0  0  0  0
    0.4395    0.3229   -0.7828 H   0  0  0  0  0  0  0  0  0  0  0  0
    0.1522    1.3184    1.0940 C   0  0  1  0  0  0  0  0  0  0  0  0
    1.1430    1.7714    1.0667 H   0  0  0  0  0  0  0  0  0  0  0  0
   -0.8507    2.3651    0.6129 C   0  0  0  0  0  0  0  0  0  0  0  0
   -1.8710    2.0030    0.7454 H   0  0  0  0  0  0  0  0  0  0  0  0
   -0.7222    3.2876    1.1779 H   0  0  0  0  0  0  0  0  0  0  0  0
   -0.6840    2.5736   -0.4443 H   0  0  0  0  0  0  0  0  0  0  0  0
   -0.1639    1.0232    2.4320 O   0  0  0  0  0  0  0  0  0  0  0  0
   -0.2677    1.8527    2.9030 H   0  0  0  0  0  0  0  0  0  0  0  0
    1.2858   -0.9061    0.7364 C   0  0  0  0  0  0  0  0  0  0  0  0
    2.2634   -1.1654    0.0349 O   0  0  0  0  0  0  0  0  0  0  0  0
    1.1470   -1.4041    1.9731 N   0  0  0  0  0  0  0  0  0  0  0  0
    0.3347   -1.1389    2.5052 H   0  0  0  0  0  0  0  0  0  0  0  0
    2.1067   -2.3135    2.5972 C   0  0  0  0  0  0  0  0  0  0  0  0
    3.1077   -1.8794    2.5558 H   0  0  0  0  0  0  0  0  0  0  0  0
    1.8376   -2.4954    3.6379 H   0  0  0  0  0  0  0  0  0  0  0  0
    2.1191   -3.2623    2.0566 H   0  0  0  0  0  0  0  0  0  0  0  0
  5  6  2  0  0  0  0
  5  7  1  0  0  0  0
  2  3  1  0  0  0  0
  2  4  1  0  0  0  0
  2  5  1  0  0  0  0
  1  2  1  0  0  0  0
 19 20  2  0  0  0  0
 19 21  1  0  0  0  0
 17 18  1  0  0  0  0
 13 14  1  0  0  0  0
 13 15  1  0  0  0  0
 13 16  1  0  0  0  0
 11 12  1  0  0  0  0
 11 13  1  0  0  0  0
 11 17  1  0  0  0  0
  9 10  1  0  0  0  0
  9 11  1  0  0  0  0
  9 19  1  0  0  0  0
  7  8  1  0  0  0  0
  7  9  1  0  0  0  0
 23 24  1  0  0  0  0
 23 25  1  0  0  0  0
 23 26  1  0  0  0  0
 21 22  1  0  0  0  0
 21 23  1  0  0  0  0
M  END
$$$$
default_name
  -OEChem-01062215323D

 26 25  0     1  0  0  0  0  0999 V2000
   -2.8882   -3.2497    1.2537 H   0  0  0  0  0  0  0  0  0  0  0  0
   -2.8032   -2.3157    0.7017 C   0  0  0  0  0  0  0  0  0  0  0  0
   -3.5012   -1.5857    1.1067 H   0  0  0  0  0  0  0  0  0  0  0  0
   -3.0182   -2.4907   -0.3513 H   0  0  0  0  0  0  0  0  0  0  0  0
   -1.3942   -1.7897    0.8407 C   0  0  0  0  0  0  0  0  0  0  0  0
   -0.5672   -2.4077    1.5007 O   0  0  0  0  0  0  0  0  0  0  0  0
   -1.1222   -0.6447    0.2217 N   0  0  0  0  0  0  0  0  0  0  0  0
   -1.8592   -0.1777   -0.2863 H   0  0  0  0  0  0  0  0  0  0  0  0
    0.1838    0.0363    0.2367 C   0  0  1  0  0  0  0  0  0  0  0  0
    0.4395    0.3229   -0.7828 H   0  0  0  0  0  0  0  0  0  0  0  0
    0.1522    1.3184    1.0940 C   0  0  1  0  0  0  0  0  0  0  0  0
    1.1430    1.7714    1.0667 H   0  0  0  0  0  0  0  0  0  0  0  0
   -0.8507    2.3651    0.6129 C   0  0  0  0  0  0  0  0  0  0  0  0
   -1.8710    2.0030    0.7454 H   0  0  0  0  0  0  0  0  0  0  0  0
   -0.7222    3.2876    1.1779 H   0  0  0  0  0  0  0  0  0  0  0  0
   -0.6840    2.5736   -0.4443 H   0  0  0  0  0  0  0  0  0  0  0  0
   -0.1639    1.0232    2.4320 O   0  0  0  0  0  0  0  0  0  0  0  0
   -0.2677    1.8527    2.9030 H   0  0  0  0  0  0  0  0  0  0  0  0
    1.2858   -0.9061    0.7364 C   0  0  0  0  0  0  0  0  0  0  0  0
    2.3791   -0.9569    0.1730 O   0  0  0  0  0  0  0  0  0  0  0  0
    1.0120   -1.6415    1.8230 N   0  0  0  0  0  0  0  0  0  0  0  0
    0.1063   -1.5409    2.2508 H   0  0  0  0  0  0  0  0  0  0  0  0
    1.9520   -2.5855    2.4255 C   0  0  0  0  0  0  0  0  0  0  0  0
    2.8995   -2.0833    2.6303 H   0  0  0  0  0  0  0  0  0  0  0  0
    1.5481   -2.9828    3.3569 H   0  0  0  0  0  0  0  0  0  0  0  0
    2.1401   -3.4091    1.7334 H   0  0  0  0  0  0  0  0  0  0  0  0
  5  6  2  0  0  0  0
  5  7  1  0  0  0  0
  2  3  1  0  0  0  0
  2  4  1  0  0  0  0
  2  5  1  0  0  0  0
  1  2  1  0  0  0  0
 19 20  2  0  0  0  0
 19 21  1  0  0  0  0
 17 18  1  0  0  0  0
 13 14  1  0  0  0  0
 13 15  1  0  0  0  0
 13 16  1  0  0  0  0
 11 12  1  0  0  0  0
 11 13  1  0  0  0  0
 11 17  1  0  0  0  0
  9 10  1  0  0  0  0
  9 11  1  0  0  0  0
  9 19  1  0  0  0  0
  7  8  1  0  0  0  0
  7  9  1  0  0  0  0
 23 24  1  0  0  0  0
 23 25  1  0  0  0  0
 23 26  1  0  0  0  0
 21 22  1  0  0  0  0
 21 23  1  0  0  0  0
M  END
$$$$
default_name
  -OEChem-01062215323D

 26 25  0     1  0  0  0  0  0999 V2000
   -2.8882   -3.2497    1.2537 H   0  0  0  0  0  0  0  0  0  0  0  0
   -2.8032   -2.3157    0.7017 C   0  0  0  0  0  0  0  0  0  0  0  0
   -3.5012   -1.5857    1.1067 H   0  0  0  0  0  0  0  0  0  0  0  0
   -3.0182   -2.4907   -0.3513 H   0  0  0  0  0  0  0  0  0  0  0  0
   -1.3942   -1.7897    0.8407 C   0  0  0  0  0  0  0  0  0  0  0  0
   -0.5672   -2.4077    1.5007 O   0  0  0  0  0  0  0  0  0  0  0  0
   -1.1222   -0.6447    0.2217 N   0  0  0  0  0  0  0  0  0  0  0  0
   -1.8592   -0.1777   -0.2863 H   0  0  0  0  0  0  0  0  0  0  0  0
    0.1838    0.0363    0.2367 C   0  0  1  0  0  0  0  0  0  0  0  0
    0.4395    0.3229   -0.7828 H   0  0  0  0  0  0  0  0  0  0  0  0
    0.1522    1.3184    1.0940 C   0  0  1  0  0  0  0  0  0  0  0  0
    1.1430    1.7714    1.0667 H   0  0  0  0  0  0  0  0  0  0  0  0
   -0.8507    2.3651    0.6129 C   0  0  0  0  0  0  0  0  0  0  0  0
   -1.8710    2.0030    0.7454 H   0  0  0  0  0  0  0  0  0  0  0  0
   -0.7222    3.2876    1.1779 H   0  0  0  0  0  0  0  0  0  0  0  0
   -0.6840    2.5736   -0.4443 H   0  0  0  0  0  0  0  0  0  0  0  0
   -0.1639    1.0232    2.4320 O   0  0  0  0  0  0  0  0  0  0  0  0
   -0.2677    1.8527    2.9030 H   0  0  0  0  0  0  0  0  0  0  0  0
    1.2858   -0.9061    0.7364 C   0  0  0  0  0  0  0  0  0  0  0  0
    2.4512   -0.7715    0.3637 O   0  0  0  0  0  0  0  0  0  0  0  0
    0.9255   -1.8544    1.6124 N   0  0  0  0  0  0  0  0  0  0  0  0
   -0.0399   -1.9011    1.8940 H   0  0  0  0  0  0  0  0  0  0  0  0
    1.8527   -2.8294    2.1844 C   0  0  0  0  0  0  0  0  0  0  0  0
    2.7038   -2.3117    2.6312 H   0  0  0  0  0  0  0  0  0  0  0  0
    1.3543   -3.4258    2.9489 H   0  0  0  0  0  0  0  0  0  0  0  0
    2.2241   -3.4890    1.3973 H   0  0  0  0  0  0  0  0  0  0  0  0
  5  6  2  0  0  0  0
  5  7  1  0  0  0  0
  2  3  1  0  0  0  0
  2  4  1  0  0  0  0
  2  5  1  0  0  0  0
  1  2  1  0  0  0  0
 19 20  2  0  0  0  0
 19 21  1  0  0  0  0
 17 18  1  0  0  0  0
 13 14  1  0  0  0  0
 13 15  1  0  0  0  0
 13 16  1  0  0  0  0
 11 12  1  0  0  0  0
 11 13  1  0  0  0  0
 11 17  1  0  0  0  0
  9 10  1  0  0  0  0
  9 11  1  0  0  0  0
  9 19  1  0  0  0  0
  7  8  1  0  0  0  0
  7  9  1  0  0  0  0
 23 24  1  0  0  0  0
 23 25  1  0  0  0  0
 23 26  1  0  0  0  0
 21 22  1  0  0  0  0
 21 23  1  0  0  0  0
M  END
$$$$
default_name
  -OEChem-01062215323D

 26 25  0     1  0  0  0  0  0999 V2000
   -2.8882   -3.2497    1.2537 H   0  0  0  0  0  0  0  0  0  0  0  0
   -2.8032   -2.3157    0.7017 C   0  0  0  0  0  0  0  0  0  0  0  0
   -3.5012   -1.5857    1.1067 H   0  0  0  0  0  0  0  0  0  0  0  0
   -3.0182   -2.4907   -0.3513 H   0  0  0  0  0  0  0  0  0  0  0  0
   -1.3942   -1.7897    0.8407 C   0  0  0  0  0  0  0  0  0  0  0  0
   -0.5672   -2.4077    1.5007 O   0  0  0  0  0  0  0  0  0  0  0  0
   -1.1222   -0.6447    0.2217 N   0  0  0  0  0  0  0  0  0  0  0  0
   -1.8592   -0.1777   -0.2863 H   0  0  0  0  0  0  0  0  0  0  0  0
    0.1838    0.0363    0.2367 C   0  0  1  0  0  0  0  0  0  0  0  0
    0.4395    0.3229   -0.7828 H   0  0  0  0  0  0  0  0  0  0  0  0
    0.1522    1.3184    1.0940 C   0  0  1  0  0  0  0  0  0  0  0  0
    1.1430    1.7714    1.0667 H   0  0  0  0  0  0  0  0  0  0  0  0
   -0.8507    2.3651    0.6129 C   0  0  0  0  0  0  0  0  0  0  0  0
   -1.8710    2.0030    0.7454 H   0  0  0  0  0  0  0  0  0  0  0  0
   -0.7222    3.2876    1.1779 H   0  0  0  0  0  0  0  0  0  0  0  0
   -0.6840    2.5736   -0.4443 H   0  0  0  0  0  0  0  0  0  0  0  0
   -0.1639    1.0232    2.4320 O   0  0  0  0  0  0  0  0  0  0  0  0
   -0.2677    1.8527    2.9030 H   0  0  0  0  0  0  0  0  0  0  0  0
    1.2858   -0.9061    0.7364 C   0  0  0  0  0  0  0  0  0  0  0  0
    2.4749   -0.6217    0.5938 O   0  0  0  0  0  0  0  0  0  0  0  0
    0.8933   -2.0281    1.3557 N   0  0  0  0  0  0  0  0  0  0  0  0
   -0.0941   -2.1950    1.4590 H   0  0  0  0  0  0  0  0  0  0  0  0
    1.8158   -3.0285    1.8904 C   0  0  0  0  0  0  0  0  0  0  0  0
    2.5339   -2.5489    2.5585 H   0  0  0  0  0  0  0  0  0  0  0  0
    1.2694   -3.7942    2.4415 H   0  0  0  0  0  0  0  0  0  0  0  0
    2.3655   -3.4967    1.0711 H   0  0  0  0  0  0  0  0  0  0  0  0
  5  6  2  0  0  0  0
  5  7  1  0  0  0  0
  2  3  1  0  0  0  0
  2  4  1  0  0  0  0
  2  5  1  0  0  0  0
  1  2  1  0  0  0  0
 19 20  2  0  0  0  0
 19 21  1  0  0  0  0
 17 18  1  0  0  0  0
 13 14  1  0  0  0  0
 13 15  1  0  0  0  0
 13 16  1  0  0  0  0
 11 12  1  0  0  0  0
 11 13  1  0  0  0  0
 11 17  1  0  0  0  0
  9 10  1  0  0  0  0
  9 11  1  0  0  0  0
  9 19  1  0  0  0  0
  7  8  1  0  0  0  0
  7  9  1  0  0  0  0
 23 24  1  0  0  0  0
 23 25  1  0  0  0  0
 23 26  1  0  0  0  0
 21 22  1  0  0  0  0
 21 23  1  0  0  0  0
M  END
$$$$
default_name
  -OEChem-01062215323D

 26 25  0     1  0  0  0  0  0999 V2000
   -2.8882   -3.2497    1.2537 H   0  0  0  0  0  0  0  0  0  0  0  0
   -2.8032   -2.3157    0.7017 C   0  0  0  0  0  0  0  0  0  0  0  0
   -3.5012   -1.5857    1.1067 H   0  0  0  0  0  0  0  0  0  0  0  0
   -3.0182   -2.4907   -0.3513 H   0  0  0  0  0  0  0  0  0  0  0  0
   -1.3942   -1.7897    0.8407 C   0  0  0  0  0  0  0  0  0  0  0  0
   -0.5672   -2.4077    1.5007 O   0  0  0  0  0  0  0  0  0  0  0  0
   -1.1222   -0.6447    0.2217 N   0  0  0  0  0  0  0  0  0  0  0  0
   -1.8592   -0.1777   -0.2863 H   0  0  0  0  0  0  0  0  0  0  0  0
    0.1838    0.0363    0.2367 C   0  0  1  0  0  0  0  0  0  0  0  0
    0.4395    0.3229   -0.7828 H   0  0  0  0  0  0  0  0  0  0  0  0
    0.1522    1.3184    1.0940 C   0  0  1  0  0  0  0  0  0  0  0  0
    1.1430    1.7714    1.0667 H   0  0  0  0  0  0  0  0  0  0  0  0
   -0.8507    2.3651    0.6129 C   0  0  0  0  0  0  0  0  0  0  0  0
   -1.8710    2.0030    0.7454 H   0  0  0  0  0  0  0  0  0  0  0  0
   -0.7222    3.2876    1.1779 H   0  0  0  0  0  0  0  0  0  0  0  0
   -0.6840    2.5736   -0.4443 H   0  0  0  0  0  0  0  0  0  0  0  0
   -0.1639    1.0232    2.4320 O   0  0  0  0  0  0  0  0  0  0  0  0
   -0.2677    1.8527    2.9030 H   0  0  0  0  0  0  0  0  0  0  0  0
    1.2858   -0.9061    0.7364 C   0  0  0  0  0  0  0  0  0  0  0  0
    2.4486   -0.5179    0.8477 O   0  0  0  0  0  0  0  0  0  0  0  0
    0.9178   -2.1509    1.0702 N   0  0  0  0  0  0  0  0  0  0  0  0
   -0.0524   -2.4026    0.9757 H   0  0  0  0  0  0  0  0  0  0  0  0
    1.8436   -3.1693    1.5636 C   0  0  0  0  0  0  0  0  0  0  0  0
    2.4014   -2.7789    2.4171 H   0  0  0  0  0  0  0  0  0  0  0  0
    1.2991   -4.0628    1.8694 H   0  0  0  0  0  0  0  0  0  0  0  0
    2.5546   -3.4314    0.7772 H   0  0  0  0  0  0  0  0  0  0  0  0
  5  6  2  0  0  0  0
  5  7  1  0  0  0  0
  2  3  1  0  0  0  0
  2  4  1  0  0  0  0
  2  5  1  0  0  0  0
  1  2  1  0  0  0  0
 19 20  2  0  0  0  0
 19 21  1  0  0  0  0
 17 18  1  0  0  0  0
 13 14  1  0  0  0  0
 13 15  1  0  0  0  0
 13 16  1  0  0  0  0
 11 12  1  0  0  0  0
 11 13  1  0  0  0  0
 11 17  1  0  0  0  0
  9 10  1  0  0  0  0
  9 11  1  0  0  0  0
  9 19  1  0  0  0  0
  7  8  1  0  0  0  0
  7  9  1  0  0  0  0
 23 24  1  0  0  0  0
 23 25  1  0  0  0  0
 23 26  1  0  0  0  0
 21 22  1  0  0  0  0
 21 23  1  0  0  0  0
M  END
$$$$
default_name
  -OEChem-01062215323D

 26 25  0     1  0  0  0  0  0999 V2000
   -2.8882   -3.2497    1.2537 H   0  0  0  0  0  0  0  0  0  0  0  0
   -2.8032   -2.3157    0.7017 C   0  0  0  0  0  0  0  0  0  0  0  0
   -3.5012   -1.5857    1.1067 H   0  0  0  0  0  0  0  0  0  0  0  0
   -3.0182   -2.4907   -0.3513 H   0  0  0  0  0  0  0  0  0  0  0  0
   -1.3942   -1.7897    0.8407 C   0  0  0  0  0  0  0  0  0  0  0  0
   -0.5672   -2.4077    1.5007 O   0  0  0  0  0  0  0  0  0  0  0  0
   -1.1222   -0.6447    0.2217 N   0  0  0  0  0  0  0  0  0  0  0  0
   -1.8592   -0.1777   -0.2863 H   0  0  0  0  0  0  0  0  0  0  0  0
    0.1838    0.0363    0.2367 C   0  0  1  0  0  0  0  0  0  0  0  0
    0.4395    0.3229   -0.7828 H   0  0  0  0  0  0  0  0  0  0  0  0
    0.1522    1.3184    1.0940 C   0  0  1  0  0  0  0  0  0  0  0  0
    1.1430    1.7714    1.0667 H   0  0  0  0  0  0  0  0  0  0  0  0
   -0.8507    2.3651    0.6129 C   0  0  0  0  0  0  0  0  0  0  0  0
   -1.8710    2.0030    0.7454 H   0  0  0  0  0  0  0  0  0  0  0  0
   -0.7222    3.2876    1.1779 H   0  0  0  0  0  0  0  0  0  0  0  0
   -0.6840    2.5736   -0.4443 H   0  0  0  0  0  0  0  0  0  0  0  0
   -0.1639    1.0232    2.4320 O   0  0  0  0  0  0  0  0  0  0  0  0
   -0.2677    1.8527    2.9030 H   0  0  0  0  0  0  0  0  0  0  0  0
    1.2858   -0.9061    0.7364 C   0  0  0  0  0  0  0  0  0  0  0  0
    2.3741   -0.4670    1.1080 O   0  0  0  0  0  0  0  0  0  0  0  0
    0.9971   -2.2144    0.7756 N   0  0  0  0  0  0  0  0  0  0  0  0
    0.0822   -2.5097    0.4768 H   0  0  0  0  0  0  0  0  0  0  0  0
    1.9344   -3.2421    1.2261 C   0  0  0  0  0  0  0  0  0  0  0  0
    2.3152   -2.9859    2.2167 H   0  0  0  0  0  0  0  0  0  0  0  0
    1.4414   -4.2133    1.2716 H   0  0  0  0  0  0  0  0  0  0  0  0
    2.7785   -3.2978    0.5354 H   0  0  0  0  0  0  0  0  0  0  0  0
  5  6  2  0  0  0  0
  5  7  1  0  0  0  0
  2  3  1  0  0  0  0
  2  4  1  0  0  0  0
  2  5  1  0  0  0  0
  1  2  1  0  0  0  0
 19 20  2  0  0  0  0
 19 21  1  0  0  0  0
 17 18  1  0  0  0  0
 13 14  1  0  0  0  0
 13 15  1  0  0  0  0
 13 16  1  0  0  0  0
 11 12  1  0  0  0  0
 11 13  1  0  0  0  0
 11 17  1  0  0  0  0
  9 10  1  0  0  0  0
  9 11  1  0  0  0  0
  9 19  1  0  0  0  0
  7  8  1  0  0  0  0
  7  9  1  0  0  0  0
 23 24  1  0  0  0  0
 23 25  1  0  0  0  0
 23 26  1  0  0  0  0
 21 22  1  0  0  0  0
 21 23  1  0  0  0  0
M  END
$$$$
default_name
  -OEChem-01062215323D

 26 25  0     1  0  0  0  0  0999 V2000
   -2.8882   -3.2497    1.2537 H   0  0  0  0  0  0  0  0  0  0  0  0
   -2.8032   -2.3157    0.7017 C   0  0  0  0  0  0  0  0  0  0  0  0
   -3.5012   -1.5857    1.1067 H   0  0  0  0  0  0  0  0  0  0  0  0
   -3.0182   -2.4907   -0.3513 H   0  0  0  0  0  0  0  0  0  0  0  0
   -1.3942   -1.7897    0.8407 C   0  0  0  0  0  0  0  0  0  0  0  0
   -0.5672   -2.4077    1.5007 O   0  0  0  0  0  0  0  0  0  0  0  0
   -1.1222   -0.6447    0.2217 N   0  0  0  0  0  0  0  0  0  0  0  0
   -1.8592   -0.1777   -0.2863 H   0  0  0  0  0  0  0  0  0  0  0  0
    0.1838    0.0363    0.2367 C   0  0  1  0  0  0  0  0  0  0  0  0
    0.4395    0.3229   -0.7828 H   0  0  0  0  0  0  0  0  0  0  0  0
    0.1522    1.3184    1.0940 C   0  0  1  0  0  0  0  0  0  0  0  0
    1.1430    1.7714    1.0667 H   0  0  0  0  0  0  0  0  0  0  0  0
   -0.8507    2.3651    0.6129 C   0  0  0  0  0  0  0  0  0  0  0  0
   -1.8710    2.0030    0.7454 H   0  0  0  0  0  0  0  0  0  0  0  0
   -0.7222    3.2876    1.1779 H   0  0  0  0  0  0  0  0  0  0  0  0
   -0.6840    2.5736   -0.4443 H   0  0  0  0  0  0  0  0  0  0  0  0
   -0.1639    1.0232    2.4320 O   0  0  0  0  0  0  0  0  0  0  0  0
   -0.2677    1.8527    2.9030 H   0  0  0  0  0  0  0  0  0  0  0  0
    1.2858   -0.9061    0.7364 C   0  0  0  0  0  0  0  0  0  0  0  0
    2.2564   -0.4725    1.3571 O   0  0  0  0  0  0  0  0  0  0  0  0
    1.1260   -2.2142    0.4918 N   0  0  0  0  0  0  0  0  0  0  0  0
    0.3006   -2.5090   -0.0036 H   0  0  0  0  0  0  0  0  0  0  0  0
    2.0819   -3.2420    0.9010 C   0  0  0  0  0  0  0  0  0  0  0  0
    2.2813   -3.1559    1.9710 H   0  0  0  0  0  0  0  0  0  0  0  0
    1.6867   -4.2356    0.6888 H   0  0  0  0  0  0  0  0  0  0  0  0
    3.0219   -3.1049    0.3623 H   0  0  0  0  0  0  0  0  0  0  0  0
  5  6  2  0  0  0  0
  5  7  1  0  0  0  0
  2  3  1  0  0  0  0
  2  4  1  0  0  0  0
  2  5  1  0  0  0  0
  1  2  1  0  0  0  0
 19 20  2  0  0  0  0
 19 21  1  0  0  0  0
 17 18  1  0  0  0  0
 13 14  1  0  0  0  0
 13 15  1  0  0  0  0
 13 16  1  0  0  0  0
 11 12  1  0  0  0  0
 11 13  1  0  0  0  0
 11 17  1  0  0  0  0
  9 10  1  0  0  0  0
  9 11  1  0  0  0  0
  9 19  1  0  0  0  0
  7  8  1  0  0  0  0
  7  9  1  0  0  0  0
 23 24  1  0  0  0  0
 23 25  1  0  0  0  0
 23 26  1  0  0  0  0
 21 22  1  0  0  0  0
 21 23  1  0  0  0  0
M  END
$$$$
default_name
  -OEChem-01062215323D

 26 25  0     1  0  0  0  0  0999 V2000
   -2.8882   -3.2497    1.2537 H   0  0  0  0  0  0  0  0  0  0  0  0
   -2.8032   -2.3157    0.7017 C   0  0  0  0  0  0  0  0  0  0  0  0
   -3.5012   -1.5857    1.1067 H   0  0  0  0  0  0  0  0  0  0  0  0
   -3.0182   -2.4907   -0.3513 H   0  0  0  0  0  0  0  0  0  0  0  0
   -1.3942   -1.7897    0.8407 C   0  0  0  0  0  0  0  0  0  0  0  0
   -0.5672   -2.4077    1.5007 O   0  0  0  0  0  0  0  0  0  0  0  0
   -1.1222   -0.6447    0.2217 N   0  0  0  0  0  0  0  0  0  0  0  0
   -1.8592   -0.1777   -0.2863 H   0  0  0  0  0  0  0  0  0  0  0  0
    0.1838    0.0363    0.2367 C   0  0  1  0  0  0  0  0  0  0  0  0
    0.4395    0.3229   -0.7828 H   0  0  0  0  0  0  0  0  0  0  0  0
    0.1522    1.3184    1.0940 C   0  0  1  0  0  0  0  0  0  0  0  0
    1.1430    1.7714    1.0667 H   0  0  0  0  0  0  0  0  0  0  0  0
   -0.8507    2.3651    0.6129 C   0  0  0  0  0  0  0  0  0  0  0  0
   -1.8710    2.0030    0.7454 H   0  0  0  0  0  0  0  0  0  0  0  0
   -0.7222    3.2876    1.1779 H   0  0  0  0  0  0  0  0  0  0  0  0
   -0.6840    2.5736   -0.4443 H   0  0  0  0  0  0  0  0  0  0  0  0
   -0.1639    1.0232    2.4320 O   0  0  0  0  0  0  0  0  0  0  0  0
   -0.2677    1.8527    2.9030 H   0  0  0  0  0  0  0  0  0  0  0  0
    1.2858   -0.9061    0.7364 C   0  0  0  0  0  0  0  0  0  0  0  0
    2.1036   -0.5342    1.5780 O   0  0  0  0  0  0  0  0  0  0  0  0
    1.2955   -2.1503    0.2382 N   0  0  0  0  0  0  0  0  0  0  0  0
    0.5880   -2.4006   -0.4328 H   0  0  0  0  0  0  0  0  0  0  0  0
    2.2760   -3.1690    0.6104 C   0  0  0  0  0  0  0  0  0  0  0  0
    2.3020   -3.2772    1.6966 H   0  0  0  0  0  0  0  0  0  0  0  0
    2.0181   -4.1280    0.1607 H   0  0  0  0  0  0  0  0  0  0  0  0
    3.2683   -2.8659    0.2697 H   0  0  0  0  0  0  0  0  0  0  0  0
  5  6  2  0  0  0  0
  5  7  1  0  0  0  0
  2  3  1  0  0  0  0
  2  4  1  0  0  0  0
  2  5  1  0  0  0  0
  1  2  1  0  0  0  0
 19 20  2  0  0  0  0
 19 21  1  0  0  0  0
 17 18  1  0  0  0  0
 13 14  1  0  0  0  0
 13 15  1  0  0  0  0
 13 16  1  0  0  0  0
 11 12  1  0  0  0  0
 11 13  1  0  0  0  0
 11 17  1  0  0  0  0
  9 10  1  0  0  0  0
  9 11  1  0  0  0  0
  9 19  1  0  0  0  0
  7  8  1  0  0  0  0
  7  9  1  0  0  0  0
 23 24  1  0  0  0  0
 23 25  1  0  0  0  0
 23 26  1  0  0  0  0
 21 22  1  0  0  0  0
 21 23  1  0  0  0  0
M  END
$$$$
default_name
  -OEChem-01062215323D

 26 25  0     1  0  0  0  0  0999 V2000
   -2.8882   -3.2497    1.2537 H   0  0  0  0  0  0  0  0  0  0  0  0
   -2.8032   -2.3157    0.7017 C   0  0  0  0  0  0  0  0  0  0  0  0
   -3.5012   -1.5857    1.1067 H   0  0  0  0  0  0  0  0  0  0  0  0
   -3.0182   -2.4907   -0.3513 H   0  0  0  0  0  0  0  0  0  0  0  0
   -1.3942   -1.7897    0.8407 C   0  0  0  0  0  0  0  0  0  0  0  0
   -0.5672   -2.4077    1.5007 O   0  0  0  0  0  0  0  0  0  0  0  0
   -1.1222   -0.6447    0.2217 N   0  0  0  0  0  0  0  0  0  0  0  0
   -1.8592   -0.1777   -0.2863 H   0  0  0  0  0  0  0  0  0  0  0  0
    0.1838    0.0363    0.2367 C   0  0  1  0  0  0  0  0  0  0  0  0
    0.4395    0.3229   -0.7828 H   0  0  0  0  0  0  0  0  0  0  0  0
    0.1522    1.3184    1.0940 C   0  0  1  0  0  0  0  0  0  0  0  0
    1.1430    1.7714    1.0667 H   0  0  0  0  0  0  0  0  0  0  0  0
   -0.8507    2.3651    0.6129 C   0  0  0  0  0  0  0  0  0  0  0  0
   -1.8710    2.0030    0.7454 H   0  0  0  0  0  0  0  0  0  0  0  0
   -0.7222    3.2876    1.1779 H   0  0  0  0  0  0  0  0  0  0  0  0
   -0.6840    2.5736   -0.4443 H   0  0  0  0  0  0  0  0  0  0  0  0
   -0.1639    1.0232    2.4320 O   0  0  0  0  0  0  0  0  0  0  0  0
   -0.2677    1.8527    2.9030 H   0  0  0  0  0  0  0  0  0  0  0  0
    1.2858   -0.9061    0.7364 C   0  0  0  0  0  0  0  0  0  0  0  0
    1.9260   -0.6476    1.7555 O   0  0  0  0  0  0  0  0  0  0  0  0
    1.4943   -2.0272    0.0321 N   0  0  0  0  0  0  0  0  0  0  0  0
    0.9246   -2.1918   -0.7815 H   0  0  0  0  0  0  0  0  0  0  0  0
    2.5036   -3.0281    0.3742 C   0  0  0  0  0  0  0  0  0  0  0  0
    2.3758   -3.3416    1.4122 H   0  0  0  0  0  0  0  0  0  0  0  0
    2.4132   -3.8980   -0.2767 H   0  0  0  0  0  0  0  0  0  0  0  0
    3.5009   -2.5970    0.2639 H   0  0  0  0  0  0  0  0  0  0  0  0
  5  6  2  0  0  0  0
  5  7  1  0  0  0  0
  2  3  1  0  0  0  0
  2  4  1  0  0  0  0
  2  5  1  0  0  0  0
  1  2  1  0  0  0  0
 19 20  2  0  0  0  0
 19 21  1  0  0  0  0
 17 18  1  0  0  0  0
 13 14  1  0  0  0  0
 13 15  1  0  0  0  0
 13 16  1  0  0  0  0
 11 12  1  0  0  0  0
 11 13  1  0  0  0  0
 11 17  1  0  0  0  0
  9 10  1  0  0  0  0
  9 11  1  0  0  0  0
  9 19  1  0  0  0  0
  7  8  1  0  0  0  0
  7  9  1  0  0  0  0
 23 24  1  0  0  0  0
 23 25  1  0  0  0  0
 23 26  1  0  0  0  0
 21 22  1  0  0  0  0
 21 23  1  0  0  0  0
M  END
$$$$
default_name
  -OEChem-01062215323D

 26 25  0     1  0  0  0  0  0999 V2000
   -2.8882   -3.2497    1.2537 H   0  0  0  0  0  0  0  0  0  0  0  0
   -2.8032   -2.3157    0.7017 C   0  0  0  0  0  0  0  0  0  0  0  0
   -3.5012   -1.5857    1.1067 H   0  0  0  0  0  0  0  0  0  0  0  0
   -3.0182   -2.4907   -0.3513 H   0  0  0  0  0  0  0  0  0  0  0  0
   -1.3942   -1.7897    0.8407 C   0  0  0  0  0  0  0  0  0  0  0  0
   -0.5672   -2.4077    1.5007 O   0  0  0  0  0  0  0  0  0  0  0  0
   -1.1222   -0.6447    0.2217 N   0  0  0  0  0  0  0  0  0  0  0  0
   -1.8592   -0.1777   -0.2863 H   0  0  0  0  0  0  0  0  0  0  0  0
    0.1838    0.0363    0.2367 C   0  0  1  0  0  0  0  0  0  0  0  0
    0.4395    0.3229   -0.7828 H   0  0  0  0  0  0  0  0  0  0  0  0
    0.1522    1.3184    1.0940 C   0  0  1  0  0  0  0  0  0  0  0  0
    1.1430    1.7714    1.0667 H   0  0  0  0  0  0  0  0  0  0  0  0
   -0.8507    2.3651    0.6129 C   0  0  0  0  0  0  0  0  0  0  0  0
   -1.8710    2.0030    0.7454 H   0  0  0  0  0  0  0  0  0  0  0  0
   -0.7222    3.2876    1.1779 H   0  0  0  0  0  0  0  0  0  0  0  0
   -0.6840    2.5736   -0.4443 H   0  0  0  0  0  0  0  0  0  0  0  0
   -0.1639    1.0232    2.4320 O   0  0  0  0  0  0  0  0  0  0  0  0
   -0.2677    1.8527    2.9030 H   0  0  0  0  0  0  0  0  0  0  0  0
    1.2858   -0.9061    0.7364 C   0  0  0  0  0  0  0  0  0  0  0  0
    1.7358   -0.8052    1.8777 O   0  0  0  0  0  0  0  0  0  0  0  0
    1.7086   -1.8532   -0.1125 N   0  0  0  0  0  0  0  0  0  0  0  0
    1.2876   -1.8969   -1.0259 H   0  0  0  0  0  0  0  0  0  0  0  0
    2.7491   -2.8289    0.2085 C   0  0  0  0  0  0  0  0  0  0  0  0
    2.4978   -3.3447    1.1374 H   0  0  0  0  0  0  0  0  0  0  0  0
    2.8449   -3.5611   -0.5935 H   0  0  0  0  0  0  0  0  0  0  0  0
    3.7038   -2.3166    0.3453 H   0  0  0  0  0  0  0  0  0  0  0  0
  5  6  2  0  0  0  0
  5  7  1  0  0  0  0
  2  3  1  0  0  0  0
  2  4  1  0  0  0  0
  2  5  1  0  0  0  0
  1  2  1  0  0  0  0
 19 20  2  0  0  0  0
 19 21  1  0  0  0  0
 17 18  1  0  0  0  0
 13 14  1  0  0  0  0
 13 15  1  0  0  0  0
 13 16  1  0  0  0  0
 11 12  1  0  0  0  0
 11 13  1  0  0  0  0
 11 17  1  0  0  0  0
  9 10  1  0  0  0  0
  9 11  1  0  0  0  0
  9 19  1  0  0  0  0
  7  8  1  0  0  0  0
  7  9  1  0  0  0  0
 23 24  1  0  0  0  0
 23 25  1  0  0  0  0
 23 26  1  0  0  0  0
 21 22  1  0  0  0  0
 21 23  1  0  0  0  0
M  END
$$$$
default_name
  -OEChem-01062215323D

 26 25  0     1  0  0  0  0  0999 V2000
   -2.8882   -3.2497    1.2537 H   0  0  0  0  0  0  0  0  0  0  0  0
   -2.8032   -2.3157    0.7017 C   0  0  0  0  0  0  0  0  0  0  0  0
   -3.5012   -1.5857    1.1067 H   0  0  0  0  0  0  0  0  0  0  0  0
   -3.0182   -2.4907   -0.3513 H   0  0  0  0  0  0  0  0  0  0  0  0
   -1.3942   -1.7897    0.8407 C   0  0  0  0  0  0  0  0  0  0  0  0
   -0.5672   -2.4077    1.5007 O   0  0  0  0  0  0  0  0  0  0  0  0
   -1.1222   -0.6447    0.2217 N   0  0  0  0  0  0  0  0  0  0  0  0
   -1.8592   -0.1777   -0.2863 H   0  0  0  0  0  0  0  0  0  0  0  0
    0.1838    0.0363    0.2367 C   0  0  1  0  0  0  0  0  0  0  0  0
    0.4395    0.3229   -0.7828 H   0  0  0  0  0  0  0  0  0  0  0  0
    0.1522    1.3184    1.0940 C   0  0  1  0  0  0  0  0  0  0  0  0
    1.1430    1.7714    1.0667 H   0  0  0  0  0  0  0  0  0  0  0  0
   -0.8507    2.3651    0.6129 C   0  0  0  0  0  0  0  0  0  0  0  0
   -1.8710    2.0030    0.7454 H   0  0  0  0  0  0  0  0  0  0  0  0
   -0.7222    3.2876    1.1779 H   0  0  0  0  0  0  0  0  0  0  0  0
   -0.6840    2.5736   -0.4443 H   0  0  0  0  0  0  0  0  0  0  0  0
   -0.1639    1.0232    2.4320 O   0  0  0  0  0  0  0  0  0  0  0  0
   -0.2677    1.8527    2.9030 H   0  0  0  0  0  0  0  0  0  0  0  0
    1.2858   -0.9061    0.7364 C   0  0  0  0  0  0  0  0  0  0  0  0
    1.5460   -0.9962    1.9362 O   0  0  0  0  0  0  0  0  0  0  0  0
    1.9240   -1.6402   -0.1857 N   0  0  0  0  0  0  0  0  0  0  0  0
    1.6522   -1.5360   -1.1494 H   0  0  0  0  0  0  0  0  0  0  0  0
    2.9958   -2.5850    0.1245 C   0  0  0  0  0  0  0  0  0  0  0  0
    2.6596   -3.2863    0.8907 H   0  0  0  0  0  0  0  0  0  0  0  0
    3.2839   -3.1403   -0.7683 H   0  0  0  0  0  0  0  0  0  0  0  0
    3.8632   -2.0437    0.5084 H   0  0  0  0  0  0  0  0  0  0  0  0
  5  6  2  0  0  0  0
  5  7  1  0  0  0  0
  2  3  1  0  0  0  0
  2  4  1  0  0  0  0
  2  5  1  0  0  0  0
  1  2  1  0  0  0  0
 19 20  2  0  0  0  0
 19 21  1  0  0  0  0
 17 18  1  0  0  0  0
 13 14  1  0  0  0  0
 13 15  1  0  0  0  0
 13 16  1  0  0  0  0
 11 12  1  0  0  0  0
 11 13  1  0  0  0  0
 11 17  1  0  0  0  0
  9 10  1  0  0  0  0
  9 11  1  0  0  0  0
  9 19  1  0  0  0  0
  7  8  1  0  0  0  0
  7  9  1  0  0  0  0
 23 24  1  0  0  0  0
 23 25  1  0  0  0  0
 23 26  1  0  0  0  0
 21 22  1  0  0  0  0
 21 23  1  0  0  0  0
M  END
$$$$
default_name
  -OEChem-01062215323D

 26 25  0     1  0  0  0  0  0999 V2000
   -2.8882   -3.2497    1.2537 H   0  0  0  0  0  0  0  0  0  0  0  0
   -2.8032   -2.3157    0.7017 C   0  0  0  0  0  0  0  0  0  0  0  0
   -3.5012   -1.5857    1.1067 H   0  0  0  0  0  0  0  0  0  0  0  0
   -3.0182   -2.4907   -0.3513 H   0  0  0  0  0  0  0  0  0  0  0  0
   -1.3942   -1.7897    0.8407 C   0  0  0  0  0  0  0  0  0  0  0  0
   -0.5672   -2.4077    1.5007 O   0  0  0  0  0  0  0  0  0  0  0  0
   -1.1222   -0.6447    0.2217 N   0  0  0  0  0  0  0  0  0  0  0  0
   -1.8592   -0.1777   -0.2863 H   0  0  0  0  0  0  0  0  0  0  0  0
    0.1838    0.0363    0.2367 C   0  0  1  0  0  0  0  0  0  0  0  0
    0.4395    0.3229   -0.7828 H   0  0  0  0  0  0  0  0  0  0  0  0
    0.1522    1.3184    1.0940 C   0  0  1  0  0  0  0  0  0  0  0  0
    1.1430    1.7714    1.0667 H   0  0  0  0  0  0  0  0  0  0  0  0
   -0.8507    2.3651    0.6129 C   0  0  0  0  0  0  0  0  0  0  0  0
   -1.8710    2.0030    0.7454 H   0  0  0  0  0  0  0  0  0  0  0  0
   -0.7222    3.2876    1.1779 H   0  0  0  0  0  0  0  0  0  0  0  0
   -0.6840    2.5736   -0.4443 H   0  0  0  0  0  0  0  0  0  0  0  0
   -0.1639    1.0232    2.4320 O   0  0  0  0  0  0  0  0  0  0  0  0
   -0.2677    1.8527    2.9030 H   0  0  0  0  0  0  0  0  0  0  0  0
    1.2858   -0.9061    0.7364 C   0  0  0  0  0  0  0  0  0  0  0  0
    1.3694   -1.2076    1.9269 O   0  0  0  0  0  0  0  0  0  0  0  0
    2.1257   -1.4026   -0.1825 N   0  0  0  0  0  0  0  0  0  0  0  0
    1.9937   -1.1337   -1.1437 H   0  0  0  0  0  0  0  0  0  0  0  0
    3.2269   -2.3129    0.1279 C   0  0  0  0  0  0  0  0  0  0  0  0
    2.8502   -3.1704    0.6890 H   0  0  0  0  0  0  0  0  0  0  0  0
    3.7003   -2.6644   -0.7890 H   0  0  0  0  0  0  0  0  0  0  0  0
    3.9682   -1.7971    0.7419 H   0  0  0  0  0  0  0  0  0  0  0  0
  5  6  2  0  0  0  0
  5  7  1  0  0  0  0
  2  3  1  0  0  0  0
  2  4  1  0  0  0  0
  2  5  1  0  0  0  0
  1  2  1  0  0  0  0
 19 20  2  0  0  0  0
 19 21  1  0  0  0  0
 17 18  1  0  0  0  0
 13 14  1  0  0  0  0
 13 15  1  0  0  0  0
 13 16  1  0  0  0  0
 11 12  1  0  0  0  0
 11 13  1  0  0  0  0
 11 17  1  0  0  0  0
  9 10  1  0  0  0  0
  9 11  1  0  0  0  0
  9 19  1  0  0  0  0
  7  8  1  0  0  0  0
  7  9  1  0  0  0  0
 23 24  1  0  0  0  0
 23 25  1  0  0  0  0
 23 26  1  0  0  0  0
 21 22  1  0  0  0  0
 21 23  1  0  0  0  0
M  END
$$$$
default_name
  -OEChem-01062215323D

 26 25  0     1  0  0  0  0  0999 V2000
   -2.8882   -3.2497    1.2537 H   0  0  0  0  0  0  0  0  0  0  0  0
   -2.8032   -2.3157    0.7017 C   0  0  0  0  0  0  0  0  0  0  0  0
   -3.5012   -1.5857    1.1067 H   0  0  0  0  0  0  0  0  0  0  0  0
   -3.0182   -2.4907   -0.3513 H   0  0  0  0  0  0  0  0  0  0  0  0
   -1.3942   -1.7897    0.8407 C   0  0  0  0  0  0  0  0  0  0  0  0
   -0.5672   -2.4077    1.5007 O   0  0  0  0  0  0  0  0  0  0  0  0
   -1.1222   -0.6447    0.2217 N   0  0  0  0  0  0  0  0  0  0  0  0
   -1.8592   -0.1777   -0.2863 H   0  0  0  0  0  0  0  0  0  0  0  0
    0.1838    0.0363    0.2367 C   0  0  1  0  0  0  0  0  0  0  0  0
    0.4395    0.3229   -0.7828 H   0  0  0  0  0  0  0  0  0  0  0  0
    0.1522    1.3184    1.0940 C   0  0  1  0  0  0  0  0  0  0  0  0
    1.1430    1.7714    1.0667 H   0  0  0  0  0  0  0  0  0  0  0  0
   -0.8507    2.3651    0.6129 C   0  0  0  0  0  0  0  0  0  0  0  0
   -1.8710    2.0030    0.7454 H   0  0  0  0  0  0  0  0  0  0  0  0
   -0.7222    3.2876    1.1779 H   0  0  0  0  0  0  0  0  0  0  0  0
   -0.6840    2.5736   -0.4443 H   0  0  0  0  0  0  0  0  0  0  0  0
   -0.1639    1.0232    2.4320 O   0  0  0  0  0  0  0  0  0  0  0  0
   -0.2677    1.8527    2.9030 H   0  0  0  0  0  0  0  0  0  0  0  0
    1.2858   -0.9061    0.7364 C   0  0  0  0  0  0  0  0  0  0  0  0
    1.2182   -1.4249    1.8506 O   0  0  0  0  0  0  0  0  0  0  0  0
    2.3001   -1.1567   -0.1032 N   0  0  0  0  0  0  0  0  0  0  0  0
    2.2886   -0.7174   -1.0090 H   0  0  0  0  0  0  0  0  0  0  0  0
    3.4266   -2.0313    0.2186 C   0  0  0  0  0  0  0  0  0  0  0  0
    3.0566   -3.0049    0.5460 H   0  0  0  0  0  0  0  0  0  0  0  0
    4.0657   -2.1657   -0.6543 H   0  0  0  0  0  0  0  0  0  0  0  0
    4.0117   -1.5934    1.0301 H   0  0  0  0  0  0  0  0  0  0  0  0
  5  6  2  0  0  0  0
  5  7  1  0  0  0  0
  2  3  1  0  0  0  0
  2  4  1  0  0  0  0
  2  5  1  0  0  0  0
  1  2  1  0  0  0  0
 19 20  2  0  0  0  0
 19 21  1  0  0  0  0
 17 18  1  0  0  0  0
 13 14  1  0  0  0  0
 13 15  1  0  0  0  0
 13 16  1  0  0  0  0
 11 12  1  0  0  0  0
 11 13  1  0  0  0  0
 11 17  1  0  0  0  0
  9 10  1  0  0  0  0
  9 11  1  0  0  0  0
  9 19  1  0  0  0  0
  7  8  1  0  0  0  0
  7  9  1  0  0  0  0
 23 24  1  0  0  0  0
 23 25  1  0  0  0  0
 23 26  1  0  0  0  0
 21 22  1  0  0  0  0
 21 23  1  0  0  0  0
M  END
$$$$
default_name
  -OEChem-01062215323D

 26 25  0     1  0  0  0  0  0999 V2000
   -2.8882   -3.2497    1.2537 H   0  0  0  0  0  0  0  0  0  0  0  0
   -2.8032   -2.3157    0.7017 C   0  0  0  0  0  0  0  0  0  0  0  0
   -3.5012   -1.5857    1.1067 H   0  0  0  0  0  0  0  0  0  0  0  0
   -3.0182   -2.4907   -0.3513 H   0  0  0  0  0  0  0  0  0  0  0  0
   -1.3942   -1.7897    0.8407 C   0  0  0  0  0  0  0  0  0  0  0  0
   -0.5672   -2.4077    1.5007 O   0  0  0  0  0  0  0  0  0  0  0  0
   -1.1222   -0.6447    0.2217 N   0  0  0  0  0  0  0  0  0  0  0  0
   -1.8592   -0.1777   -0.2863 H   0  0  0  0  0  0  0  0  0  0  0  0
    0.1838    0.0363    0.2367 C   0  0  1  0  0  0  0  0  0  0  0  0
    0.4395    0.3229   -0.7828 H   0  0  0  0  0  0  0  0  0  0  0  0
    0.1522    1.3184    1.0940 C   0  0  1  0  0  0  0  0  0  0  0  0
    1.1430    1.7714    1.0667 H   0  0  0  0  0  0  0  0  0  0  0  0
   -0.8507    2.3651    0.6129 C   0  0  0  0  0  0  0  0  0  0  0  0
   -1.8710    2.0030    0.7454 H   0  0  0  0  0  0  0  0  0  0  0  0
   -0.7222    3.2876    1.1779 H   0  0  0  0  0  0  0  0  0  0  0  0
   -0.6840    2.5736   -0.4443 H   0  0  0  0  0  0  0  0  0  0  0  0
   -0.1639    1.0232    2.4320 O   0  0  0  0  0  0  0  0  0  0  0  0
   -0.2677    1.8527    2.9030 H   0  0  0  0  0  0  0  0  0  0  0  0
    1.2858   -0.9061    0.7364 C   0  0  0  0  0  0  0  0  0  0  0  0
    1.1026   -1.6334    1.7124 O   0  0  0  0  0  0  0  0  0  0  0  0
    2.4351   -0.9192    0.0468 N   0  0  0  0  0  0  0  0  0  0  0  0
    2.5170   -0.3154   -0.7545 H   0  0  0  0  0  0  0  0  0  0  0  0
    3.5814   -1.7593    0.3903 C   0  0  0  0  0  0  0  0  0  0  0  0
    3.2647   -2.8010    0.4716 H   0  0  0  0  0  0  0  0  0  0  0  0
    4.3551   -1.6783   -0.3734 H   0  0  0  0  0  0  0  0  0  0  0  0
    3.9907   -1.4466    1.3533 H   0  0  0  0  0  0  0  0  0  0  0  0
  5  6  2  0  0  0  0
  5  7  1  0  0  0  0
  2  3  1  0  0  0  0
  2  4  1  0  0  0  0
  2  5  1  0  0  0  0
  1  2  1  0  0  0  0
 19 20  2  0  0  0  0
 19 21  1  0  0  0  0
 17 18  1  0  0  0  0
 13 14  1  0  0  0  0
 13 15  1  0  0  0  0
 13 16  1  0  0  0  0
 11 12  1  0  0  0  0
 11 13  1  0  0  0  0
 11 17  1  0  0  0  0
  9 10  1  0  0  0  0
  9 11  1  0  0  0  0
  9 19  1  0  0  0  0
  7  8  1  0  0  0  0
  7  9  1  0  0  0  0
 23 24  1  0  0  0  0
 23 25  1  0  0  0  0
 23 26  1  0  0  0  0
 21 22  1  0  0  0  0
 21 23  1  0  0  0  0
M  END
$$$$
default_name
  -OEChem-01062215323D

 26 25  0     1  0  0  0  0  0999 V2000
   -2.8882   -3.2497    1.2537 H   0  0  0  0  0  0  0  0  0  0  0  0
   -2.8032   -2.3157    0.7017 C   0  0  0  0  0  0  0  0  0  0  0  0
   -3.5012   -1.5857    1.1067 H   0  0  0  0  0  0  0  0  0  0  0  0
   -3.0182   -2.4907   -0.3513 H   0  0  0  0  0  0  0  0  0  0  0  0
   -1.3942   -1.7897    0.8407 C   0  0  0  0  0  0  0  0  0  0  0  0
   -0.5672   -2.4077    1.5007 O   0  0  0  0  0  0  0  0  0  0  0  0
   -1.1222   -0.6447    0.2217 N   0  0  0  0  0  0  0  0  0  0  0  0
   -1.8592   -0.1777   -0.2863 H   0  0  0  0  0  0  0  0  0  0  0  0
    0.1838    0.0363    0.2367 C   0  0  1  0  0  0  0  0  0  0  0  0
    0.4395    0.3229   -0.7828 H   0  0  0  0  0  0  0  0  0  0  0  0
    0.1522    1.3184    1.0940 C   0  0  1  0  0  0  0  0  0  0  0  0
    1.1430    1.7714    1.0667 H   0  0  0  0  0  0  0  0  0  0  0  0
   -0.8507    2.3651    0.6129 C   0  0  0  0  0  0  0  0  0  0  0  0
   -1.8710    2.0030    0.7454 H   0  0  0  0  0  0  0  0  0  0  0  0
   -0.7222    3.2876    1.1779 H   0  0  0  0  0  0  0  0  0  0  0  0
   -0.6840    2.5736   -0.4443 H   0  0  0  0  0  0  0  0  0  0  0  0
   -0.1639    1.0232    2.4320 O   0  0  0  0  0  0  0  0  0  0  0  0
   -0.2677    1.8527    2.9030 H   0  0  0  0  0  0  0  0  0  0  0  0
    1.2858   -0.9061    0.7364 C   0  0  0  0  0  0  0  0  0  0  0  0
    1.0304   -1.8188    1.5218 O   0  0  0  0  0  0  0  0  0  0  0  0
    2.5216   -0.7064    0.2574 N   0  0  0  0  0  0  0  0  0  0  0  0
    2.6632    0.0448   -0.3977 H   0  0  0  0  0  0  0  0  0  0  0  0
    3.6806   -1.5154    0.6314 C   0  0  0  0  0  0  0  0  0  0  0  0
    3.4604   -2.5726    0.4707 H   0  0  0  0  0  0  0  0  0  0  0  0
    4.5489   -1.2353    0.0347 H   0  0  0  0  0  0  0  0  0  0  0  0
    3.9066   -1.3667    1.6894 H   0  0  0  0  0  0  0  0  0  0  0  0
  5  6  2  0  0  0  0
  5  7  1  0  0  0  0
  2  3  1  0  0  0  0
  2  4  1  0  0  0  0
  2  5  1  0  0  0  0
  1  2  1  0  0  0  0
 19 20  2  0  0  0  0
 19 21  1  0  0  0  0
 17 18  1  0  0  0  0
 13 14  1  0  0  0  0
 13 15  1  0  0  0  0
 13 16  1  0  0  0  0
 11 12  1  0  0  0  0
 11 13  1  0  0  0  0
 11 17  1  0  0  0  0
  9 10  1  0  0  0  0
  9 11  1  0  0  0  0
  9 19  1  0  0  0  0
  7  8  1  0  0  0  0
  7  9  1  0  0  0  0
 23 24  1  0  0  0  0
 23 25  1  0  0  0  0
 23 26  1  0  0  0  0
 21 22  1  0  0  0  0
 21 23  1  0  0  0  0
M  END
$$$$
default_name
  -OEChem-01062215323D

 26 25  0     1  0  0  0  0  0999 V2000
   -2.8882   -3.2497    1.2537 H   0  0  0  0  0  0  0  0  0  0  0  0
   -2.8032   -2.3157    0.7017 C   0  0  0  0  0  0  0  0  0  0  0  0
   -3.5012   -1.5857    1.1067 H   0  0  0  0  0  0  0  0  0  0  0  0
   -3.0182   -2.4907   -0.3513 H   0  0  0  0  0  0  0  0  0  0  0  0
   -1.3942   -1.7897    0.8407 C   0  0  0  0  0  0  0  0  0  0  0  0
   -0.5672   -2.4077    1.5007 O   0  0  0  0  0  0  0  0  0  0  0  0
   -1.1222   -0.6447    0.2217 N   0  0  0  0  0  0  0  0  0  0  0  0
   -1.8592   -0.1777   -0.2863 H   0  0  0  0  0  0  0  0  0  0  0  0
    0.1838    0.0363    0.2367 C   0  0  1  0  0  0  0  0  0  0  0  0
    0.4395    0.3229   -0.7828 H   0  0  0  0  0  0  0  0  0  0  0  0
    0.1522    1.3184    1.0940 C   0  0  1  0  0  0  0  0  0  0  0  0
    1.1430    1.7714    1.0667 H   0  0  0  0  0  0  0  0  0  0  0  0
   -0.8507    2.3651    0.6129 C   0  0  0  0  0  0  0  0  0  0  0  0
   -1.8710    2.0030    0.7454 H   0  0  0  0  0  0  0  0  0  0  0  0
   -0.7222    3.2876    1.1779 H   0  0  0  0  0  0  0  0  0  0  0  0
   -0.6840    2.5736   -0.4443 H   0  0  0  0  0  0  0  0  0  0  0  0
   -0.1639    1.0232    2.4320 O   0  0  0  0  0  0  0  0  0  0  0  0
   -0.2677    1.8527    2.9030 H   0  0  0  0  0  0  0  0  0  0  0  0
    1.2858   -0.9061    0.7364 C   0  0  0  0  0  0  0  0  0  0  0  0
    1.0067   -1.9686    1.2917 O   0  0  0  0  0  0  0  0  0  0  0  0
    2.5538   -0.5326    0.5142 N   0  0  0  0  0  0  0  0  0  0  0  0
    2.7173    0.3387    0.0372 H   0  0  0  0  0  0  0  0  0  0  0  0
    3.7176   -1.3163    0.9254 C   0  0  0  0  0  0  0  0  0  0  0  0
    3.6303   -2.3354    0.5434 H   0  0  0  0  0  0  0  0  0  0  0  0
    4.6339   -0.8670    0.5420 H   0  0  0  0  0  0  0  0  0  0  0  0
    3.7653   -1.3590    2.0156 H   0  0  0  0  0  0  0  0  0  0  0  0
  5  6  2  0  0  0  0
  5  7  1  0  0  0  0
  2  3  1  0  0  0  0
  2  4  1  0  0  0  0
  2  5  1  0  0  0  0
  1  2  1  0  0  0  0
 19 20  2  0  0  0  0
 19 21  1  0  0  0  0
 17 18  1  0  0  0  0
 13 14  1  0  0  0  0
 13 15  1  0  0  0  0
 13 16  1  0  0  0  0
 11 12  1  0  0  0  0
 11 13  1  0  0  0  0
 11 17  1  0  0  0  0
  9 10  1  0  0  0  0
  9 11  1  0  0  0  0
  9 19  1  0  0  0  0
  7  8  1  0  0  0  0
  7  9  1  0  0  0  0
 23 24  1  0  0  0  0
 23 25  1  0  0  0  0
 23 26  1  0  0  0  0
 21 22  1  0  0  0  0
 21 23  1  0  0  0  0
M  END
$$$$
default_name
  -OEChem-01062215323D

 26 25  0     1  0  0  0  0  0999 V2000
   -2.8882   -3.2497    1.2537 H   0  0  0  0  0  0  0  0  0  0  0  0
   -2.8032   -2.3157    0.7017 C   0  0  0  0  0  0  0  0  0  0  0  0
   -3.5012   -1.5857    1.1067 H   0  0  0  0  0  0  0  0  0  0  0  0
   -3.0182   -2.4907   -0.3513 H   0  0  0  0  0  0  0  0  0  0  0  0
   -1.3942   -1.7897    0.8407 C   0  0  0  0  0  0  0  0  0  0  0  0
   -0.5672   -2.4077    1.5007 O   0  0  0  0  0  0  0  0  0  0  0  0
   -1.1222   -0.6447    0.2217 N   0  0  0  0  0  0  0  0  0  0  0  0
   -1.8592   -0.1777   -0.2863 H   0  0  0  0  0  0  0  0  0  0  0  0
    0.1838    0.0363    0.2367 C   0  0  1  0  0  0  0  0  0  0  0  0
    0.3185    0.5532   -0.7127 H   0  0  0  0  0  0  0  0  0  0  0  0
    0.2698    1.0869    1.3630 C   0  0  1  0  0  0  0  0  0  0  0  0
    1.2552    1.5505    1.3224 H   0  0  0  0  0  0  0  0  0  0  0  0
   -0.7717    2.1993    1.2583 C   0  0  0  0  0  0  0  0  0  0  0  0
   -1.7727    1.7996    1.4250 H   0  0  0  0  0  0  0  0  0  0  0  0
   -0.5658    2.9696    2.0006 H   0  0  0  0  0  0  0  0  0  0  0  0
   -0.7306    2.6474    0.2651 H   0  0  0  0  0  0  0  0  0  0  0  0
    0.1132    0.4876    2.6254 O   0  0  0  0  0  0  0  0  0  0  0  0
    0.0761    1.1851    3.2831 H   0  0  0  0  0  0  0  0  0  0  0  0
    1.3270   -0.9771    0.3715 C   0  0  0  0  0  0  0  0  0  0  0  0
    1.0990   -2.1856    0.4249 O   0  0  0  0  0  0  0  0  0  0  0  0
    2.5747   -0.4880    0.3980 N   0  0  0  0  0  0  0  0  0  0  0  0
    2.6973    0.5089    0.3306 H   0  0  0  0  0  0  0  0  0  0  0  0
    3.7723   -1.3177    0.5209 C   0  0  0  0  0  0  0  0  0  0  0  0
    3.7663   -2.0913   -0.2495 H   0  0  0  0  0  0  0  0  0  0  0  0
    4.6700   -0.7092    0.4109 H   0  0  0  0  0  0  0  0  0  0  0  0
    3.7836   -1.8041    1.4986 H   0  0  0  0  0  0  0  0  0  0  0  0
  5  6  2  0  0  0  0
  5  7  1  0  0  0  0
  2  3  1  0  0  0  0
  2  4  1  0  0  0  0
  2  5  1  0  0  0  0
  1  2  1  0  0  0  0
 19 20  2  0  0  0  0
 19 21  1  0  0  0  0
 17 18  1  0  0  0  0
 13 14  1  0  0  0  0
 13 15  1  0  0  0  0
 13 16  1  0  0  0  0
 11 12  1  0  0  0  0
 11 13  1  0  0  0  0
 11 17  1  0  0  0  0
  9 10  1  0  0  0  0
  9 11  1  0  0  0  0
  9 19  1  0  0  0  0
  7  8  1  0  0  0  0
  7  9  1  0  0  0  0
 23 24  1  0  0  0  0
 23 25  1  0  0  0  0
 23 26  1  0  0  0  0
 21 22  1  0  0  0  0
 21 23  1  0  0  0  0
M  END
$$$$
default_name
  -OEChem-01062215323D

 26 25  0     1  0  0  0  0  0999 V2000
   -2.8882   -3.2497    1.2537 H   0  0  0  0  0  0  0  0  0  0  0  0
   -2.8032   -2.3157    0.7017 C   0  0  0  0  0  0  0  0  0  0  0  0
   -3.5012   -1.5857    1.1067 H   0  0  0  0  0  0  0  0  0  0  0  0
   -3.0182   -2.4907   -0.3513 H   0  0  0  0  0  0  0  0  0  0  0  0
   -1.3942   -1.7897    0.8407 C   0  0  0  0  0  0  0  0  0  0  0  0
   -0.5672   -2.4077    1.5007 O   0  0  0  0  0  0  0  0  0  0  0  0
   -1.1222   -0.6447    0.2217 N   0  0  0  0  0  0  0  0  0  0  0  0
   -1.8592   -0.1777   -0.2863 H   0  0  0  0  0  0  0  0  0  0  0  0
    0.1838    0.0363    0.2367 C   0  0  1  0  0  0  0  0  0  0  0  0
    0.3185    0.5532   -0.7127 H   0  0  0  0  0  0  0  0  0  0  0  0
    0.2698    1.0869    1.3630 C   0  0  1  0  0  0  0  0  0  0  0  0
    1.2552    1.5505    1.3224 H   0  0  0  0  0  0  0  0  0  0  0  0
   -0.7717    2.1993    1.2583 C   0  0  0  0  0  0  0  0  0  0  0  0
   -1.7727    1.7996    1.4250 H   0  0  0  0  0  0  0  0  0  0  0  0
   -0.5658    2.9696    2.0006 H   0  0  0  0  0  0  0  0  0  0  0  0
   -0.7306    2.6474    0.2651 H   0  0  0  0  0  0  0  0  0  0  0  0
    0.1132    0.4876    2.6254 O   0  0  0  0  0  0  0  0  0  0  0  0
    0.0761    1.1851    3.2831 H   0  0  0  0  0  0  0  0  0  0  0  0
    1.3270   -0.9771    0.3715 C   0  0  0  0  0  0  0  0  0  0  0  0
    1.1412   -2.1741    0.1529 O   0  0  0  0  0  0  0  0  0  0  0  0
    2.5320   -0.4952    0.7066 N   0  0  0  0  0  0  0  0  0  0  0  0
    2.6248    0.4965    0.8532 H   0  0  0  0  0  0  0  0  0  0  0  0
    3.7235   -1.3258    0.8744 C   0  0  0  0  0  0  0  0  0  0  0  0
    3.8782   -1.9344   -0.0187 H   0  0  0  0  0  0  0  0  0  0  0  0
    4.6022   -0.7021    1.0399 H   0  0  0  0  0  0  0  0  0  0  0  0
    3.5888   -1.9933    1.7282 H   0  0  0  0  0  0  0  0  0  0  0  0
  5  6  2  0  0  0  0
  5  7  1  0  0  0  0
  2  3  1  0  0  0  0
  2  4  1  0  0  0  0
  2  5  1  0  0  0  0
  1  2  1  0  0  0  0
 19 20  2  0  0  0  0
 19 21  1  0  0  0  0
 17 18  1  0  0  0  0
 13 14  1  0  0  0  0
 13 15  1  0  0  0  0
 13 16  1  0  0  0  0
 11 12  1  0  0  0  0
 11 13  1  0  0  0  0
 11 17  1  0  0  0  0
  9 10  1  0  0  0  0
  9 11  1  0  0  0  0
  9 19  1  0  0  0  0
  7  8  1  0  0  0  0
  7  9  1  0  0  0  0
 23 24  1  0  0  0  0
 23 25  1  0  0  0  0
 23 26  1  0  0  0  0
 21 22  1  0  0  0  0
 21 23  1  0  0  0  0
M  END
$$$$
default_name
  -OEChem-01062215323D

 26 25  0     1  0  0  0  0  0999 V2000
   -2.8882   -3.2497    1.2537 H   0  0  0  0  0  0  0  0  0  0  0  0
   -2.8032   -2.3157    0.7017 C   0  0  0  0  0  0  0  0  0  0  0  0
   -3.5012   -1.5857    1.1067 H   0  0  0  0  0  0  0  0  0  0  0  0
   -3.0182   -2.4907   -0.3513 H   0  0  0  0  0  0  0  0  0  0  0  0
   -1.3942   -1.7897    0.8407 C   0  0  0  0  0  0  0  0  0  0  0  0
   -0.5672   -2.4077    1.5007 O   0  0  0  0  0  0  0  0  0  0  0  0
   -1.1222   -0.6447    0.2217 N   0  0  0  0  0  0  0  0  0  0  0  0
   -1.8592   -0.1777   -0.2863 H   0  0  0  0  0  0  0  0  0  0  0  0
    0.1838    0.0363    0.2367 C   0  0  1  0  0  0  0  0  0  0  0  0
    0.3185    0.5532   -0.7127 H   0  0  0  0  0  0  0  0  0  0  0  0
    0.2698    1.0869    1.3630 C   0  0  1  0  0  0  0  0  0  0  0  0
    1.2552    1.5505    1.3224 H   0  0  0  0  0  0  0  0  0  0  0  0
   -0.7717    2.1993    1.2583 C   0  0  0  0  0  0  0  0  0  0  0  0
   -1.7727    1.7996    1.4250 H   0  0  0  0  0  0  0  0  0  0  0  0
   -0.5658    2.9696    2.0006 H   0  0  0  0  0  0  0  0  0  0  0  0
   -0.7306    2.6474    0.2651 H   0  0  0  0  0  0  0  0  0  0  0  0
    0.1132    0.4876    2.6254 O   0  0  0  0  0  0  0  0  0  0  0  0
    0.0761    1.1851    3.2831 H   0  0  0  0  0  0  0  0  0  0  0  0
    1.3270   -0.9771    0.3715 C   0  0  0  0  0  0  0  0  0  0  0  0
    1.2282   -2.1097   -0.1005 O   0  0  0  0  0  0  0  0  0  0  0  0
    2.4381   -0.5626    0.9961 N   0  0  0  0  0  0  0  0  0  0  0  0
    2.4656    0.3821    1.3431 H   0  0  0  0  0  0  0  0  0  0  0  0
    3.6161   -1.4028    1.2060 C   0  0  0  0  0  0  0  0  0  0  0  0
    3.9432   -1.8248    0.2537 H   0  0  0  0  0  0  0  0  0  0  0  0
    4.4289   -0.8181    1.6372 H   0  0  0  0  0  0  0  0  0  0  0  0
    3.3657   -2.2248    1.8801 H   0  0  0  0  0  0  0  0  0  0  0  0
  5  6  2  0  0  0  0
  5  7  1  0  0  0  0
  2  3  1  0  0  0  0
  2  4  1  0  0  0  0
  2  5  1  0  0  0  0
  1  2  1  0  0  0  0
 19 20  2  0  0  0  0
 19 21  1  0  0  0  0
 17 18  1  0  0  0  0
 13 14  1  0  0  0  0
 13 15  1  0  0  0  0
 13 16  1  0  0  0  0
 11 12  1  0  0  0  0
 11 13  1  0  0  0  0
 11 17  1  0  0  0  0
  9 10  1  0  0  0  0
  9 11  1  0  0  0  0
  9 19  1  0  0  0  0
  7  8  1  0  0  0  0
  7  9  1  0  0  0  0
 23 24  1  0  0  0  0
 23 25  1  0  0  0  0
 23 26  1  0  0  0  0
 21 22  1  0  0  0  0
 21 23  1  0  0  0  0
M  END
$$$$
default_name
  -OEChem-01062215323D

 26 25  0     1  0  0  0  0  0999 V2000
   -2.8882   -3.2497    1.2537 H   0  0  0  0  0  0  0  0  0  0  0  0
   -2.8032   -2.3157    0.7017 C   0  0  0  0  0  0  0  0  0  0  0  0
   -3.5012   -1.5857    1.1067 H   0  0  0  0  0  0  0  0  0  0  0  0
   -3.0182   -2.4907   -0.3513 H   0  0  0  0  0  0  0  0  0  0  0  0
   -1.3942   -1.7897    0.8407 C   0  0  0  0  0  0  0  0  0  0  0  0
   -0.5672   -2.4077    1.5007 O   0  0  0  0  0  0  0  0  0  0  0  0
   -1.1222   -0.6447    0.2217 N   0  0  0  0  0  0  0  0  0  0  0  0
   -1.8592   -0.1777   -0.2863 H   0  0  0  0  0  0  0  0  0  0  0  0
    0.1838    0.0363    0.2367 C   0  0  1  0  0  0  0  0  0  0  0  0
    0.3185    0.5532   -0.7127 H   0  0  0  0  0  0  0  0  0  0  0  0
    0.2698    1.0869    1.3630 C   0  0  1  0  0  0  0  0  0  0  0  0
    1.2552    1.5505    1.3224 H   0  0  0  0  0  0  0  0  0  0  0  0
   -0.7717    2.1993    1.2583 C   0  0  0  0  0  0  0  0  0  0  0  0
   -1.7727    1.7996    1.4250 H   0  0  0  0  0  0  0  0  0  0  0  0
   -0.5658    2.9696    2.0006 H   0  0  0  0  0  0  0  0  0  0  0  0
   -0.7306    2.6474    0.2651 H   0  0  0  0  0  0  0  0  0  0  0  0
    0.1132    0.4876    2.6254 O   0  0  0  0  0  0  0  0  0  0  0  0
    0.0761    1.1851    3.2831 H   0  0  0  0  0  0  0  0  0  0  0  0
    1.3270   -0.9771    0.3715 C   0  0  0  0  0  0  0  0  0  0  0  0
    1.3542   -1.9965   -0.3180 O   0  0  0  0  0  0  0  0  0  0  0  0
    2.2995   -0.6857    1.2466 N   0  0  0  0  0  0  0  0  0  0  0  0
    2.2306    0.1734    1.7670 H   0  0  0  0  0  0  0  0  0  0  0  0
    3.4574   -1.5437    1.4931 C   0  0  0  0  0  0  0  0  0  0  0  0
    3.9570   -1.7700    0.5491 H   0  0  0  0  0  0  0  0  0  0  0  0
    4.1620   -1.0494    2.1622 H   0  0  0  0  0  0  0  0  0  0  0  0
    3.1295   -2.4828    1.9441 H   0  0  0  0  0  0  0  0  0  0  0  0
  5  6  2  0  0  0  0
  5  7  1  0  0  0  0
  2  3  1  0  0  0  0
  2  4  1  0  0  0  0
  2  5  1  0  0  0  0
  1  2  1  0  0  0  0
 19 20  2  0  0  0  0
 19 21  1  0  0  0  0
 17 18  1  0  0  0  0
 13 14  1  0  0  0  0
 13 15  1  0  0  0  0
 13 16  1  0  0  0  0
 11 12  1  0  0  0  0
 11 13  1  0  0  0  0
 11 17  1  0  0  0  0
  9 10  1  0  0  0  0
  9 11  1  0  0  0  0
  9 19  1  0  0  0  0
  7  8  1  0  0  0  0
  7  9  1  0  0  0  0
 23 24  1  0  0  0  0
 23 25  1  0  0  0  0
 23 26  1  0  0  0  0
 21 22  1  0  0  0  0
 21 23  1  0  0  0  0
M  END
$$$$
default_name
  -OEChem-01062215323D

 26 25  0     1  0  0  0  0  0999 V2000
   -2.8882   -3.2497    1.2537 H   0  0  0  0  0  0  0  0  0  0  0  0
   -2.8032   -2.3157    0.7017 C   0  0  0  0  0  0  0  0  0  0  0  0
   -3.5012   -1.5857    1.1067 H   0  0  0  0  0  0  0  0  0  0  0  0
   -3.0182   -2.4907   -0.3513 H   0  0  0  0  0  0  0  0  0  0  0  0
   -1.3942   -1.7897    0.8407 C   0  0  0  0  0  0  0  0  0  0  0  0
   -0.5672   -2.4077    1.5007 O   0  0  0  0  0  0  0  0  0  0  0  0
   -1.1222   -0.6447    0.2217 N   0  0  0  0  0  0  0  0  0  0  0  0
   -1.8592   -0.1777   -0.2863 H   0  0  0  0  0  0  0  0  0  0  0  0
    0.1838    0.0363    0.2367 C   0  0  1  0  0  0  0  0  0  0  0  0
    0.3185    0.5532   -0.7127 H   0  0  0  0  0  0  0  0  0  0  0  0
    0.2698    1.0869    1.3630 C   0  0  1  0  0  0  0  0  0  0  0  0
    1.2552    1.5505    1.3224 H   0  0  0  0  0  0  0  0  0  0  0  0
   -0.7717    2.1993    1.2583 C   0  0  0  0  0  0  0  0  0  0  0  0
   -1.7727    1.7996    1.4250 H   0  0  0  0  0  0  0  0  0  0  0  0
   -0.5658    2.9696    2.0006 H   0  0  0  0  0  0  0  0  0  0  0  0
   -0.7306    2.6474    0.2651 H   0  0  0  0  0  0  0  0  0  0  0  0
    0.1132    0.4876    2.6254 O   0  0  0  0  0  0  0  0  0  0  0  0
    0.0761    1.1851    3.2831 H   0  0  0  0  0  0  0  0  0  0  0  0
    1.3270   -0.9771    0.3715 C   0  0  0  0  0  0  0  0  0  0  0  0
    1.5104   -1.8424   -0.4846 O   0  0  0  0  0  0  0  0  0  0  0  0
    2.1255   -0.8561    1.4412 N   0  0  0  0  0  0  0  0  0  0  0  0
    1.9359   -0.1154    2.0961 H   0  0  0  0  0  0  0  0  0  0  0  0
    3.2582   -1.7388    1.7161 C   0  0  0  0  0  0  0  0  0  0  0  0
    3.9185   -1.7737    0.8473 H   0  0  0  0  0  0  0  0  0  0  0  0
    3.8197   -1.3802    2.5790 H   0  0  0  0  0  0  0  0  0  0  0  0
    2.8963   -2.7496    1.9157 H   0  0  0  0  0  0  0  0  0  0  0  0
  5  6  2  0  0  0  0
  5  7  1  0  0  0  0
  2  3  1  0  0  0  0
  2  4  1  0  0  0  0
  2  5  1  0  0  0  0
  1  2  1  0  0  0  0
 19 20  2  0  0  0  0
 19 21  1  0  0  0  0
 17 18  1  0  0  0  0
 13 14  1  0  0  0  0
 13 15  1  0  0  0  0
 13 16  1  0  0  0  0
 11 12  1  0  0  0  0
 11 13  1  0  0  0  0
 11 17  1  0  0  0  0
  9 10  1  0  0  0  0
  9 11  1  0  0  0  0
  9 19  1  0  0  0  0
  7  8  1  0  0  0  0
  7  9  1  0  0  0  0
 23 24  1  0  0  0  0
 23 25  1  0  0  0  0
 23 26  1  0  0  0  0
 21 22  1  0  0  0  0
 21 23  1  0  0  0  0
M  END
$$$$
default_name
  -OEChem-01062215323D

 26 25  0     1  0  0  0  0  0999 V2000
   -2.8882   -3.2497    1.2537 H   0  0  0  0  0  0  0  0  0  0  0  0
   -2.8032   -2.3157    0.7017 C   0  0  0  0  0  0  0  0  0  0  0  0
   -3.5012   -1.5857    1.1067 H   0  0  0  0  0  0  0  0  0  0  0  0
   -3.0182   -2.4907   -0.3513 H   0  0  0  0  0  0  0  0  0  0  0  0
   -1.3942   -1.7897    0.8407 C   0  0  0  0  0  0  0  0  0  0  0  0
   -0.5672   -2.4077    1.5007 O   0  0  0  0  0  0  0  0  0  0  0  0
   -1.1222   -0.6447    0.2217 N   0  0  0  0  0  0  0  0  0  0  0  0
   -1.8592   -0.1777   -0.2863 H   0  0  0  0  0  0  0  0  0  0  0  0
    0.1838    0.0363    0.2367 C   0  0  1  0  0  0  0  0  0  0  0  0
    0.3185    0.5532   -0.7127 H   0  0  0  0  0  0  0  0  0  0  0  0
    0.2698    1.0869    1.3630 C   0  0  1  0  0  0  0  0  0  0  0  0
    1.2552    1.5505    1.3224 H   0  0  0  0  0  0  0  0  0  0  0  0
   -0.7717    2.1993    1.2583 C   0  0  0  0  0  0  0  0  0  0  0  0
   -1.7727    1.7996    1.4250 H   0  0  0  0  0  0  0  0  0  0  0  0
   -0.5658    2.9696    2.0006 H   0  0  0  0  0  0  0  0  0  0  0  0
   -0.7306    2.6474    0.2651 H   0  0  0  0  0  0  0  0  0  0  0  0
    0.1132    0.4876    2.6254 O   0  0  0  0  0  0  0  0  0  0  0  0
    0.0761    1.1851    3.2831 H   0  0  0  0  0  0  0  0  0  0  0  0
    1.3270   -0.9771    0.3715 C   0  0  0  0  0  0  0  0  0  0  0  0
    1.6863   -1.6578   -0.5891 O   0  0  0  0  0  0  0  0  0  0  0  0
    1.9281   -1.0621    1.5665 N   0  0  0  0  0  0  0  0  0  0  0  0
    1.6015   -0.4644    2.3078 H   0  0  0  0  0  0  0  0  0  0  0  0
    3.0321   -1.9747    1.8597 C   0  0  0  0  0  0  0  0  0  0  0  0
    3.8305   -1.8357    1.1281 H   0  0  0  0  0  0  0  0  0  0  0  0
    3.4252   -1.7879    2.8592 H   0  0  0  0  0  0  0  0  0  0  0  0
    2.6820   -3.0072    1.7969 H   0  0  0  0  0  0  0  0  0  0  0  0
  5  6  2  0  0  0  0
  5  7  1  0  0  0  0
  2  3  1  0  0  0  0
  2  4  1  0  0  0  0
  2  5  1  0  0  0  0
  1  2  1  0  0  0  0
 19 20  2  0  0  0  0
 19 21  1  0  0  0  0
 17 18  1  0  0  0  0
 13 14  1  0  0  0  0
 13 15  1  0  0  0  0
 13 16  1  0  0  0  0
 11 12  1  0  0  0  0
 11 13  1  0  0  0  0
 11 17  1  0  0  0  0
  9 10  1  0  0  0  0
  9 11  1  0  0  0  0
  9 19  1  0  0  0  0
  7  8  1  0  0  0  0
  7  9  1  0  0  0  0
 23 24  1  0  0  0  0
 23 25  1  0  0  0  0
 23 26  1  0  0  0  0
 21 22  1  0  0  0  0
 21 23  1  0  0  0  0
M  END
$$$$
default_name
  -OEChem-01062215323D

 26 25  0     1  0  0  0  0  0999 V2000
   -2.8882   -3.2497    1.2537 H   0  0  0  0  0  0  0  0  0  0  0  0
   -2.8032   -2.3157    0.7017 C   0  0  0  0  0  0  0  0  0  0  0  0
   -3.5012   -1.5857    1.1067 H   0  0  0  0  0  0  0  0  0  0  0  0
   -3.0182   -2.4907   -0.3513 H   0  0  0  0  0  0  0  0  0  0  0  0
   -1.3942   -1.7897    0.8407 C   0  0  0  0  0  0  0  0  0  0  0  0
   -0.5672   -2.4077    1.5007 O   0  0  0  0  0  0  0  0  0  0  0  0
   -1.1222   -0.6447    0.2217 N   0  0  0  0  0  0  0  0  0  0  0  0
   -1.8592   -0.1777   -0.2863 H   0  0  0  0  0  0  0  0  0  0  0  0
    0.1838    0.0363    0.2367 C   0  0  1  0  0  0  0  0  0  0  0  0
    0.3185    0.5532   -0.7127 H   0  0  0  0  0  0  0  0  0  0  0  0
    0.2698    1.0869    1.3630 C   0  0  1  0  0  0  0  0  0  0  0  0
    1.2552    1.5505    1.3224 H   0  0  0  0  0  0  0  0  0  0  0  0
   -0.7717    2.1993    1.2583 C   0  0  0  0  0  0  0  0  0  0  0  0
   -1.7727    1.7996    1.4250 H   0  0  0  0  0  0  0  0  0  0  0  0
   -0.5658    2.9696    2.0006 H   0  0  0  0  0  0  0  0  0  0  0  0
   -0.7306    2.6474    0.2651 H   0  0  0  0  0  0  0  0  0  0  0  0
    0.1132    0.4876    2.6254 O   0  0  0  0  0  0  0  0  0  0  0  0
    0.0761    1.1851    3.2831 H   0  0  0  0  0  0  0  0  0  0  0  0
    1.3270   -0.9771    0.3715 C   0  0  0  0  0  0  0  0  0  0  0  0
    1.8699   -1.4554   -0.6244 O   0  0  0  0  0  0  0  0  0  0  0  0
    1.7207   -1.2898    1.6140 N   0  0  0  0  0  0  0  0  0  0  0  0
    1.2503   -0.8500    2.3878 H   0  0  0  0  0  0  0  0  0  0  0  0
    2.7945   -2.2355    1.9143 C   0  0  0  0  0  0  0  0  0  0  0  0
    3.6988   -1.9518    1.3723 H   0  0  0  0  0  0  0  0  0  0  0  0
    3.0056   -2.2447    2.9838 H   0  0  0  0  0  0  0  0  0  0  0  0
    2.5011   -3.2380    1.5958 H   0  0  0  0  0  0  0  0  0  0  0  0
  5  6  2  0  0  0  0
  5  7  1  0  0  0  0
  2  3  1  0  0  0  0
  2  4  1  0  0  0  0
  2  5  1  0  0  0  0
  1  2  1  0  0  0  0
 19 20  2  0  0  0  0
 19 21  1  0  0  0  0
 17 18  1  0  0  0  0
 13 14  1  0  0  0  0
 13 15  1  0  0  0  0
 13 16  1  0  0  0  0
 11 12  1  0  0  0  0
 11 13  1  0  0  0  0
 11 17  1  0  0  0  0
  9 10  1  0  0  0  0
  9 11  1  0  0  0  0
  9 19  1  0  0  0  0
  7  8  1  0  0  0  0
  7  9  1  0  0  0  0
 23 24  1  0  0  0  0
 23 25  1  0  0  0  0
 23 26  1  0  0  0  0
 21 22  1  0  0  0  0
 21 23  1  0  0  0  0
M  END
$$$$
default_name
  -OEChem-01062215323D

 26 25  0     1  0  0  0  0  0999 V2000
   -2.8882   -3.2497    1.2537 H   0  0  0  0  0  0  0  0  0  0  0  0
   -2.8032   -2.3157    0.7017 C   0  0  0  0  0  0  0  0  0  0  0  0
   -3.5012   -1.5857    1.1067 H   0  0  0  0  0  0  0  0  0  0  0  0
   -3.0182   -2.4907   -0.3513 H   0  0  0  0  0  0  0  0  0  0  0  0
   -1.3942   -1.7897    0.8407 C   0  0  0  0  0  0  0  0  0  0  0  0
   -0.5672   -2.4077    1.5007 O   0  0  0  0  0  0  0  0  0  0  0  0
   -1.1222   -0.6447    0.2217 N   0  0  0  0  0  0  0  0  0  0  0  0
   -1.8592   -0.1777   -0.2863 H   0  0  0  0  0  0  0  0  0  0  0  0
    0.1838    0.0363    0.2367 C   0  0  1  0  0  0  0  0  0  0  0  0
    0.3185    0.5532   -0.7127 H   0  0  0  0  0  0  0  0  0  0  0  0
    0.2698    1.0869    1.3630 C   0  0  1  0  0  0  0  0  0  0  0  0
    1.2552    1.5505    1.3224 H   0  0  0  0  0  0  0  0  0  0  0  0
   -0.7717    2.1993    1.2583 C   0  0  0  0  0  0  0  0  0  0  0  0
   -1.7727    1.7996    1.4250 H   0  0  0  0  0  0  0  0  0  0  0  0
   -0.5658    2.9696    2.0006 H   0  0  0  0  0  0  0  0  0  0  0  0
   -0.7306    2.6474    0.2651 H   0  0  0  0  0  0  0  0  0  0  0  0
    0.1132    0.4876    2.6254 O   0  0  0  0  0  0  0  0  0  0  0  0
    0.0761    1.1851    3.2831 H   0  0  0  0  0  0  0  0  0  0  0  0
    1.3270   -0.9771    0.3715 C   0  0  0  0  0  0  0  0  0  0  0  0
    2.0487   -1.2489   -0.5880 O   0  0  0  0  0  0  0  0  0  0  0  0
    1.5173   -1.5237    1.5804 N   0  0  0  0  0  0  0  0  0  0  0  0
    0.9061   -1.2459    2.3306 H   0  0  0  0  0  0  0  0  0  0  0  0
    2.5616   -2.5033    1.8761 C   0  0  0  0  0  0  0  0  0  0  0  0
    3.5325   -2.1141    1.5632 H   0  0  0  0  0  0  0  0  0  0  0  0
    2.5894   -2.7196    2.9442 H   0  0  0  0  0  0  0  0  0  0  0  0
    2.3660   -3.4263    1.3260 H   0  0  0  0  0  0  0  0  0  0  0  0
  5  6  2  0  0  0  0
  5  7  1  0  0  0  0
  2  3  1  0  0  0  0
  2  4  1  0  0  0  0
  2  5  1  0  0  0  0
  1  2  1  0  0  0  0
 19 20  2  0  0  0  0
 19 21  1  0  0  0  0
 17 18  1  0  0  0  0
 13 14  1  0  0  0  0
 13 15  1  0  0  0  0
 13 16  1  0  0  0  0
 11 12  1  0  0  0  0
 11 13  1  0  0  0  0
 11 17  1  0  0  0  0
  9 10  1  0  0  0  0
  9 11  1  0  0  0  0
  9 19  1  0  0  0  0
  7  8  1  0  0  0  0
  7  9  1  0  0  0  0
 23 24  1  0  0  0  0
 23 25  1  0  0  0  0
 23 26  1  0  0  0  0
 21 22  1  0  0  0  0
 21 23  1  0  0  0  0
M  END
$$$$
default_name
  -OEChem-01062215323D

 26 25  0     1  0  0  0  0  0999 V2000
   -2.8882   -3.2497    1.2537 H   0  0  0  0  0  0  0  0  0  0  0  0
   -2.8032   -2.3157    0.7017 C   0  0  0  0  0  0  0  0  0  0  0  0
   -3.5012   -1.5857    1.1067 H   0  0  0  0  0  0  0  0  0  0  0  0
   -3.0182   -2.4907   -0.3513 H   0  0  0  0  0  0  0  0  0  0  0  0
   -1.3942   -1.7897    0.8407 C   0  0  0  0  0  0  0  0  0  0  0  0
   -0.5672   -2.4077    1.5007 O   0  0  0  0  0  0  0  0  0  0  0  0
   -1.1222   -0.6447    0.2217 N   0  0  0  0  0  0  0  0  0  0  0  0
   -1.8592   -0.1777   -0.2863 H   0  0  0  0  0  0  0  0  0  0  0  0
    0.1838    0.0363    0.2367 C   0  0  1  0  0  0  0  0  0  0  0  0
    0.3185    0.5532   -0.7127 H   0  0  0  0  0  0  0  0  0  0  0  0
    0.2698    1.0869    1.3630 C   0  0  1  0  0  0  0  0  0  0  0  0
    1.2552    1.5505    1.3224 H   0  0  0  0  0  0  0  0  0  0  0  0
   -0.7717    2.1993    1.2583 C   0  0  0  0  0  0  0  0  0  0  0  0
   -1.7727    1.7996    1.4250 H   0  0  0  0  0  0  0  0  0  0  0  0
   -0.5658    2.9696    2.0006 H   0  0  0  0  0  0  0  0  0  0  0  0
   -0.7306    2.6474    0.2651 H   0  0  0  0  0  0  0  0  0  0  0  0
    0.1132    0.4876    2.6254 O   0  0  0  0  0  0  0  0  0  0  0  0
    0.0761    1.1851    3.2831 H   0  0  0  0  0  0  0  0  0  0  0  0
    1.3270   -0.9771    0.3715 C   0  0  0  0  0  0  0  0  0  0  0  0
    2.2105   -1.0524   -0.4824 O   0  0  0  0  0  0  0  0  0  0  0  0
    1.3320   -1.7477    1.4682 N   0  0  0  0  0  0  0  0  0  0  0  0
    0.5924   -1.6251    2.1401 H   0  0  0  0  0  0  0  0  0  0  0  0
    2.3493   -2.7600    1.7477 C   0  0  0  0  0  0  0  0  0  0  0  0
    3.3429   -2.3114    1.6879 H   0  0  0  0  0  0  0  0  0  0  0  0
    2.2049   -3.1800    2.7432 H   0  0  0  0  0  0  0  0  0  0  0  0
    2.2859   -3.5591    1.0061 H   0  0  0  0  0  0  0  0  0  0  0  0
  5  6  2  0  0  0  0
  5  7  1  0  0  0  0
  2  3  1  0  0  0  0
  2  4  1  0  0  0  0
  2  5  1  0  0  0  0
  1  2  1  0  0  0  0
 19 20  2  0  0  0  0
 19 21  1  0  0  0  0
 17 18  1  0  0  0  0
 13 14  1  0  0  0  0
 13 15  1  0  0  0  0
 13 16  1  0  0  0  0
 11 12  1  0  0  0  0
 11 13  1  0  0  0  0
 11 17  1  0  0  0  0
  9 10  1  0  0  0  0
  9 11  1  0  0  0  0
  9 19  1  0  0  0  0
  7  8  1  0  0  0  0
  7  9  1  0  0  0  0
 23 24  1  0  0  0  0
 23 25  1  0  0  0  0
 23 26  1  0  0  0  0
 21 22  1  0  0  0  0
 21 23  1  0  0  0  0
M  END
$$$$
default_name
  -OEChem-01062215323D

 26 25  0     1  0  0  0  0  0999 V2000
   -2.8882   -3.2497    1.2537 H   0  0  0  0  0  0  0  0  0  0  0  0
   -2.8032   -2.3157    0.7017 C   0  0  0  0  0  0  0  0  0  0  0  0
   -3.5012   -1.5857    1.1067 H   0  0  0  0  0  0  0  0  0  0  0  0
   -3.0182   -2.4907   -0.3513 H   0  0  0  0  0  0  0  0  0  0  0  0
   -1.3942   -1.7897    0.8407 C   0  0  0  0  0  0  0  0  0  0  0  0
   -0.5672   -2.4077    1.5007 O   0  0  0  0  0  0  0  0  0  0  0  0
   -1.1222   -0.6447    0.2217 N   0  0  0  0  0  0  0  0  0  0  0  0
   -1.8592   -0.1777   -0.2863 H   0  0  0  0  0  0  0  0  0  0  0  0
    0.1838    0.0363    0.2367 C   0  0  1  0  0  0  0  0  0  0  0  0
    0.3185    0.5532   -0.7127 H   0  0  0  0  0  0  0  0  0  0  0  0
    0.2698    1.0869    1.3630 C   0  0  1  0  0  0  0  0  0  0  0  0
    1.2552    1.5505    1.3224 H   0  0  0  0  0  0  0  0  0  0  0  0
   -0.7717    2.1993    1.2583 C   0  0  0  0  0  0  0  0  0  0  0  0
   -1.7727    1.7996    1.4250 H   0  0  0  0  0  0  0  0  0  0  0  0
   -0.5658    2.9696    2.0006 H   0  0  0  0  0  0  0  0  0  0  0  0
   -0.7306    2.6474    0.2651 H   0  0  0  0  0  0  0  0  0  0  0  0
    0.1132    0.4876    2.6254 O   0  0  0  0  0  0  0  0  0  0  0  0
    0.0761    1.1851    3.2831 H   0  0  0  0  0  0  0  0  0  0  0  0
    1.3270   -0.9771    0.3715 C   0  0  0  0  0  0  0  0  0  0  0  0
    2.3442   -0.8792   -0.3149 O   0  0  0  0  0  0  0  0  0  0  0  0
    1.1773   -1.9466    1.2848 N   0  0  0  0  0  0  0  0  0  0  0  0
    0.3306   -1.9618    1.8292 H   0  0  0  0  0  0  0  0  0  0  0  0
    2.1719   -2.9879    1.5378 C   0  0  0  0  0  0  0  0  0  0  0  0
    3.1429   -2.5304    1.7379 H   0  0  0  0  0  0  0  0  0  0  0  0
    1.8783   -3.5948    2.3945 H   0  0  0  0  0  0  0  0  0  0  0  0
    2.2664   -3.6275    0.6577 H   0  0  0  0  0  0  0  0  0  0  0  0
  5  6  2  0  0  0  0
  5  7  1  0  0  0  0
  2  3  1  0  0  0  0
  2  4  1  0  0  0  0
  2  5  1  0  0  0  0
  1  2  1  0  0  0  0
 19 20  2  0  0  0  0
 19 21  1  0  0  0  0
 17 18  1  0  0  0  0
 13 14  1  0  0  0  0
 13 15  1  0  0  0  0
 13 16  1  0  0  0  0
 11 12  1  0  0  0  0
 11 13  1  0  0  0  0
 11 17  1  0  0  0  0
  9 10  1  0  0  0  0
  9 11  1  0  0  0  0
  9 19  1  0  0  0  0
  7  8  1  0  0  0  0
  7  9  1  0  0  0  0
 23 24  1  0  0  0  0
 23 25  1  0  0  0  0
 23 26  1  0  0  0  0
 21 22  1  0  0  0  0
 21 23  1  0  0  0  0
M  END
$$$$
default_name
  -OEChem-01062215323D

 26 25  0     1  0  0  0  0  0999 V2000
   -2.8882   -3.2497    1.2537 H   0  0  0  0  0  0  0  0  0  0  0  0
   -2.8032   -2.3157    0.7017 C   0  0  0  0  0  0  0  0  0  0  0  0
   -3.5012   -1.5857    1.1067 H   0  0  0  0  0  0  0  0  0  0  0  0
   -3.0182   -2.4907   -0.3513 H   0  0  0  0  0  0  0  0  0  0  0  0
   -1.3942   -1.7897    0.8407 C   0  0  0  0  0  0  0  0  0  0  0  0
   -0.5672   -2.4077    1.5007 O   0  0  0  0  0  0  0  0  0  0  0  0
   -1.1222   -0.6447    0.2217 N   0  0  0  0  0  0  0  0  0  0  0  0
   -1.8592   -0.1777   -0.2863 H   0  0  0  0  0  0  0  0  0  0  0  0
    0.1838    0.0363    0.2367 C   0  0  1  0  0  0  0  0  0  0  0  0
    0.3185    0.5532   -0.7127 H   0  0  0  0  0  0  0  0  0  0  0  0
    0.2698    1.0869    1.3630 C   0  0  1  0  0  0  0  0  0  0  0  0
    1.2552    1.5505    1.3224 H   0  0  0  0  0  0  0  0  0  0  0  0
   -0.7717    2.1993    1.2583 C   0  0  0  0  0  0  0  0  0  0  0  0
   -1.7727    1.7996    1.4250 H   0  0  0  0  0  0  0  0  0  0  0  0
   -0.5658    2.9696    2.0006 H   0  0  0  0  0  0  0  0  0  0  0  0
   -0.7306    2.6474    0.2651 H   0  0  0  0  0  0  0  0  0  0  0  0
    0.1132    0.4876    2.6254 O   0  0  0  0  0  0  0  0  0  0  0  0
    0.0761    1.1851    3.2831 H   0  0  0  0  0  0  0  0  0  0  0  0
    1.3270   -0.9771    0.3715 C   0  0  0  0  0  0  0  0  0  0  0  0
    2.4408   -0.7413   -0.0968 O   0  0  0  0  0  0  0  0  0  0  0  0
    1.0637   -2.1069    1.0428 N   0  0  0  0  0  0  0  0  0  0  0  0
    0.1386   -2.2329    1.4193 H   0  0  0  0  0  0  0  0  0  0  0  0
    2.0418   -3.1716    1.2608 C   0  0  0  0  0  0  0  0  0  0  0  0
    2.9461   -2.7561    1.7097 H   0  0  0  0  0  0  0  0  0  0  0  0
    1.6319   -3.9356    1.9217 H   0  0  0  0  0  0  0  0  0  0  0  0
    2.3086   -3.6269    0.3047 H   0  0  0  0  0  0  0  0  0  0  0  0
  5  6  2  0  0  0  0
  5  7  1  0  0  0  0
  2  3  1  0  0  0  0
  2  4  1  0  0  0  0
  2  5  1  0  0  0  0
  1  2  1  0  0  0  0
 19 20  2  0  0  0  0
 19 21  1  0  0  0  0
 17 18  1  0  0  0  0
 13 14  1  0  0  0  0
 13 15  1  0  0  0  0
 13 16  1  0  0  0  0
 11 12  1  0  0  0  0
 11 13  1  0  0  0  0
 11 17  1  0  0  0  0
  9 10  1  0  0  0  0
  9 11  1  0  0  0  0
  9 19  1  0  0  0  0
  7  8  1  0  0  0  0
  7  9  1  0  0  0  0
 23 24  1  0  0  0  0
 23 25  1  0  0  0  0
 23 26  1  0  0  0  0
 21 22  1  0  0  0  0
 21 23  1  0  0  0  0
M  END
$$$$
default_name
  -OEChem-01062215323D

 26 25  0     1  0  0  0  0  0999 V2000
   -2.8882   -3.2497    1.2537 H   0  0  0  0  0  0  0  0  0  0  0  0
   -2.8032   -2.3157    0.7017 C   0  0  0  0  0  0  0  0  0  0  0  0
   -3.5012   -1.5857    1.1067 H   0  0  0  0  0  0  0  0  0  0  0  0
   -3.0182   -2.4907   -0.3513 H   0  0  0  0  0  0  0  0  0  0  0  0
   -1.3942   -1.7897    0.8407 C   0  0  0  0  0  0  0  0  0  0  0  0
   -0.5672   -2.4077    1.5007 O   0  0  0  0  0  0  0  0  0  0  0  0
   -1.1222   -0.6447    0.2217 N   0  0  0  0  0  0  0  0  0  0  0  0
   -1.8592   -0.1777   -0.2863 H   0  0  0  0  0  0  0  0  0  0  0  0
    0.1838    0.0363    0.2367 C   0  0  1  0  0  0  0  0  0  0  0  0
    0.3185    0.5532   -0.7127 H   0  0  0  0  0  0  0  0  0  0  0  0
    0.2698    1.0869    1.3630 C   0  0  1  0  0  0  0  0  0  0  0  0
    1.2552    1.5505    1.3224 H   0  0  0  0  0  0  0  0  0  0  0  0
   -0.7717    2.1993    1.2583 C   0  0  0  0  0  0  0  0  0  0  0  0
   -1.7727    1.7996    1.4250 H   0  0  0  0  0  0  0  0  0  0  0  0
   -0.5658    2.9696    2.0006 H   0  0  0  0  0  0  0  0  0  0  0  0
   -0.7306    2.6474    0.2651 H   0  0  0  0  0  0  0  0  0  0  0  0
    0.1132    0.4876    2.6254 O   0  0  0  0  0  0  0  0  0  0  0  0
    0.0761    1.1851    3.2831 H   0  0  0  0  0  0  0  0  0  0  0  0
    1.3270   -0.9771    0.3715 C   0  0  0  0  0  0  0  0  0  0  0  0
    2.4936   -0.6479    0.1570 O   0  0  0  0  0  0  0  0  0  0  0  0
    0.9990   -2.2176    0.7588 N   0  0  0  0  0  0  0  0  0  0  0  0
    0.0293   -2.4201    0.9382 H   0  0  0  0  0  0  0  0  0  0  0  0
    1.9675   -3.2985    0.9355 C   0  0  0  0  0  0  0  0  0  0  0  0
    2.7660   -2.9731    1.6052 H   0  0  0  0  0  0  0  0  0  0  0  0
    1.4826   -4.1791    1.3572 H   0  0  0  0  0  0  0  0  0  0  0  0
    2.4097   -3.5571   -0.0290 H   0  0  0  0  0  0  0  0  0  0  0  0
  5  6  2  0  0  0  0
  5  7  1  0  0  0  0
  2  3  1  0  0  0  0
  2  4  1  0  0  0  0
  2  5  1  0  0  0  0
  1  2  1  0  0  0  0
 19 20  2  0  0  0  0
 19 21  1  0  0  0  0
 17 18  1  0  0  0  0
 13 14  1  0  0  0  0
 13 15  1  0  0  0  0
 13 16  1  0  0  0  0
 11 12  1  0  0  0  0
 11 13  1  0  0  0  0
 11 17  1  0  0  0  0
  9 10  1  0  0  0  0
  9 11  1  0  0  0  0
  9 19  1  0  0  0  0
  7  8  1  0  0  0  0
  7  9  1  0  0  0  0
 23 24  1  0  0  0  0
 23 25  1  0  0  0  0
 23 26  1  0  0  0  0
 21 22  1  0  0  0  0
 21 23  1  0  0  0  0
M  END
$$$$
default_name
  -OEChem-01062215323D

 26 25  0     1  0  0  0  0  0999 V2000
   -2.8882   -3.2497    1.2537 H   0  0  0  0  0  0  0  0  0  0  0  0
   -2.8032   -2.3157    0.7017 C   0  0  0  0  0  0  0  0  0  0  0  0
   -3.5012   -1.5857    1.1067 H   0  0  0  0  0  0  0  0  0  0  0  0
   -3.0182   -2.4907   -0.3513 H   0  0  0  0  0  0  0  0  0  0  0  0
   -1.3942   -1.7897    0.8407 C   0  0  0  0  0  0  0  0  0  0  0  0
   -0.5672   -2.4077    1.5007 O   0  0  0  0  0  0  0  0  0  0  0  0
   -1.1222   -0.6447    0.2217 N   0  0  0  0  0  0  0  0  0  0  0  0
   -1.8592   -0.1777   -0.2863 H   0  0  0  0  0  0  0  0  0  0  0  0
    0.1838    0.0363    0.2367 C   0  0  1  0  0  0  0  0  0  0  0  0
    0.3185    0.5532   -0.7127 H   0  0  0  0  0  0  0  0  0  0  0  0
    0.2698    1.0869    1.3630 C   0  0  1  0  0  0  0  0  0  0  0  0
    1.2552    1.5505    1.3224 H   0  0  0  0  0  0  0  0  0  0  0  0
   -0.7717    2.1993    1.2583 C   0  0  0  0  0  0  0  0  0  0  0  0
   -1.7727    1.7996    1.4250 H   0  0  0  0  0  0  0  0  0  0  0  0
   -0.5658    2.9696    2.0006 H   0  0  0  0  0  0  0  0  0  0  0  0
   -0.7306    2.6474    0.2651 H   0  0  0  0  0  0  0  0  0  0  0  0
    0.1132    0.4876    2.6254 O   0  0  0  0  0  0  0  0  0  0  0  0
    0.0761    1.1851    3.2831 H   0  0  0  0  0  0  0  0  0  0  0  0
    1.3270   -0.9771    0.3715 C   0  0  0  0  0  0  0  0  0  0  0  0
    2.4991   -0.6055    0.4293 O   0  0  0  0  0  0  0  0  0  0  0  0
    0.9876   -2.2713    0.4520 N   0  0  0  0  0  0  0  0  0  0  0  0
    0.0103   -2.5106    0.4186 H   0  0  0  0  0  0  0  0  0  0  0  0
    1.9544   -3.3601    0.5841 C   0  0  0  0  0  0  0  0  0  0  0  0
    2.6149   -3.1667    1.4317 H   0  0  0  0  0  0  0  0  0  0  0  0
    1.4404   -4.3088    0.7394 H   0  0  0  0  0  0  0  0  0  0  0  0
    2.5629   -3.4231   -0.3206 H   0  0  0  0  0  0  0  0  0  0  0  0
  5  6  2  0  0  0  0
  5  7  1  0  0  0  0
  2  3  1  0  0  0  0
  2  4  1  0  0  0  0
  2  5  1  0  0  0  0
  1  2  1  0  0  0  0
 19 20  2  0  0  0  0
 19 21  1  0  0  0  0
 17 18  1  0  0  0  0
 13 14  1  0  0  0  0
 13 15  1  0  0  0  0
 13 16  1  0  0  0  0
 11 12  1  0  0  0  0
 11 13  1  0  0  0  0
 11 17  1  0  0  0  0
  9 10  1  0  0  0  0
  9 11  1  0  0  0  0
  9 19  1  0  0  0  0
  7  8  1  0  0  0  0
  7  9  1  0  0  0  0
 23 24  1  0  0  0  0
 23 25  1  0  0  0  0
 23 26  1  0  0  0  0
 21 22  1  0  0  0  0
 21 23  1  0  0  0  0
M  END
$$$$
default_name
  -OEChem-01062215323D

 26 25  0     1  0  0  0  0  0999 V2000
   -2.8882   -3.2497    1.2537 H   0  0  0  0  0  0  0  0  0  0  0  0
   -2.8032   -2.3157    0.7017 C   0  0  0  0  0  0  0  0  0  0  0  0
   -3.5012   -1.5857    1.1067 H   0  0  0  0  0  0  0  0  0  0  0  0
   -3.0182   -2.4907   -0.3513 H   0  0  0  0  0  0  0  0  0  0  0  0
   -1.3942   -1.7897    0.8407 C   0  0  0  0  0  0  0  0  0  0  0  0
   -0.5672   -2.4077    1.5007 O   0  0  0  0  0  0  0  0  0  0  0  0
   -1.1222   -0.6447    0.2217 N   0  0  0  0  0  0  0  0  0  0  0  0
   -1.8592   -0.1777   -0.2863 H   0  0  0  0  0  0  0  0  0  0  0  0
    0.1838    0.0363    0.2367 C   0  0  1  0  0  0  0  0  0  0  0  0
    0.3185    0.5532   -0.7127 H   0  0  0  0  0  0  0  0  0  0  0  0
    0.2698    1.0869    1.3630 C   0  0  1  0  0  0  0  0  0  0  0  0
    1.2552    1.5505    1.3224 H   0  0  0  0  0  0  0  0  0  0  0  0
   -0.7717    2.1993    1.2583 C   0  0  0  0  0  0  0  0  0  0  0  0
   -1.7727    1.7996    1.4250 H   0  0  0  0  0  0  0  0  0  0  0  0
   -0.5658    2.9696    2.0006 H   0  0  0  0  0  0  0  0  0  0  0  0
   -0.7306    2.6474    0.2651 H   0  0  0  0  0  0  0  0  0  0  0  0
    0.1132    0.4876    2.6254 O   0  0  0  0  0  0  0  0  0  0  0  0
    0.0761    1.1851    3.2831 H   0  0  0  0  0  0  0  0  0  0  0  0
    1.3270   -0.9771    0.3715 C   0  0  0  0  0  0  0  0  0  0  0  0
    2.4569   -0.6169    0.7013 O   0  0  0  0  0  0  0  0  0  0  0  0
    1.0303   -2.2641    0.1433 N   0  0  0  0  0  0  0  0  0  0  0  0
    0.0829   -2.4982   -0.1039 H   0  0  0  0  0  0  0  0  0  0  0  0
    2.0032   -3.3521    0.2306 C   0  0  0  0  0  0  0  0  0  0  0  0
    2.5030   -3.3236    1.2009 H   0  0  0  0  0  0  0  0  0  0  0  0
    1.5082   -4.3159    0.1104 H   0  0  0  0  0  0  0  0  0  0  0  0
    2.7576   -3.2339   -0.5501 H   0  0  0  0  0  0  0  0  0  0  0  0
  5  6  2  0  0  0  0
  5  7  1  0  0  0  0
  2  3  1  0  0  0  0
  2  4  1  0  0  0  0
  2  5  1  0  0  0  0
  1  2  1  0  0  0  0
 19 20  2  0  0  0  0
 19 21  1  0  0  0  0
 17 18  1  0  0  0  0
 13 14  1  0  0  0  0
 13 15  1  0  0  0  0
 13 16  1  0  0  0  0
 11 12  1  0  0  0  0
 11 13  1  0  0  0  0
 11 17  1  0  0  0  0
  9 10  1  0  0  0  0
  9 11  1  0  0  0  0
  9 19  1  0  0  0  0
  7  8  1  0  0  0  0
  7  9  1  0  0  0  0
 23 24  1  0  0  0  0
 23 25  1  0  0  0  0
 23 26  1  0  0  0  0
 21 22  1  0  0  0  0
 21 23  1  0  0  0  0
M  END
$$$$
default_name
  -OEChem-01062215323D

 26 25  0     1  0  0  0  0  0999 V2000
   -2.8882   -3.2497    1.2537 H   0  0  0  0  0  0  0  0  0  0  0  0
   -2.8032   -2.3157    0.7017 C   0  0  0  0  0  0  0  0  0  0  0  0
   -3.5012   -1.5857    1.1067 H   0  0  0  0  0  0  0  0  0  0  0  0
   -3.0182   -2.4907   -0.3513 H   0  0  0  0  0  0  0  0  0  0  0  0
   -1.3942   -1.7897    0.8407 C   0  0  0  0  0  0  0  0  0  0  0  0
   -0.5672   -2.4077    1.5007 O   0  0  0  0  0  0  0  0  0  0  0  0
   -1.1222   -0.6447    0.2217 N   0  0  0  0  0  0  0  0  0  0  0  0
   -1.8592   -0.1777   -0.2863 H   0  0  0  0  0  0  0  0  0  0  0  0
    0.1838    0.0363    0.2367 C   0  0  1  0  0  0  0  0  0  0  0  0
    0.3185    0.5532   -0.7127 H   0  0  0  0  0  0  0  0  0  0  0  0
    0.2698    1.0869    1.3630 C   0  0  1  0  0  0  0  0  0  0  0  0
    1.2552    1.5505    1.3224 H   0  0  0  0  0  0  0  0  0  0  0  0
   -0.7717    2.1993    1.2583 C   0  0  0  0  0  0  0  0  0  0  0  0
   -1.7727    1.7996    1.4250 H   0  0  0  0  0  0  0  0  0  0  0  0
   -0.5658    2.9696    2.0006 H   0  0  0  0  0  0  0  0  0  0  0  0
   -0.7306    2.6474    0.2651 H   0  0  0  0  0  0  0  0  0  0  0  0
    0.1132    0.4876    2.6254 O   0  0  0  0  0  0  0  0  0  0  0  0
    0.0761    1.1851    3.2831 H   0  0  0  0  0  0  0  0  0  0  0  0
    1.3270   -0.9771    0.3715 C   0  0  0  0  0  0  0  0  0  0  0  0
    2.3699   -0.6814    0.9547 O   0  0  0  0  0  0  0  0  0  0  0  0
    1.1242   -2.1967   -0.1461 N   0  0  0  0  0  0  0  0  0  0  0  0
    0.2421   -2.3838   -0.5939 H   0  0  0  0  0  0  0  0  0  0  0  0
    2.1106   -3.2750   -0.1010 C   0  0  0  0  0  0  0  0  0  0  0  0
    2.4379   -3.4332    0.9285 H   0  0  0  0  0  0  0  0  0  0  0  0
    1.6815   -4.1999   -0.4870 H   0  0  0  0  0  0  0  0  0  0  0  0
    2.9807   -3.0025   -0.7021 H   0  0  0  0  0  0  0  0  0  0  0  0
  5  6  2  0  0  0  0
  5  7  1  0  0  0  0
  2  3  1  0  0  0  0
  2  4  1  0  0  0  0
  2  5  1  0  0  0  0
  1  2  1  0  0  0  0
 19 20  2  0  0  0  0
 19 21  1  0  0  0  0
 17 18  1  0  0  0  0
 13 14  1  0  0  0  0
 13 15  1  0  0  0  0
 13 16  1  0  0  0  0
 11 12  1  0  0  0  0
 11 13  1  0  0  0  0
 11 17  1  0  0  0  0
  9 10  1  0  0  0  0
  9 11  1  0  0  0  0
  9 19  1  0  0  0  0
  7  8  1  0  0  0  0
  7  9  1  0  0  0  0
 23 24  1  0  0  0  0
 23 25  1  0  0  0  0
 23 26  1  0  0  0  0
 21 22  1  0  0  0  0
 21 23  1  0  0  0  0
M  END
$$$$
default_name
  -OEChem-01062215323D

 26 25  0     1  0  0  0  0  0999 V2000
   -2.8882   -3.2497    1.2537 H   0  0  0  0  0  0  0  0  0  0  0  0
   -2.8032   -2.3157    0.7017 C   0  0  0  0  0  0  0  0  0  0  0  0
   -3.5012   -1.5857    1.1067 H   0  0  0  0  0  0  0  0  0  0  0  0
   -3.0182   -2.4907   -0.3513 H   0  0  0  0  0  0  0  0  0  0  0  0
   -1.3942   -1.7897    0.8407 C   0  0  0  0  0  0  0  0  0  0  0  0
   -0.5672   -2.4077    1.5007 O   0  0  0  0  0  0  0  0  0  0  0  0
   -1.1222   -0.6447    0.2217 N   0  0  0  0  0  0  0  0  0  0  0  0
   -1.8592   -0.1777   -0.2863 H   0  0  0  0  0  0  0  0  0  0  0  0
    0.1838    0.0363    0.2367 C   0  0  1  0  0  0  0  0  0  0  0  0
    0.3185    0.5532   -0.7127 H   0  0  0  0  0  0  0  0  0  0  0  0
    0.2698    1.0869    1.3630 C   0  0  1  0  0  0  0  0  0  0  0  0
    1.2552    1.5505    1.3224 H   0  0  0  0  0  0  0  0  0  0  0  0
   -0.7717    2.1993    1.2583 C   0  0  0  0  0  0  0  0  0  0  0  0
   -1.7727    1.7996    1.4250 H   0  0  0  0  0  0  0  0  0  0  0  0
   -0.5658    2.9696    2.0006 H   0  0  0  0  0  0  0  0  0  0  0  0
   -0.7306    2.6474    0.2651 H   0  0  0  0  0  0  0  0  0  0  0  0
    0.1132    0.4876    2.6254 O   0  0  0  0  0  0  0  0  0  0  0  0
    0.0761    1.1851    3.2831 H   0  0  0  0  0  0  0  0  0  0  0  0
    1.3270   -0.9771    0.3715 C   0  0  0  0  0  0  0  0  0  0  0  0
    2.2440   -0.7946    1.1721 O   0  0  0  0  0  0  0  0  0  0  0  0
    1.2628   -2.0736   -0.3967 N   0  0  0  0  0  0  0  0  0  0  0  0
    0.4771   -2.1751   -1.0178 H   0  0  0  0  0  0  0  0  0  0  0  0
    2.2693   -3.1341   -0.3881 C   0  0  0  0  0  0  0  0  0  0  0  0
    2.4241   -3.4880    0.6331 H   0  0  0  0  0  0  0  0  0  0  0  0
    1.9484   -3.9686   -1.0119 H   0  0  0  0  0  0  0  0  0  0  0  0
    3.2169   -2.7445   -0.7660 H   0  0  0  0  0  0  0  0  0  0  0  0
  5  6  2  0  0  0  0
  5  7  1  0  0  0  0
  2  3  1  0  0  0  0
  2  4  1  0  0  0  0
  2  5  1  0  0  0  0
  1  2  1  0  0  0  0
 19 20  2  0  0  0  0
 19 21  1  0  0  0  0
 17 18  1  0  0  0  0
 13 14  1  0  0  0  0
 13 15  1  0  0  0  0
 13 16  1  0  0  0  0
 11 12  1  0  0  0  0
 11 13  1  0  0  0  0
 11 17  1  0  0  0  0
  9 10  1  0  0  0  0
  9 11  1  0  0  0  0
  9 19  1  0  0  0  0
  7  8  1  0  0  0  0
  7  9  1  0  0  0  0
 23 24  1  0  0  0  0
 23 25  1  0  0  0  0
 23 26  1  0  0  0  0
 21 22  1  0  0  0  0
 21 23  1  0  0  0  0
M  END
$$$$
default_name
  -OEChem-01062215323D

 26 25  0     1  0  0  0  0  0999 V2000
   -2.8882   -3.2497    1.2537 H   0  0  0  0  0  0  0  0  0  0  0  0
   -2.8032   -2.3157    0.7017 C   0  0  0  0  0  0  0  0  0  0  0  0
   -3.5012   -1.5857    1.1067 H   0  0  0  0  0  0  0  0  0  0  0  0
   -3.0182   -2.4907   -0.3513 H   0  0  0  0  0  0  0  0  0  0  0  0
   -1.3942   -1.7897    0.8407 C   0  0  0  0  0  0  0  0  0  0  0  0
   -0.5672   -2.4077    1.5007 O   0  0  0  0  0  0  0  0  0  0  0  0
   -1.1222   -0.6447    0.2217 N   0  0  0  0  0  0  0  0  0  0  0  0
   -1.8592   -0.1777   -0.2863 H   0  0  0  0  0  0  0  0  0  0  0  0
    0.1838    0.0363    0.2367 C   0  0  1  0  0  0  0  0  0  0  0  0
    0.3185    0.5532   -0.7127 H   0  0  0  0  0  0  0  0  0  0  0  0
    0.2698    1.0869    1.3630 C   0  0  1  0  0  0  0  0  0  0  0  0
    1.2552    1.5505    1.3224 H   0  0  0  0  0  0  0  0  0  0  0  0
   -0.7717    2.1993    1.2583 C   0  0  0  0  0  0  0  0  0  0  0  0
   -1.7727    1.7996    1.4250 H   0  0  0  0  0  0  0  0  0  0  0  0
   -0.5658    2.9696    2.0006 H   0  0  0  0  0  0  0  0  0  0  0  0
   -0.7306    2.6474    0.2651 H   0  0  0  0  0  0  0  0  0  0  0  0
    0.1132    0.4876    2.6254 O   0  0  0  0  0  0  0  0  0  0  0  0
    0.0761    1.1851    3.2831 H   0  0  0  0  0  0  0  0  0  0  0  0
    1.3270   -0.9771    0.3715 C   0  0  0  0  0  0  0  0  0  0  0  0
    2.0878   -0.9487    1.3388 O   0  0  0  0  0  0  0  0  0  0  0  0
    1.4368   -1.9032   -0.5912 N   0  0  0  0  0  0  0  0  0  0  0  0
    0.7718   -1.8863   -1.3468 H   0  0  0  0  0  0  0  0  0  0  0  0
    2.4685   -2.9391   -0.6111 C   0  0  0  0  0  0  0  0  0  0  0  0
    2.4626   -3.4843    0.3349 H   0  0  0  0  0  0  0  0  0  0  0  0
    2.2907   -3.6378   -1.4287 H   0  0  0  0  0  0  0  0  0  0  0  0
    3.4501   -2.4776   -0.7376 H   0  0  0  0  0  0  0  0  0  0  0  0
  5  6  2  0  0  0  0
  5  7  1  0  0  0  0
  2  3  1  0  0  0  0
  2  4  1  0  0  0  0
  2  5  1  0  0  0  0
  1  2  1  0  0  0  0
 19 20  2  0  0  0  0
 19 21  1  0  0  0  0
 17 18  1  0  0  0  0
 13 14  1  0  0  0  0
 13 15  1  0  0  0  0
 13 16  1  0  0  0  0
 11 12  1  0  0  0  0
 11 13  1  0  0  0  0
 11 17  1  0  0  0  0
  9 10  1  0  0  0  0
  9 11  1  0  0  0  0
  9 19  1  0  0  0  0
  7  8  1  0  0  0  0
  7  9  1  0  0  0  0
 23 24  1  0  0  0  0
 23 25  1  0  0  0  0
 23 26  1  0  0  0  0
 21 22  1  0  0  0  0
 21 23  1  0  0  0  0
M  END
$$$$
default_name
  -OEChem-01062215323D

 26 25  0     1  0  0  0  0  0999 V2000
   -2.8882   -3.2497    1.2537 H   0  0  0  0  0  0  0  0  0  0  0  0
   -2.8032   -2.3157    0.7017 C   0  0  0  0  0  0  0  0  0  0  0  0
   -3.5012   -1.5857    1.1067 H   0  0  0  0  0  0  0  0  0  0  0  0
   -3.0182   -2.4907   -0.3513 H   0  0  0  0  0  0  0  0  0  0  0  0
   -1.3942   -1.7897    0.8407 C   0  0  0  0  0  0  0  0  0  0  0  0
   -0.5672   -2.4077    1.5007 O   0  0  0  0  0  0  0  0  0  0  0  0
   -1.1222   -0.6447    0.2217 N   0  0  0  0  0  0  0  0  0  0  0  0
   -1.8592   -0.1777   -0.2863 H   0  0  0  0  0  0  0  0  0  0  0  0
    0.1838    0.0363    0.2367 C   0  0  1  0  0  0  0  0  0  0  0  0
    0.3185    0.5532   -0.7127 H   0  0  0  0  0  0  0  0  0  0  0  0
    0.2698    1.0869    1.3630 C   0  0  1  0  0  0  0  0  0  0  0  0
    1.2552    1.5505    1.3224 H   0  0  0  0  0  0  0  0  0  0  0  0
   -0.7717    2.1993    1.2583 C   0  0  0  0  0  0  0  0  0  0  0  0
   -1.7727    1.7996    1.4250 H   0  0  0  0  0  0  0  0  0  0  0  0
   -0.5658    2.9696    2.0006 H   0  0  0  0  0  0  0  0  0  0  0  0
   -0.7306    2.6474    0.2651 H   0  0  0  0  0  0  0  0  0  0  0  0
    0.1132    0.4876    2.6254 O   0  0  0  0  0  0  0  0  0  0  0  0
    0.0761    1.1851    3.2831 H   0  0  0  0  0  0  0  0  0  0  0  0
    1.3270   -0.9771    0.3715 C   0  0  0  0  0  0  0  0  0  0  0  0
    1.9118   -1.1332    1.4433 O   0  0  0  0  0  0  0  0  0  0  0  0
    1.6342   -1.6972   -0.7165 N   0  0  0  0  0  0  0  0  0  0  0  0
    1.1062   -1.5373   -1.5586 H   0  0  0  0  0  0  0  0  0  0  0  0
    2.6946   -2.7031   -0.7547 C   0  0  0  0  0  0  0  0  0  0  0  0
    2.5507   -3.4223    0.0541 H   0  0  0  0  0  0  0  0  0  0  0  0
    2.6852   -3.2301   -1.7090 H   0  0  0  0  0  0  0  0  0  0  0  0
    3.6645   -2.2200   -0.6188 H   0  0  0  0  0  0  0  0  0  0  0  0
  5  6  2  0  0  0  0
  5  7  1  0  0  0  0
  2  3  1  0  0  0  0
  2  4  1  0  0  0  0
  2  5  1  0  0  0  0
  1  2  1  0  0  0  0
 19 20  2  0  0  0  0
 19 21  1  0  0  0  0
 17 18  1  0  0  0  0
 13 14  1  0  0  0  0
 13 15  1  0  0  0  0
 13 16  1  0  0  0  0
 11 12  1  0  0  0  0
 11 13  1  0  0  0  0
 11 17  1  0  0  0  0
  9 10  1  0  0  0  0
  9 11  1  0  0  0  0
  9 19  1  0  0  0  0
  7  8  1  0  0  0  0
  7  9  1  0  0  0  0
 23 24  1  0  0  0  0
 23 25  1  0  0  0  0
 23 26  1  0  0  0  0
 21 22  1  0  0  0  0
 21 23  1  0  0  0  0
M  END
$$$$
default_name
  -OEChem-01062215323D

 26 25  0     1  0  0  0  0  0999 V2000
   -2.8882   -3.2497    1.2537 H   0  0  0  0  0  0  0  0  0  0  0  0
   -2.8032   -2.3157    0.7017 C   0  0  0  0  0  0  0  0  0  0  0  0
   -3.5012   -1.5857    1.1067 H   0  0  0  0  0  0  0  0  0  0  0  0
   -3.0182   -2.4907   -0.3513 H   0  0  0  0  0  0  0  0  0  0  0  0
   -1.3942   -1.7897    0.8407 C   0  0  0  0  0  0  0  0  0  0  0  0
   -0.5672   -2.4077    1.5007 O   0  0  0  0  0  0  0  0  0  0  0  0
   -1.1222   -0.6447    0.2217 N   0  0  0  0  0  0  0  0  0  0  0  0
   -1.8592   -0.1777   -0.2863 H   0  0  0  0  0  0  0  0  0  0  0  0
    0.1838    0.0363    0.2367 C   0  0  1  0  0  0  0  0  0  0  0  0
    0.3185    0.5532   -0.7127 H   0  0  0  0  0  0  0  0  0  0  0  0
    0.2698    1.0869    1.3630 C   0  0  1  0  0  0  0  0  0  0  0  0
    1.2552    1.5505    1.3224 H   0  0  0  0  0  0  0  0  0  0  0  0
   -0.7717    2.1993    1.2583 C   0  0  0  0  0  0  0  0  0  0  0  0
   -1.7727    1.7996    1.4250 H   0  0  0  0  0  0  0  0  0  0  0  0
   -0.5658    2.9696    2.0006 H   0  0  0  0  0  0  0  0  0  0  0  0
   -0.7306    2.6474    0.2651 H   0  0  0  0  0  0  0  0  0  0  0  0
    0.1132    0.4876    2.6254 O   0  0  0  0  0  0  0  0  0  0  0  0
    0.0761    1.1851    3.2831 H   0  0  0  0  0  0  0  0  0  0  0  0
    1.3270   -0.9771    0.3715 C   0  0  0  0  0  0  0  0  0  0  0  0
    1.7282   -1.3357    1.4786 O   0  0  0  0  0  0  0  0  0  0  0  0
    1.8417   -1.4695   -0.7640 N   0  0  0  0  0  0  0  0  0  0  0  0
    1.4574   -1.1517   -1.6386 H   0  0  0  0  0  0  0  0  0  0  0  0
    2.9322   -2.4423   -0.8093 C   0  0  0  0  0  0  0  0  0  0  0  0
    2.6824   -3.3062   -0.1901 H   0  0  0  0  0  0  0  0  0  0  0  0
    3.1048   -2.7733   -1.8336 H   0  0  0  0  0  0  0  0  0  0  0  0
    3.8454   -1.9892   -0.4177 H   0  0  0  0  0  0  0  0  0  0  0  0
  5  6  2  0  0  0  0
  5  7  1  0  0  0  0
  2  3  1  0  0  0  0
  2  4  1  0  0  0  0
  2  5  1  0  0  0  0
  1  2  1  0  0  0  0
 19 20  2  0  0  0  0
 19 21  1  0  0  0  0
 17 18  1  0  0  0  0
 13 14  1  0  0  0  0
 13 15  1  0  0  0  0
 13 16  1  0  0  0  0
 11 12  1  0  0  0  0
 11 13  1  0  0  0  0
 11 17  1  0  0  0  0
  9 10  1  0  0  0  0
  9 11  1  0  0  0  0
  9 19  1  0  0  0  0
  7  8  1  0  0  0  0
  7  9  1  0  0  0  0
 23 24  1  0  0  0  0
 23 25  1  0  0  0  0
 23 26  1  0  0  0  0
 21 22  1  0  0  0  0
 21 23  1  0  0  0  0
M  END
$$$$
default_name
  -OEChem-01062215323D

 26 25  0     1  0  0  0  0  0999 V2000
   -2.8882   -3.2497    1.2537 H   0  0  0  0  0  0  0  0  0  0  0  0
   -2.8032   -2.3157    0.7017 C   0  0  0  0  0  0  0  0  0  0  0  0
   -3.5012   -1.5857    1.1067 H   0  0  0  0  0  0  0  0  0  0  0  0
   -3.0182   -2.4907   -0.3513 H   0  0  0  0  0  0  0  0  0  0  0  0
   -1.3942   -1.7897    0.8407 C   0  0  0  0  0  0  0  0  0  0  0  0
   -0.5672   -2.4077    1.5007 O   0  0  0  0  0  0  0  0  0  0  0  0
   -1.1222   -0.6447    0.2217 N   0  0  0  0  0  0  0  0  0  0  0  0
   -1.8592   -0.1777   -0.2863 H   0  0  0  0  0  0  0  0  0  0  0  0
    0.1838    0.0363    0.2367 C   0  0  1  0  0  0  0  0  0  0  0  0
    0.3185    0.5532   -0.7127 H   0  0  0  0  0  0  0  0  0  0  0  0
    0.2698    1.0869    1.3630 C   0  0  1  0  0  0  0  0  0  0  0  0
    1.2552    1.5505    1.3224 H   0  0  0  0  0  0  0  0  0  0  0  0
   -0.7717    2.1993    1.2583 C   0  0  0  0  0  0  0  0  0  0  0  0
   -1.7727    1.7996    1.4250 H   0  0  0  0  0  0  0  0  0  0  0  0
   -0.5658    2.9696    2.0006 H   0  0  0  0  0  0  0  0  0  0  0  0
   -0.7306    2.6474    0.2651 H   0  0  0  0  0  0  0  0  0  0  0  0
    0.1132    0.4876    2.6254 O   0  0  0  0  0  0  0  0  0  0  0  0
    0.0761    1.1851    3.2831 H   0  0  0  0  0  0  0  0  0  0  0  0
    1.3270   -0.9771    0.3715 C   0  0  0  0  0  0  0  0  0  0  0  0
    1.5495   -1.5422    1.4422 O   0  0  0  0  0  0  0  0  0  0  0  0
    2.0450   -1.2356   -0.7305 N   0  0  0  0  0  0  0  0  0  0  0  0
    1.8016   -0.7558   -1.5813 H   0  0  0  0  0  0  0  0  0  0  0  0
    3.1651   -2.1745   -0.7711 C   0  0  0  0  0  0  0  0  0  0  0  0
    2.8487   -3.1440   -0.3811 H   0  0  0  0  0  0  0  0  0  0  0  0
    3.5210   -2.2985   -1.7940 H   0  0  0  0  0  0  0  0  0  0  0  0
    3.9804   -1.8010   -0.1480 H   0  0  0  0  0  0  0  0  0  0  0  0
  5  6  2  0  0  0  0
  5  7  1  0  0  0  0
  2  3  1  0  0  0  0
  2  4  1  0  0  0  0
  2  5  1  0  0  0  0
  1  2  1  0  0  0  0
 19 20  2  0  0  0  0
 19 21  1  0  0  0  0
 17 18  1  0  0  0  0
 13 14  1  0  0  0  0
 13 15  1  0  0  0  0
 13 16  1  0  0  0  0
 11 12  1  0  0  0  0
 11 13  1  0  0  0  0
 11 17  1  0  0  0  0
  9 10  1  0  0  0  0
  9 11  1  0  0  0  0
  9 19  1  0  0  0  0
  7  8  1  0  0  0  0
  7  9  1  0  0  0  0
 23 24  1  0  0  0  0
 23 25  1  0  0  0  0
 23 26  1  0  0  0  0
 21 22  1  0  0  0  0
 21 23  1  0  0  0  0
M  END
$$$$
default_name
  -OEChem-01062215323D

 26 25  0     1  0  0  0  0  0999 V2000
   -2.8882   -3.2497    1.2537 H   0  0  0  0  0  0  0  0  0  0  0  0
   -2.8032   -2.3157    0.7017 C   0  0  0  0  0  0  0  0  0  0  0  0
   -3.5012   -1.5857    1.1067 H   0  0  0  0  0  0  0  0  0  0  0  0
   -3.0182   -2.4907   -0.3513 H   0  0  0  0  0  0  0  0  0  0  0  0
   -1.3942   -1.7897    0.8407 C   0  0  0  0  0  0  0  0  0  0  0  0
   -0.5672   -2.4077    1.5007 O   0  0  0  0  0  0  0  0  0  0  0  0
   -1.1222   -0.6447    0.2217 N   0  0  0  0  0  0  0  0  0  0  0  0
   -1.8592   -0.1777   -0.2863 H   0  0  0  0  0  0  0  0  0  0  0  0
    0.1838    0.0363    0.2367 C   0  0  1  0  0  0  0  0  0  0  0  0
    0.3185    0.5532   -0.7127 H   0  0  0  0  0  0  0  0  0  0  0  0
    0.2698    1.0869    1.3630 C   0  0  1  0  0  0  0  0  0  0  0  0
    1.2552    1.5505    1.3224 H   0  0  0  0  0  0  0  0  0  0  0  0
   -0.7717    2.1993    1.2583 C   0  0  0  0  0  0  0  0  0  0  0  0
   -1.7727    1.7996    1.4250 H   0  0  0  0  0  0  0  0  0  0  0  0
   -0.5658    2.9696    2.0006 H   0  0  0  0  0  0  0  0  0  0  0  0
   -0.7306    2.6474    0.2651 H   0  0  0  0  0  0  0  0  0  0  0  0
    0.1132    0.4876    2.6254 O   0  0  0  0  0  0  0  0  0  0  0  0
    0.0761    1.1851    3.2831 H   0  0  0  0  0  0  0  0  0  0  0  0
    1.3270   -0.9771    0.3715 C   0  0  0  0  0  0  0  0  0  0  0  0
    1.3877   -1.7387    1.3366 O   0  0  0  0  0  0  0  0  0  0  0  0
    2.2303   -1.0116   -0.6182 N   0  0  0  0  0  0  0  0  0  0  0  0
    2.1153   -0.3766   -1.3908 H   0  0  0  0  0  0  0  0  0  0  0  0
    3.3774   -1.9179   -0.6427 C   0  0  0  0  0  0  0  0  0  0  0  0
    3.0383   -2.9466   -0.5058 H   0  0  0  0  0  0  0  0  0  0  0  0
    3.9055   -1.8380   -1.5930 H   0  0  0  0  0  0  0  0  0  0  0  0
    4.0605   -1.6681    0.1720 H   0  0  0  0  0  0  0  0  0  0  0  0
  5  6  2  0  0  0  0
  5  7  1  0  0  0  0
  2  3  1  0  0  0  0
  2  4  1  0  0  0  0
  2  5  1  0  0  0  0
  1  2  1  0  0  0  0
 19 20  2  0  0  0  0
 19 21  1  0  0  0  0
 17 18  1  0  0  0  0
 13 14  1  0  0  0  0
 13 15  1  0  0  0  0
 13 16  1  0  0  0  0
 11 12  1  0  0  0  0
 11 13  1  0  0  0  0
 11 17  1  0  0  0  0
  9 10  1  0  0  0  0
  9 11  1  0  0  0  0
  9 19  1  0  0  0  0
  7  8  1  0  0  0  0
  7  9  1  0  0  0  0
 23 24  1  0  0  0  0
 23 25  1  0  0  0  0
 23 26  1  0  0  0  0
 21 22  1  0  0  0  0
 21 23  1  0  0  0  0
M  END
$$$$
default_name
  -OEChem-01062215323D

 26 25  0     1  0  0  0  0  0999 V2000
   -2.8882   -3.2497    1.2537 H   0  0  0  0  0  0  0  0  0  0  0  0
   -2.8032   -2.3157    0.7017 C   0  0  0  0  0  0  0  0  0  0  0  0
   -3.5012   -1.5857    1.1067 H   0  0  0  0  0  0  0  0  0  0  0  0
   -3.0182   -2.4907   -0.3513 H   0  0  0  0  0  0  0  0  0  0  0  0
   -1.3942   -1.7897    0.8407 C   0  0  0  0  0  0  0  0  0  0  0  0
   -0.5672   -2.4077    1.5007 O   0  0  0  0  0  0  0  0  0  0  0  0
   -1.1222   -0.6447    0.2217 N   0  0  0  0  0  0  0  0  0  0  0  0
   -1.8592   -0.1777   -0.2863 H   0  0  0  0  0  0  0  0  0  0  0  0
    0.1838    0.0363    0.2367 C   0  0  1  0  0  0  0  0  0  0  0  0
    0.3185    0.5532   -0.7127 H   0  0  0  0  0  0  0  0  0  0  0  0
    0.2698    1.0869    1.3630 C   0  0  1  0  0  0  0  0  0  0  0  0
    1.2552    1.5505    1.3224 H   0  0  0  0  0  0  0  0  0  0  0  0
   -0.7717    2.1993    1.2583 C   0  0  0  0  0  0  0  0  0  0  0  0
   -1.7727    1.7996    1.4250 H   0  0  0  0  0  0  0  0  0  0  0  0
   -0.5658    2.9696    2.0006 H   0  0  0  0  0  0  0  0  0  0  0  0
   -0.7306    2.6474    0.2651 H   0  0  0  0  0  0  0  0  0  0  0  0
    0.1132    0.4876    2.6254 O   0  0  0  0  0  0  0  0  0  0  0  0
    0.0761    1.1851    3.2831 H   0  0  0  0  0  0  0  0  0  0  0  0
    1.3270   -0.9771    0.3715 C   0  0  0  0  0  0  0  0  0  0  0  0
    1.2540   -1.9118    1.1691 O   0  0  0  0  0  0  0  0  0  0  0  0
    2.3851   -0.8127   -0.4348 N   0  0  0  0  0  0  0  0  0  0  0  0
    2.3771   -0.0399   -1.0800 H   0  0  0  0  0  0  0  0  0  0  0  0
    3.5547   -1.6900   -0.4328 C   0  0  0  0  0  0  0  0  0  0  0  0
    3.2383   -2.7277   -0.5557 H   0  0  0  0  0  0  0  0  0  0  0  0
    4.2321   -1.4232   -1.2442 H   0  0  0  0  0  0  0  0  0  0  0  0
    4.0801   -1.5997    0.5203 H   0  0  0  0  0  0  0  0  0  0  0  0
  5  6  2  0  0  0  0
  5  7  1  0  0  0  0
  2  3  1  0  0  0  0
  2  4  1  0  0  0  0
  2  5  1  0  0  0  0
  1  2  1  0  0  0  0
 19 20  2  0  0  0  0
 19 21  1  0  0  0  0
 17 18  1  0  0  0  0
 13 14  1  0  0  0  0
 13 15  1  0  0  0  0
 13 16  1  0  0  0  0
 11 12  1  0  0  0  0
 11 13  1  0  0  0  0
 11 17  1  0  0  0  0
  9 10  1  0  0  0  0
  9 11  1  0  0  0  0
  9 19  1  0  0  0  0
  7  8  1  0  0  0  0
  7  9  1  0  0  0  0
 23 24  1  0  0  0  0
 23 25  1  0  0  0  0
 23 26  1  0  0  0  0
 21 22  1  0  0  0  0
 21 23  1  0  0  0  0
M  END
$$$$
default_name
  -OEChem-01062215323D

 26 25  0     1  0  0  0  0  0999 V2000
   -2.8882   -3.2497    1.2537 H   0  0  0  0  0  0  0  0  0  0  0  0
   -2.8032   -2.3157    0.7017 C   0  0  0  0  0  0  0  0  0  0  0  0
   -3.5012   -1.5857    1.1067 H   0  0  0  0  0  0  0  0  0  0  0  0
   -3.0182   -2.4907   -0.3513 H   0  0  0  0  0  0  0  0  0  0  0  0
   -1.3942   -1.7897    0.8407 C   0  0  0  0  0  0  0  0  0  0  0  0
   -0.5672   -2.4077    1.5007 O   0  0  0  0  0  0  0  0  0  0  0  0
   -1.1222   -0.6447    0.2217 N   0  0  0  0  0  0  0  0  0  0  0  0
   -1.8592   -0.1777   -0.2863 H   0  0  0  0  0  0  0  0  0  0  0  0
    0.1838    0.0363    0.2367 C   0  0  1  0  0  0  0  0  0  0  0  0
    0.3185    0.5532   -0.7127 H   0  0  0  0  0  0  0  0  0  0  0  0
    0.2698    1.0869    1.3630 C   0  0  1  0  0  0  0  0  0  0  0  0
    1.2552    1.5505    1.3224 H   0  0  0  0  0  0  0  0  0  0  0  0
   -0.7717    2.1993    1.2583 C   0  0  0  0  0  0  0  0  0  0  0  0
   -1.7727    1.7996    1.4250 H   0  0  0  0  0  0  0  0  0  0  0  0
   -0.5658    2.9696    2.0006 H   0  0  0  0  0  0  0  0  0  0  0  0
   -0.7306    2.6474    0.2651 H   0  0  0  0  0  0  0  0  0  0  0  0
    0.1132    0.4876    2.6254 O   0  0  0  0  0  0  0  0  0  0  0  0
    0.0761    1.1851    3.2831 H   0  0  0  0  0  0  0  0  0  0  0  0
    1.3270   -0.9771    0.3715 C   0  0  0  0  0  0  0  0  0  0  0  0
    1.1574   -2.0498    0.9509 O   0  0  0  0  0  0  0  0  0  0  0  0
    2.4986   -0.6524   -0.1929 N   0  0  0  0  0  0  0  0  0  0  0  0
    2.5691    0.2312   -0.6701 H   0  0  0  0  0  0  0  0  0  0  0  0
    3.6849   -1.5063   -0.1558 C   0  0  0  0  0  0  0  0  0  0  0  0
    3.4350   -2.5020   -0.5275 H   0  0  0  0  0  0  0  0  0  0  0  0
    4.4785   -1.0824   -0.7715 H   0  0  0  0  0  0  0  0  0  0  0  0
    4.0379   -1.6004    0.8734 H   0  0  0  0  0  0  0  0  0  0  0  0
  5  6  2  0  0  0  0
  5  7  1  0  0  0  0
  2  3  1  0  0  0  0
  2  4  1  0  0  0  0
  2  5  1  0  0  0  0
  1  2  1  0  0  0  0
 19 20  2  0  0  0  0
 19 21  1  0  0  0  0
 17 18  1  0  0  0  0
 13 14  1  0  0  0  0
 13 15  1  0  0  0  0
 13 16  1  0  0  0  0
 11 12  1  0  0  0  0
 11 13  1  0  0  0  0
 11 17  1  0  0  0  0
  9 10  1  0  0  0  0
  9 11  1  0  0  0  0
  9 19  1  0  0  0  0
  7  8  1  0  0  0  0
  7  9  1  0  0  0  0
 23 24  1  0  0  0  0
 23 25  1  0  0  0  0
 23 26  1  0  0  0  0
 21 22  1  0  0  0  0
 21 23  1  0  0  0  0
M  END
$$$$
default_name
  -OEChem-01062215323D

 26 25  0     1  0  0  0  0  0999 V2000
   -2.8882   -3.2497    1.2537 H   0  0  0  0  0  0  0  0  0  0  0  0
   -2.8032   -2.3157    0.7017 C   0  0  0  0  0  0  0  0  0  0  0  0
   -3.5012   -1.5857    1.1067 H   0  0  0  0  0  0  0  0  0  0  0  0
   -3.0182   -2.4907   -0.3513 H   0  0  0  0  0  0  0  0  0  0  0  0
   -1.3942   -1.7897    0.8407 C   0  0  0  0  0  0  0  0  0  0  0  0
   -0.5672   -2.4077    1.5007 O   0  0  0  0  0  0  0  0  0  0  0  0
   -1.1222   -0.6447    0.2217 N   0  0  0  0  0  0  0  0  0  0  0  0
   -1.8592   -0.1777   -0.2863 H   0  0  0  0  0  0  0  0  0  0  0  0
    0.1838    0.0363    0.2367 C   0  0  1  0  0  0  0  0  0  0  0  0
    0.3185    0.5532   -0.7127 H   0  0  0  0  0  0  0  0  0  0  0  0
    0.2698    1.0869    1.3630 C   0  0  1  0  0  0  0  0  0  0  0  0
    1.2552    1.5505    1.3224 H   0  0  0  0  0  0  0  0  0  0  0  0
   -0.7717    2.1993    1.2583 C   0  0  0  0  0  0  0  0  0  0  0  0
   -1.7727    1.7996    1.4250 H   0  0  0  0  0  0  0  0  0  0  0  0
   -0.5658    2.9696    2.0006 H   0  0  0  0  0  0  0  0  0  0  0  0
   -0.7306    2.6474    0.2651 H   0  0  0  0  0  0  0  0  0  0  0  0
    0.1132    0.4876    2.6254 O   0  0  0  0  0  0  0  0  0  0  0  0
    0.0761    1.1851    3.2831 H   0  0  0  0  0  0  0  0  0  0  0  0
    1.3270   -0.9771    0.3715 C   0  0  0  0  0  0  0  0  0  0  0  0
    1.1046   -2.1431    0.6971 O   0  0  0  0  0  0  0  0  0  0  0  0
    2.5633   -0.5417    0.0912 N   0  0  0  0  0  0  0  0  0  0  0  0
    2.6784    0.4184   -0.1889 H   0  0  0  0  0  0  0  0  0  0  0  0
    3.7591   -1.3793    0.1695 C   0  0  0  0  0  0  0  0  0  0  0  0
    3.6151   -2.2849   -0.4231 H   0  0  0  0  0  0  0  0  0  0  0  0
    4.6278   -0.8389   -0.2069 H   0  0  0  0  0  0  0  0  0  0  0  0
    3.9368   -1.6701    1.2071 H   0  0  0  0  0  0  0  0  0  0  0  0
  5  6  2  0  0  0  0
  5  7  1  0  0  0  0
  2  3  1  0  0  0  0
  2  4  1  0  0  0  0
  2  5  1  0  0  0  0
  1  2  1  0  0  0  0
 19 20  2  0  0  0  0
 19 21  1  0  0  0  0
 17 18  1  0  0  0  0
 13 14  1  0  0  0  0
 13 15  1  0  0  0  0
 13 16  1  0  0  0  0
 11 12  1  0  0  0  0
 11 13  1  0  0  0  0
 11 17  1  0  0  0  0
  9 10  1  0  0  0  0
  9 11  1  0  0  0  0
  9 19  1  0  0  0  0
  7  8  1  0  0  0  0
  7  9  1  0  0  0  0
 23 24  1  0  0  0  0
 23 25  1  0  0  0  0
 23 26  1  0  0  0  0
 21 22  1  0  0  0  0
 21 23  1  0  0  0  0
M  END
$$$$
default_name
  -OEChem-01062215323D

 26 25  0     1  0  0  0  0  0999 V2000
   -2.8882   -3.2497    1.2537 H   0  0  0  0  0  0  0  0  0  0  0  0
   -2.8032   -2.3157    0.7017 C   0  0  0  0  0  0  0  0  0  0  0  0
   -3.5012   -1.5857    1.1067 H   0  0  0  0  0  0  0  0  0  0  0  0
   -3.0182   -2.4907   -0.3513 H   0  0  0  0  0  0  0  0  0  0  0  0
   -1.3942   -1.7897    0.8407 C   0  0  0  0  0  0  0  0  0  0  0  0
   -0.5672   -2.4077    1.5007 O   0  0  0  0  0  0  0  0  0  0  0  0
   -1.1222   -0.6447    0.2217 N   0  0  0  0  0  0  0  0  0  0  0  0
   -1.8592   -0.1777   -0.2863 H   0  0  0  0  0  0  0  0  0  0  0  0
    0.1838    0.0363    0.2367 C   0  0  1  0  0  0  0  0  0  0  0  0
    0.2095    0.7593   -0.5778 H   0  0  0  0  0  0  0  0  0  0  0  0
    0.4162    0.8019    1.5556 C   0  0  1  0  0  0  0  0  0  0  0  0
    1.3948    1.2788    1.5053 H   0  0  0  0  0  0  0  0  0  0  0  0
   -0.6176    1.8912    1.8343 C   0  0  0  0  0  0  0  0  0  0  0  0
   -1.5959    1.4474    2.0229 H   0  0  0  0  0  0  0  0  0  0  0  0
   -0.3155    2.4741    2.7035 H   0  0  0  0  0  0  0  0  0  0  0  0
   -0.6910    2.5558    0.9729 H   0  0  0  0  0  0  0  0  0  0  0  0
    0.4054   -0.0735    2.6560 O   0  0  0  0  0  0  0  0  0  0  0  0
    0.4553    0.4539    3.4560 H   0  0  0  0  0  0  0  0  0  0  0  0
    1.3234   -0.9619   -0.0023 C   0  0  0  0  0  0  0  0  0  0  0  0
    1.0898   -2.1540   -0.2010 O   0  0  0  0  0  0  0  0  0  0  0  0
    2.5707   -0.4713   -0.0133 N   0  0  0  0  0  0  0  0  0  0  0  0
    2.6956    0.5165    0.1360 H   0  0  0  0  0  0  0  0  0  0  0  0
    3.7649   -1.2870   -0.2280 C   0  0  0  0  0  0  0  0  0  0  0  0
    3.6577   -1.8633   -1.1491 H   0  0  0  0  0  0  0  0  0  0  0  0
    4.6498   -0.6546   -0.3017 H   0  0  0  0  0  0  0  0  0  0  0  0
    3.8879   -1.9844    0.6033 H   0  0  0  0  0  0  0  0  0  0  0  0
  5  6  2  0  0  0  0
  5  7  1  0  0  0  0
  2  3  1  0  0  0  0
  2  4  1  0  0  0  0
  2  5  1  0  0  0  0
  1  2  1  0  0  0  0
 19 20  2  0  0  0  0
 19 21  1  0  0  0  0
 17 18  1  0  0  0  0
 13 14  1  0  0  0  0
 13 15  1  0  0  0  0
 13 16  1  0  0  0  0
 11 12  1  0  0  0  0
 11 13  1  0  0  0  0
 11 17  1  0  0  0  0
  9 10  1  0  0  0  0
  9 11  1  0  0  0  0
  9 19  1  0  0  0  0
  7  8  1  0  0  0  0
  7  9  1  0  0  0  0
 23 24  1  0  0  0  0
 23 25  1  0  0  0  0
 23 26  1  0  0  0  0
 21 22  1  0  0  0  0
 21 23  1  0  0  0  0
M  END
$$$$
default_name
  -OEChem-01062215323D

 26 25  0     1  0  0  0  0  0999 V2000
   -2.8882   -3.2497    1.2537 H   0  0  0  0  0  0  0  0  0  0  0  0
   -2.8032   -2.3157    0.7017 C   0  0  0  0  0  0  0  0  0  0  0  0
   -3.5012   -1.5857    1.1067 H   0  0  0  0  0  0  0  0  0  0  0  0
   -3.0182   -2.4907   -0.3513 H   0  0  0  0  0  0  0  0  0  0  0  0
   -1.3942   -1.7897    0.8407 C   0  0  0  0  0  0  0  0  0  0  0  0
   -0.5672   -2.4077    1.5007 O   0  0  0  0  0  0  0  0  0  0  0  0
   -1.1222   -0.6447    0.2217 N   0  0  0  0  0  0  0  0  0  0  0  0
   -1.8592   -0.1777   -0.2863 H   0  0  0  0  0  0  0  0  0  0  0  0
    0.1838    0.0363    0.2367 C   0  0  1  0  0  0  0  0  0  0  0  0
    0.2095    0.7593   -0.5778 H   0  0  0  0  0  0  0  0  0  0  0  0
    0.4162    0.8019    1.5556 C   0  0  1  0  0  0  0  0  0  0  0  0
    1.3948    1.2788    1.5053 H   0  0  0  0  0  0  0  0  0  0  0  0
   -0.6176    1.8912    1.8343 C   0  0  0  0  0  0  0  0  0  0  0  0
   -1.5959    1.4474    2.0229 H   0  0  0  0  0  0  0  0  0  0  0  0
   -0.3155    2.4741    2.7035 H   0  0  0  0  0  0  0  0  0  0  0  0
   -0.6910    2.5558    0.9729 H   0  0  0  0  0  0  0  0  0  0  0  0
    0.4054   -0.0735    2.6560 O   0  0  0  0  0  0  0  0  0  0  0  0
    0.4553    0.4539    3.4560 H   0  0  0  0  0  0  0  0  0  0  0  0
    1.3234   -0.9619   -0.0023 C   0  0  0  0  0  0  0  0  0  0  0  0
    1.0991   -2.0798   -0.4662 O   0  0  0  0  0  0  0  0  0  0  0  0
    2.5652   -0.5497    0.2883 N   0  0  0  0  0  0  0  0  0  0  0  0
    2.6861    0.3833    0.6465 H   0  0  0  0  0  0  0  0  0  0  0  0
    3.7588   -1.3768    0.1175 C   0  0  0  0  0  0  0  0  0  0  0  0
    3.7983   -1.7617   -0.9035 H   0  0  0  0  0  0  0  0  0  0  0  0
    4.6579   -0.7931    0.3156 H   0  0  0  0  0  0  0  0  0  0  0  0
    3.7199   -2.2244    0.8049 H   0  0  0  0  0  0  0  0  0  0  0  0
  5  6  2  0  0  0  0
  5  7  1  0  0  0  0
  2  3  1  0  0  0  0
  2  4  1  0  0  0  0
  2  5  1  0  0  0  0
  1  2  1  0  0  0  0
 19 20  2  0  0  0  0
 19 21  1  0  0  0  0
 17 18  1  0  0  0  0
 13 14  1  0  0  0  0
 13 15  1  0  0  0  0
 13 16  1  0  0  0  0
 11 12  1  0  0  0  0
 11 13  1  0  0  0  0
 11 17  1  0  0  0  0
  9 10  1  0  0  0  0
  9 11  1  0  0  0  0
  9 19  1  0  0  0  0
  7  8  1  0  0  0  0
  7  9  1  0  0  0  0
 23 24  1  0  0  0  0
 23 25  1  0  0  0  0
 23 26  1  0  0  0  0
 21 22  1  0  0  0  0
 21 23  1  0  0  0  0
M  END
$$$$
default_name
  -OEChem-01062215323D

 26 25  0     1  0  0  0  0  0999 V2000
   -2.8882   -3.2497    1.2537 H   0  0  0  0  0  0  0  0  0  0  0  0
   -2.8032   -2.3157    0.7017 C   0  0  0  0  0  0  0  0  0  0  0  0
   -3.5012   -1.5857    1.1067 H   0  0  0  0  0  0  0  0  0  0  0  0
   -3.0182   -2.4907   -0.3513 H   0  0  0  0  0  0  0  0  0  0  0  0
   -1.3942   -1.7897    0.8407 C   0  0  0  0  0  0  0  0  0  0  0  0
   -0.5672   -2.4077    1.5007 O   0  0  0  0  0  0  0  0  0  0  0  0
   -1.1222   -0.6447    0.2217 N   0  0  0  0  0  0  0  0  0  0  0  0
   -1.8592   -0.1777   -0.2863 H   0  0  0  0  0  0  0  0  0  0  0  0
    0.1838    0.0363    0.2367 C   0  0  1  0  0  0  0  0  0  0  0  0
    0.2095    0.7593   -0.5778 H   0  0  0  0  0  0  0  0  0  0  0  0
    0.4162    0.8019    1.5556 C   0  0  1  0  0  0  0  0  0  0  0  0
    1.3948    1.2788    1.5053 H   0  0  0  0  0  0  0  0  0  0  0  0
   -0.6176    1.8912    1.8343 C   0  0  0  0  0  0  0  0  0  0  0  0
   -1.5959    1.4474    2.0229 H   0  0  0  0  0  0  0  0  0  0  0  0
   -0.3155    2.4741    2.7035 H   0  0  0  0  0  0  0  0  0  0  0  0
   -0.6910    2.5558    0.9729 H   0  0  0  0  0  0  0  0  0  0  0  0
    0.4054   -0.0735    2.6560 O   0  0  0  0  0  0  0  0  0  0  0  0
    0.4553    0.4539    3.4560 H   0  0  0  0  0  0  0  0  0  0  0  0
    1.3234   -0.9619   -0.0023 C   0  0  0  0  0  0  0  0  0  0  0  0
    1.1559   -1.9575   -0.7065 O   0  0  0  0  0  0  0  0  0  0  0  0
    2.5060   -0.6832    0.5636 N   0  0  0  0  0  0  0  0  0  0  0  0
    2.5856    0.1570    1.1125 H   0  0  0  0  0  0  0  0  0  0  0  0
    3.6910   -1.5296    0.4329 C   0  0  0  0  0  0  0  0  0  0  0  0
    3.8968   -1.7164   -0.6230 H   0  0  0  0  0  0  0  0  0  0  0  0
    4.5563   -1.0459    0.8866 H   0  0  0  0  0  0  0  0  0  0  0  0
    3.5141   -2.4882    0.9251 H   0  0  0  0  0  0  0  0  0  0  0  0
  5  6  2  0  0  0  0
  5  7  1  0  0  0  0
  2  3  1  0  0  0  0
  2  4  1  0  0  0  0
  2  5  1  0  0  0  0
  1  2  1  0  0  0  0
 19 20  2  0  0  0  0
 19 21  1  0  0  0  0
 17 18  1  0  0  0  0
 13 14  1  0  0  0  0
 13 15  1  0  0  0  0
 13 16  1  0  0  0  0
 11 12  1  0  0  0  0
 11 13  1  0  0  0  0
 11 17  1  0  0  0  0
  9 10  1  0  0  0  0
  9 11  1  0  0  0  0
  9 19  1  0  0  0  0
  7  8  1  0  0  0  0
  7  9  1  0  0  0  0
 23 24  1  0  0  0  0
 23 25  1  0  0  0  0
 23 26  1  0  0  0  0
 21 22  1  0  0  0  0
 21 23  1  0  0  0  0
M  END
$$$$
default_name
  -OEChem-01062215323D

 26 25  0     1  0  0  0  0  0999 V2000
   -2.8882   -3.2497    1.2537 H   0  0  0  0  0  0  0  0  0  0  0  0
   -2.8032   -2.3157    0.7017 C   0  0  0  0  0  0  0  0  0  0  0  0
   -3.5012   -1.5857    1.1067 H   0  0  0  0  0  0  0  0  0  0  0  0
   -3.0182   -2.4907   -0.3513 H   0  0  0  0  0  0  0  0  0  0  0  0
   -1.3942   -1.7897    0.8407 C   0  0  0  0  0  0  0  0  0  0  0  0
   -0.5672   -2.4077    1.5007 O   0  0  0  0  0  0  0  0  0  0  0  0
   -1.1222   -0.6447    0.2217 N   0  0  0  0  0  0  0  0  0  0  0  0
   -1.8592   -0.1777   -0.2863 H   0  0  0  0  0  0  0  0  0  0  0  0
    0.1838    0.0363    0.2367 C   0  0  1  0  0  0  0  0  0  0  0  0
    0.2095    0.7593   -0.5778 H   0  0  0  0  0  0  0  0  0  0  0  0
    0.4162    0.8019    1.5556 C   0  0  1  0  0  0  0  0  0  0  0  0
    1.3948    1.2788    1.5053 H   0  0  0  0  0  0  0  0  0  0  0  0
   -0.6176    1.8912    1.8343 C   0  0  0  0  0  0  0  0  0  0  0  0
   -1.5959    1.4474    2.0229 H   0  0  0  0  0  0  0  0  0  0  0  0
   -0.3155    2.4741    2.7035 H   0  0  0  0  0  0  0  0  0  0  0  0
   -0.6910    2.5558    0.9729 H   0  0  0  0  0  0  0  0  0  0  0  0
    0.4054   -0.0735    2.6560 O   0  0  0  0  0  0  0  0  0  0  0  0
    0.4553    0.4539    3.4560 H   0  0  0  0  0  0  0  0  0  0  0  0
    1.3234   -0.9619   -0.0023 C   0  0  0  0  0  0  0  0  0  0  0  0
    1.2561   -1.7954   -0.9056 O   0  0  0  0  0  0  0  0  0  0  0  0
    2.3971   -0.8628    0.7939 N   0  0  0  0  0  0  0  0  0  0  0  0
    2.4008   -0.1473    1.5021 H   0  0  0  0  0  0  0  0  0  0  0  0
    3.5663   -1.7351    0.6968 C   0  0  0  0  0  0  0  0  0  0  0  0
    3.9465   -1.7306   -0.3267 H   0  0  0  0  0  0  0  0  0  0  0  0
    4.3517   -1.3958    1.3724 H   0  0  0  0  0  0  0  0  0  0  0  0
    3.2844   -2.7579    0.9558 H   0  0  0  0  0  0  0  0  0  0  0  0
  5  6  2  0  0  0  0
  5  7  1  0  0  0  0
  2  3  1  0  0  0  0
  2  4  1  0  0  0  0
  2  5  1  0  0  0  0
  1  2  1  0  0  0  0
 19 20  2  0  0  0  0
 19 21  1  0  0  0  0
 17 18  1  0  0  0  0
 13 14  1  0  0  0  0
 13 15  1  0  0  0  0
 13 16  1  0  0  0  0
 11 12  1  0  0  0  0
 11 13  1  0  0  0  0
 11 17  1  0  0  0  0
  9 10  1  0  0  0  0
  9 11  1  0  0  0  0
  9 19  1  0  0  0  0
  7  8  1  0  0  0  0
  7  9  1  0  0  0  0
 23 24  1  0  0  0  0
 23 25  1  0  0  0  0
 23 26  1  0  0  0  0
 21 22  1  0  0  0  0
 21 23  1  0  0  0  0
M  END
$$$$
default_name
  -OEChem-01062215323D

 26 25  0     1  0  0  0  0  0999 V2000
   -2.8882   -3.2497    1.2537 H   0  0  0  0  0  0  0  0  0  0  0  0
   -2.8032   -2.3157    0.7017 C   0  0  0  0  0  0  0  0  0  0  0  0
   -3.5012   -1.5857    1.1067 H   0  0  0  0  0  0  0  0  0  0  0  0
   -3.0182   -2.4907   -0.3513 H   0  0  0  0  0  0  0  0  0  0  0  0
   -1.3942   -1.7897    0.8407 C   0  0  0  0  0  0  0  0  0  0  0  0
   -0.5672   -2.4077    1.5007 O   0  0  0  0  0  0  0  0  0  0  0  0
   -1.1222   -0.6447    0.2217 N   0  0  0  0  0  0  0  0  0  0  0  0
   -1.8592   -0.1777   -0.2863 H   0  0  0  0  0  0  0  0  0  0  0  0
    0.1838    0.0363    0.2367 C   0  0  1  0  0  0  0  0  0  0  0  0
    0.2095    0.7593   -0.5778 H   0  0  0  0  0  0  0  0  0  0  0  0
    0.4162    0.8019    1.5556 C   0  0  1  0  0  0  0  0  0  0  0  0
    1.3948    1.2788    1.5053 H   0  0  0  0  0  0  0  0  0  0  0  0
   -0.6176    1.8912    1.8343 C   0  0  0  0  0  0  0  0  0  0  0  0
   -1.5959    1.4474    2.0229 H   0  0  0  0  0  0  0  0  0  0  0  0
   -0.3155    2.4741    2.7035 H   0  0  0  0  0  0  0  0  0  0  0  0
   -0.6910    2.5558    0.9729 H   0  0  0  0  0  0  0  0  0  0  0  0
    0.4054   -0.0735    2.6560 O   0  0  0  0  0  0  0  0  0  0  0  0
    0.4553    0.4539    3.4560 H   0  0  0  0  0  0  0  0  0  0  0  0
    1.3234   -0.9619   -0.0023 C   0  0  0  0  0  0  0  0  0  0  0  0
    1.3929   -1.6046   -1.0498 O   0  0  0  0  0  0  0  0  0  0  0  0
    2.2458   -1.0761    0.9635 N   0  0  0  0  0  0  0  0  0  0  0  0
    2.1445   -0.5086    1.7888 H   0  0  0  0  0  0  0  0  0  0  0  0
    3.3931   -1.9794    0.8911 C   0  0  0  0  0  0  0  0  0  0  0  0
    3.9441   -1.8032   -0.0349 H   0  0  0  0  0  0  0  0  0  0  0  0
    4.0581   -1.8190    1.7399 H   0  0  0  0  0  0  0  0  0  0  0  0
    3.0464   -3.0150    0.8950 H   0  0  0  0  0  0  0  0  0  0  0  0
  5  6  2  0  0  0  0
  5  7  1  0  0  0  0
  2  3  1  0  0  0  0
  2  4  1  0  0  0  0
  2  5  1  0  0  0  0
  1  2  1  0  0  0  0
 19 20  2  0  0  0  0
 19 21  1  0  0  0  0
 17 18  1  0  0  0  0
 13 14  1  0  0  0  0
 13 15  1  0  0  0  0
 13 16  1  0  0  0  0
 11 12  1  0  0  0  0
 11 13  1  0  0  0  0
 11 17  1  0  0  0  0
  9 10  1  0  0  0  0
  9 11  1  0  0  0  0
  9 19  1  0  0  0  0
  7  8  1  0  0  0  0
  7  9  1  0  0  0  0
 23 24  1  0  0  0  0
 23 25  1  0  0  0  0
 23 26  1  0  0  0  0
 21 22  1  0  0  0  0
 21 23  1  0  0  0  0
M  END
$$$$
default_name
  -OEChem-01062215323D

 26 25  0     1  0  0  0  0  0999 V2000
   -2.8882   -3.2497    1.2537 H   0  0  0  0  0  0  0  0  0  0  0  0
   -2.8032   -2.3157    0.7017 C   0  0  0  0  0  0  0  0  0  0  0  0
   -3.5012   -1.5857    1.1067 H   0  0  0  0  0  0  0  0  0  0  0  0
   -3.0182   -2.4907   -0.3513 H   0  0  0  0  0  0  0  0  0  0  0  0
   -1.3942   -1.7897    0.8407 C   0  0  0  0  0  0  0  0  0  0  0  0
   -0.5672   -2.4077    1.5007 O   0  0  0  0  0  0  0  0  0  0  0  0
   -1.1222   -0.6447    0.2217 N   0  0  0  0  0  0  0  0  0  0  0  0
   -1.8592   -0.1777   -0.2863 H   0  0  0  0  0  0  0  0  0  0  0  0
    0.1838    0.0363    0.2367 C   0  0  1  0  0  0  0  0  0  0  0  0
    0.2095    0.7593   -0.5778 H   0  0  0  0  0  0  0  0  0  0  0  0
    0.4162    0.8019    1.5556 C   0  0  1  0  0  0  0  0  0  0  0  0
    1.3948    1.2788    1.5053 H   0  0  0  0  0  0  0  0  0  0  0  0
   -0.6176    1.8912    1.8343 C   0  0  0  0  0  0  0  0  0  0  0  0
   -1.5959    1.4474    2.0229 H   0  0  0  0  0  0  0  0  0  0  0  0
   -0.3155    2.4741    2.7035 H   0  0  0  0  0  0  0  0  0  0  0  0
   -0.6910    2.5558    0.9729 H   0  0  0  0  0  0  0  0  0  0  0  0
    0.4054   -0.0735    2.6560 O   0  0  0  0  0  0  0  0  0  0  0  0
    0.4553    0.4539    3.4560 H   0  0  0  0  0  0  0  0  0  0  0  0
    1.3234   -0.9619   -0.0023 C   0  0  0  0  0  0  0  0  0  0  0  0
    1.5571   -1.3981   -1.1294 O   0  0  0  0  0  0  0  0  0  0  0  0
    2.0625   -1.3087    1.0607 N   0  0  0  0  0  0  0  0  0  0  0  0
    1.8340   -0.9024    1.9530 H   0  0  0  0  0  0  0  0  0  0  0  0
    3.1833   -2.2458    1.0027 C   0  0  0  0  0  0  0  0  0  0  0  0
    3.8896   -1.9294    0.2326 H   0  0  0  0  0  0  0  0  0  0  0  0
    3.6956   -2.2866    1.9641 H   0  0  0  0  0  0  0  0  0  0  0  0
    2.8164   -3.2420    0.7466 H   0  0  0  0  0  0  0  0  0  0  0  0
  5  6  2  0  0  0  0
  5  7  1  0  0  0  0
  2  3  1  0  0  0  0
  2  4  1  0  0  0  0
  2  5  1  0  0  0  0
  1  2  1  0  0  0  0
 19 20  2  0  0  0  0
 19 21  1  0  0  0  0
 17 18  1  0  0  0  0
 13 14  1  0  0  0  0
 13 15  1  0  0  0  0
 13 16  1  0  0  0  0
 11 12  1  0  0  0  0
 11 13  1  0  0  0  0
 11 17  1  0  0  0  0
  9 10  1  0  0  0  0
  9 11  1  0  0  0  0
  9 19  1  0  0  0  0
  7  8  1  0  0  0  0
  7  9  1  0  0  0  0
 23 24  1  0  0  0  0
 23 25  1  0  0  0  0
 23 26  1  0  0  0  0
 21 22  1  0  0  0  0
 21 23  1  0  0  0  0
M  END
$$$$
default_name
  -OEChem-01062215323D

 26 25  0     1  0  0  0  0  0999 V2000
   -2.8882   -3.2497    1.2537 H   0  0  0  0  0  0  0  0  0  0  0  0
   -2.8032   -2.3157    0.7017 C   0  0  0  0  0  0  0  0  0  0  0  0
   -3.5012   -1.5857    1.1067 H   0  0  0  0  0  0  0  0  0  0  0  0
   -3.0182   -2.4907   -0.3513 H   0  0  0  0  0  0  0  0  0  0  0  0
   -1.3942   -1.7897    0.8407 C   0  0  0  0  0  0  0  0  0  0  0  0
   -0.5672   -2.4077    1.5007 O   0  0  0  0  0  0  0  0  0  0  0  0
   -1.1222   -0.6447    0.2217 N   0  0  0  0  0  0  0  0  0  0  0  0
   -1.8592   -0.1777   -0.2863 H   0  0  0  0  0  0  0  0  0  0  0  0
    0.1838    0.0363    0.2367 C   0  0  1  0  0  0  0  0  0  0  0  0
    0.2095    0.7593   -0.5778 H   0  0  0  0  0  0  0  0  0  0  0  0
    0.4162    0.8019    1.5556 C   0  0  1  0  0  0  0  0  0  0  0  0
    1.3948    1.2788    1.5053 H   0  0  0  0  0  0  0  0  0  0  0  0
   -0.6176    1.8912    1.8343 C   0  0  0  0  0  0  0  0  0  0  0  0
   -1.5959    1.4474    2.0229 H   0  0  0  0  0  0  0  0  0  0  0  0
   -0.3155    2.4741    2.7035 H   0  0  0  0  0  0  0  0  0  0  0  0
   -0.6910    2.5558    0.9729 H   0  0  0  0  0  0  0  0  0  0  0  0
    0.4054   -0.0735    2.6560 O   0  0  0  0  0  0  0  0  0  0  0  0
    0.4553    0.4539    3.4560 H   0  0  0  0  0  0  0  0  0  0  0  0
    1.3234   -0.9619   -0.0023 C   0  0  0  0  0  0  0  0  0  0  0  0
    1.7374   -1.1900   -1.1389 O   0  0  0  0  0  0  0  0  0  0  0  0
    1.8597   -1.5446    1.0791 N   0  0  0  0  0  0  0  0  0  0  0  0
    1.4905   -1.3019    1.9837 H   0  0  0  0  0  0  0  0  0  0  0  0
    2.9510   -2.5160    1.0239 C   0  0  0  0  0  0  0  0  0  0  0  0
    3.7869   -2.1006    0.4575 H   0  0  0  0  0  0  0  0  0  0  0  0
    3.2888   -2.7667    2.0296 H   0  0  0  0  0  0  0  0  0  0  0  0
    2.6101   -3.4235    0.5210 H   0  0  0  0  0  0  0  0  0  0  0  0
  5  6  2  0  0  0  0
  5  7  1  0  0  0  0
  2  3  1  0  0  0  0
  2  4  1  0  0  0  0
  2  5  1  0  0  0  0
  1  2  1  0  0  0  0
 19 20  2  0  0  0  0
 19 21  1  0  0  0  0
 17 18  1  0  0  0  0
 13 14  1  0  0  0  0
 13 15  1  0  0  0  0
 13 16  1  0  0  0  0
 11 12  1  0  0  0  0
 11 13  1  0  0  0  0
 11 17  1  0  0  0  0
  9 10  1  0  0  0  0
  9 11  1  0  0  0  0
  9 19  1  0  0  0  0
  7  8  1  0  0  0  0
  7  9  1  0  0  0  0
 23 24  1  0  0  0  0
 23 25  1  0  0  0  0
 23 26  1  0  0  0  0
 21 22  1  0  0  0  0
 21 23  1  0  0  0  0
M  END
$$$$
default_name
  -OEChem-01062215323D

 26 25  0     1  0  0  0  0  0999 V2000
   -2.8882   -3.2497    1.2537 H   0  0  0  0  0  0  0  0  0  0  0  0
   -2.8032   -2.3157    0.7017 C   0  0  0  0  0  0  0  0  0  0  0  0
   -3.5012   -1.5857    1.1067 H   0  0  0  0  0  0  0  0  0  0  0  0
   -3.0182   -2.4907   -0.3513 H   0  0  0  0  0  0  0  0  0  0  0  0
   -1.3942   -1.7897    0.8407 C   0  0  0  0  0  0  0  0  0  0  0  0
   -0.5672   -2.4077    1.5007 O   0  0  0  0  0  0  0  0  0  0  0  0
   -1.1222   -0.6447    0.2217 N   0  0  0  0  0  0  0  0  0  0  0  0
   -1.8592   -0.1777   -0.2863 H   0  0  0  0  0  0  0  0  0  0  0  0
    0.1838    0.0363    0.2367 C   0  0  1  0  0  0  0  0  0  0  0  0
    0.2095    0.7593   -0.5778 H   0  0  0  0  0  0  0  0  0  0  0  0
    0.4162    0.8019    1.5556 C   0  0  1  0  0  0  0  0  0  0  0  0
    1.3948    1.2788    1.5053 H   0  0  0  0  0  0  0  0  0  0  0  0
   -0.6176    1.8912    1.8343 C   0  0  0  0  0  0  0  0  0  0  0  0
   -1.5959    1.4474    2.0229 H   0  0  0  0  0  0  0  0  0  0  0  0
   -0.3155    2.4741    2.7035 H   0  0  0  0  0  0  0  0  0  0  0  0
   -0.6910    2.5558    0.9729 H   0  0  0  0  0  0  0  0  0  0  0  0
    0.4054   -0.0735    2.6560 O   0  0  0  0  0  0  0  0  0  0  0  0
    0.4553    0.4539    3.4560 H   0  0  0  0  0  0  0  0  0  0  0  0
    1.3234   -0.9619   -0.0023 C   0  0  0  0  0  0  0  0  0  0  0  0
    1.9216   -0.9944   -1.0776 O   0  0  0  0  0  0  0  0  0  0  0  0
    1.6512   -1.7679    1.0173 N   0  0  0  0  0  0  0  0  0  0  0  0
    1.1375   -1.6798    1.8786 H   0  0  0  0  0  0  0  0  0  0  0  0
    2.7122   -2.7718    0.9532 C   0  0  0  0  0  0  0  0  0  0  0  0
    3.6428   -2.3050    0.6245 H   0  0  0  0  0  0  0  0  0  0  0  0
    2.8654   -3.2267    1.9320 H   0  0  0  0  0  0  0  0  0  0  0  0
    2.4416   -3.5471    0.2333 H   0  0  0  0  0  0  0  0  0  0  0  0
  5  6  2  0  0  0  0
  5  7  1  0  0  0  0
  2  3  1  0  0  0  0
  2  4  1  0  0  0  0
  2  5  1  0  0  0  0
  1  2  1  0  0  0  0
 19 20  2  0  0  0  0
 19 21  1  0  0  0  0
 17 18  1  0  0  0  0
 13 14  1  0  0  0  0
 13 15  1  0  0  0  0
 13 16  1  0  0  0  0
 11 12  1  0  0  0  0
 11 13  1  0  0  0  0
 11 17  1  0  0  0  0
  9 10  1  0  0  0  0
  9 11  1  0  0  0  0
  9 19  1  0  0  0  0
  7  8  1  0  0  0  0
  7  9  1  0  0  0  0
 23 24  1  0  0  0  0
 23 25  1  0  0  0  0
 23 26  1  0  0  0  0
 21 22  1  0  0  0  0
 21 23  1  0  0  0  0
M  END
$$$$
default_name
  -OEChem-01062215323D

 26 25  0     1  0  0  0  0  0999 V2000
   -2.8882   -3.2497    1.2537 H   0  0  0  0  0  0  0  0  0  0  0  0
   -2.8032   -2.3157    0.7017 C   0  0  0  0  0  0  0  0  0  0  0  0
   -3.5012   -1.5857    1.1067 H   0  0  0  0  0  0  0  0  0  0  0  0
   -3.0182   -2.4907   -0.3513 H   0  0  0  0  0  0  0  0  0  0  0  0
   -1.3942   -1.7897    0.8407 C   0  0  0  0  0  0  0  0  0  0  0  0
   -0.5672   -2.4077    1.5007 O   0  0  0  0  0  0  0  0  0  0  0  0
   -1.1222   -0.6447    0.2217 N   0  0  0  0  0  0  0  0  0  0  0  0
   -1.8592   -0.1777   -0.2863 H   0  0  0  0  0  0  0  0  0  0  0  0
    0.1838    0.0363    0.2367 C   0  0  1  0  0  0  0  0  0  0  0  0
    0.2095    0.7593   -0.5778 H   0  0  0  0  0  0  0  0  0  0  0  0
    0.4162    0.8019    1.5556 C   0  0  1  0  0  0  0  0  0  0  0  0
    1.3948    1.2788    1.5053 H   0  0  0  0  0  0  0  0  0  0  0  0
   -0.6176    1.8912    1.8343 C   0  0  0  0  0  0  0  0  0  0  0  0
   -1.5959    1.4474    2.0229 H   0  0  0  0  0  0  0  0  0  0  0  0
   -0.3155    2.4741    2.7035 H   0  0  0  0  0  0  0  0  0  0  0  0
   -0.6910    2.5558    0.9729 H   0  0  0  0  0  0  0  0  0  0  0  0
    0.4054   -0.0735    2.6560 O   0  0  0  0  0  0  0  0  0  0  0  0
    0.4553    0.4539    3.4560 H   0  0  0  0  0  0  0  0  0  0  0  0
    1.3234   -0.9619   -0.0023 C   0  0  0  0  0  0  0  0  0  0  0  0
    2.0971   -0.8246   -0.9498 O   0  0  0  0  0  0  0  0  0  0  0  0
    1.4512   -1.9632    0.8795 N   0  0  0  0  0  0  0  0  0  0  0  0
    0.7989   -2.0103    1.6449 H   0  0  0  0  0  0  0  0  0  0  0  0
    2.4831   -2.9956    0.7956 C   0  0  0  0  0  0  0  0  0  0  0  0
    3.4673   -2.5288    0.7223 H   0  0  0  0  0  0  0  0  0  0  0  0
    2.4544   -3.6351    1.6780 H   0  0  0  0  0  0  0  0  0  0  0  0
    2.3222   -3.6043   -0.0967 H   0  0  0  0  0  0  0  0  0  0  0  0
  5  6  2  0  0  0  0
  5  7  1  0  0  0  0
  2  3  1  0  0  0  0
  2  4  1  0  0  0  0
  2  5  1  0  0  0  0
  1  2  1  0  0  0  0
 19 20  2  0  0  0  0
 19 21  1  0  0  0  0
 17 18  1  0  0  0  0
 13 14  1  0  0  0  0
 13 15  1  0  0  0  0
 13 16  1  0  0  0  0
 11 12  1  0  0  0  0
 11 13  1  0  0  0  0
 11 17  1  0  0  0  0
  9 10  1  0  0  0  0
  9 11  1  0  0  0  0
  9 19  1  0  0  0  0
  7  8  1  0  0  0  0
  7  9  1  0  0  0  0
 23 24  1  0  0  0  0
 23 25  1  0  0  0  0
 23 26  1  0  0  0  0
 21 22  1  0  0  0  0
 21 23  1  0  0  0  0
M  END
$$$$
default_name
  -OEChem-01062215323D

 26 25  0     1  0  0  0  0  0999 V2000
   -2.8882   -3.2497    1.2537 H   0  0  0  0  0  0  0  0  0  0  0  0
   -2.8032   -2.3157    0.7017 C   0  0  0  0  0  0  0  0  0  0  0  0
   -3.5012   -1.5857    1.1067 H   0  0  0  0  0  0  0  0  0  0  0  0
   -3.0182   -2.4907   -0.3513 H   0  0  0  0  0  0  0  0  0  0  0  0
   -1.3942   -1.7897    0.8407 C   0  0  0  0  0  0  0  0  0  0  0  0
   -0.5672   -2.4077    1.5007 O   0  0  0  0  0  0  0  0  0  0  0  0
   -1.1222   -0.6447    0.2217 N   0  0  0  0  0  0  0  0  0  0  0  0
   -1.8592   -0.1777   -0.2863 H   0  0  0  0  0  0  0  0  0  0  0  0
    0.1838    0.0363    0.2367 C   0  0  1  0  0  0  0  0  0  0  0  0
    0.2095    0.7593   -0.5778 H   0  0  0  0  0  0  0  0  0  0  0  0
    0.4162    0.8019    1.5556 C   0  0  1  0  0  0  0  0  0  0  0  0
    1.3948    1.2788    1.5053 H   0  0  0  0  0  0  0  0  0  0  0  0
   -0.6176    1.8912    1.8343 C   0  0  0  0  0  0  0  0  0  0  0  0
   -1.5959    1.4474    2.0229 H   0  0  0  0  0  0  0  0  0  0  0  0
   -0.3155    2.4741    2.7035 H   0  0  0  0  0  0  0  0  0  0  0  0
   -0.6910    2.5558    0.9729 H   0  0  0  0  0  0  0  0  0  0  0  0
    0.4054   -0.0735    2.6560 O   0  0  0  0  0  0  0  0  0  0  0  0
    0.4553    0.4539    3.4560 H   0  0  0  0  0  0  0  0  0  0  0  0
    1.3234   -0.9619   -0.0023 C   0  0  0  0  0  0  0  0  0  0  0  0
    2.2519   -0.6924   -0.7642 O   0  0  0  0  0  0  0  0  0  0  0  0
    1.2733   -2.1173    0.6752 N   0  0  0  0  0  0  0  0  0  0  0  0
    0.4979   -2.2710    1.2986 H   0  0  0  0  0  0  0  0  0  0  0  0
    2.2793   -3.1722    0.5617 C   0  0  0  0  0  0  0  0  0  0  0  0
    3.2723   -2.7567    0.7441 H   0  0  0  0  0  0  0  0  0  0  0  0
    2.0837   -3.9642    1.2848 H   0  0  0  0  0  0  0  0  0  0  0  0
    2.2602   -3.5913   -0.4466 H   0  0  0  0  0  0  0  0  0  0  0  0
  5  6  2  0  0  0  0
  5  7  1  0  0  0  0
  2  3  1  0  0  0  0
  2  4  1  0  0  0  0
  2  5  1  0  0  0  0
  1  2  1  0  0  0  0
 19 20  2  0  0  0  0
 19 21  1  0  0  0  0
 17 18  1  0  0  0  0
 13 14  1  0  0  0  0
 13 15  1  0  0  0  0
 13 16  1  0  0  0  0
 11 12  1  0  0  0  0
 11 13  1  0  0  0  0
 11 17  1  0  0  0  0
  9 10  1  0  0  0  0
  9 11  1  0  0  0  0
  9 19  1  0  0  0  0
  7  8  1  0  0  0  0
  7  9  1  0  0  0  0
 23 24  1  0  0  0  0
 23 25  1  0  0  0  0
 23 26  1  0  0  0  0
 21 22  1  0  0  0  0
 21 23  1  0  0  0  0
M  END
$$$$
default_name
  -OEChem-01062215323D

 26 25  0     1  0  0  0  0  0999 V2000
   -2.8882   -3.2497    1.2537 H   0  0  0  0  0  0  0  0  0  0  0  0
   -2.8032   -2.3157    0.7017 C   0  0  0  0  0  0  0  0  0  0  0  0
   -3.5012   -1.5857    1.1067 H   0  0  0  0  0  0  0  0  0  0  0  0
   -3.0182   -2.4907   -0.3513 H   0  0  0  0  0  0  0  0  0  0  0  0
   -1.3942   -1.7897    0.8407 C   0  0  0  0  0  0  0  0  0  0  0  0
   -0.5672   -2.4077    1.5007 O   0  0  0  0  0  0  0  0  0  0  0  0
   -1.1222   -0.6447    0.2217 N   0  0  0  0  0  0  0  0  0  0  0  0
   -1.8592   -0.1777   -0.2863 H   0  0  0  0  0  0  0  0  0  0  0  0
    0.1838    0.0363    0.2367 C   0  0  1  0  0  0  0  0  0  0  0  0
    0.2095    0.7593   -0.5778 H   0  0  0  0  0  0  0  0  0  0  0  0
    0.4162    0.8019    1.5556 C   0  0  1  0  0  0  0  0  0  0  0  0
    1.3948    1.2788    1.5053 H   0  0  0  0  0  0  0  0  0  0  0  0
   -0.6176    1.8912    1.8343 C   0  0  0  0  0  0  0  0  0  0  0  0
   -1.5959    1.4474    2.0229 H   0  0  0  0  0  0  0  0  0  0  0  0
   -0.3155    2.4741    2.7035 H   0  0  0  0  0  0  0  0  0  0  0  0
   -0.6910    2.5558    0.9729 H   0  0  0  0  0  0  0  0  0  0  0  0
    0.4054   -0.0735    2.6560 O   0  0  0  0  0  0  0  0  0  0  0  0
    0.4553    0.4539    3.4560 H   0  0  0  0  0  0  0  0  0  0  0  0
    1.3234   -0.9619   -0.0023 C   0  0  0  0  0  0  0  0  0  0  0  0
    2.3755   -0.6065   -0.5333 O   0  0  0  0  0  0  0  0  0  0  0  0
    1.1297   -2.2197    0.4182 N   0  0  0  0  0  0  0  0  0  0  0  0
    0.2550   -2.4441    0.8633 H   0  0  0  0  0  0  0  0  0  0  0  0
    2.1147   -3.2896    0.2675 C   0  0  0  0  0  0  0  0  0  0  0  0
    3.0711   -2.9732    0.6885 H   0  0  0  0  0  0  0  0  0  0  0  0
    1.7785   -4.1915    0.7793 H   0  0  0  0  0  0  0  0  0  0  0  0
    2.2597   -3.5090   -0.7925 H   0  0  0  0  0  0  0  0  0  0  0  0
  5  6  2  0  0  0  0
  5  7  1  0  0  0  0
  2  3  1  0  0  0  0
  2  4  1  0  0  0  0
  2  5  1  0  0  0  0
  1  2  1  0  0  0  0
 19 20  2  0  0  0  0
 19 21  1  0  0  0  0
 17 18  1  0  0  0  0
 13 14  1  0  0  0  0
 13 15  1  0  0  0  0
 13 16  1  0  0  0  0
 11 12  1  0  0  0  0
 11 13  1  0  0  0  0
 11 17  1  0  0  0  0
  9 10  1  0  0  0  0
  9 11  1  0  0  0  0
  9 19  1  0  0  0  0
  7  8  1  0  0  0  0
  7  9  1  0  0  0  0
 23 24  1  0  0  0  0
 23 25  1  0  0  0  0
 23 26  1  0  0  0  0
 21 22  1  0  0  0  0
 21 23  1  0  0  0  0
M  END
$$$$
default_name
  -OEChem-01062215323D

 26 25  0     1  0  0  0  0  0999 V2000
   -2.8882   -3.2497    1.2537 H   0  0  0  0  0  0  0  0  0  0  0  0
   -2.8032   -2.3157    0.7017 C   0  0  0  0  0  0  0  0  0  0  0  0
   -3.5012   -1.5857    1.1067 H   0  0  0  0  0  0  0  0  0  0  0  0
   -3.0182   -2.4907   -0.3513 H   0  0  0  0  0  0  0  0  0  0  0  0
   -1.3942   -1.7897    0.8407 C   0  0  0  0  0  0  0  0  0  0  0  0
   -0.5672   -2.4077    1.5007 O   0  0  0  0  0  0  0  0  0  0  0  0
   -1.1222   -0.6447    0.2217 N   0  0  0  0  0  0  0  0  0  0  0  0
   -1.8592   -0.1777   -0.2863 H   0  0  0  0  0  0  0  0  0  0  0  0
    0.1838    0.0363    0.2367 C   0  0  1  0  0  0  0  0  0  0  0  0
    0.2095    0.7593   -0.5778 H   0  0  0  0  0  0  0  0  0  0  0  0
    0.4162    0.8019    1.5556 C   0  0  1  0  0  0  0  0  0  0  0  0
    1.3948    1.2788    1.5053 H   0  0  0  0  0  0  0  0  0  0  0  0
   -0.6176    1.8912    1.8343 C   0  0  0  0  0  0  0  0  0  0  0  0
   -1.5959    1.4474    2.0229 H   0  0  0  0  0  0  0  0  0  0  0  0
   -0.3155    2.4741    2.7035 H   0  0  0  0  0  0  0  0  0  0  0  0
   -0.6910    2.5558    0.9729 H   0  0  0  0  0  0  0  0  0  0  0  0
    0.4054   -0.0735    2.6560 O   0  0  0  0  0  0  0  0  0  0  0  0
    0.4553    0.4539    3.4560 H   0  0  0  0  0  0  0  0  0  0  0  0
    1.3234   -0.9619   -0.0023 C   0  0  0  0  0  0  0  0  0  0  0  0
    2.4595   -0.5730   -0.2731 O   0  0  0  0  0  0  0  0  0  0  0  0
    1.0302   -2.2634    0.1261 N   0  0  0  0  0  0  0  0  0  0  0  0
    0.0868   -2.5177    0.3686 H   0  0  0  0  0  0  0  0  0  0  0  0
    2.0006   -3.3398   -0.0670 C   0  0  0  0  0  0  0  0  0  0  0  0
    2.8773   -3.1634    0.5593 H   0  0  0  0  0  0  0  0  0  0  0  0
    1.5598   -4.3016    0.1960 H   0  0  0  0  0  0  0  0  0  0  0  0
    2.3209   -3.3630   -1.1108 H   0  0  0  0  0  0  0  0  0  0  0  0
  5  6  2  0  0  0  0
  5  7  1  0  0  0  0
  2  3  1  0  0  0  0
  2  4  1  0  0  0  0
  2  5  1  0  0  0  0
  1  2  1  0  0  0  0
 19 20  2  0  0  0  0
 19 21  1  0  0  0  0
 17 18  1  0  0  0  0
 13 14  1  0  0  0  0
 13 15  1  0  0  0  0
 13 16  1  0  0  0  0
 11 12  1  0  0  0  0
 11 13  1  0  0  0  0
 11 17  1  0  0  0  0
  9 10  1  0  0  0  0
  9 11  1  0  0  0  0
  9 19  1  0  0  0  0
  7  8  1  0  0  0  0
  7  9  1  0  0  0  0
 23 24  1  0  0  0  0
 23 25  1  0  0  0  0
 23 26  1  0  0  0  0
 21 22  1  0  0  0  0
 21 23  1  0  0  0  0
M  END
$$$$
default_name
  -OEChem-01062215323D

 26 25  0     1  0  0  0  0  0999 V2000
   -2.8882   -3.2497    1.2537 H   0  0  0  0  0  0  0  0  0  0  0  0
   -2.8032   -2.3157    0.7017 C   0  0  0  0  0  0  0  0  0  0  0  0
   -3.5012   -1.5857    1.1067 H   0  0  0  0  0  0  0  0  0  0  0  0
   -3.0182   -2.4907   -0.3513 H   0  0  0  0  0  0  0  0  0  0  0  0
   -1.3942   -1.7897    0.8407 C   0  0  0  0  0  0  0  0  0  0  0  0
   -0.5672   -2.4077    1.5007 O   0  0  0  0  0  0  0  0  0  0  0  0
   -1.1222   -0.6447    0.2217 N   0  0  0  0  0  0  0  0  0  0  0  0
   -1.8592   -0.1777   -0.2863 H   0  0  0  0  0  0  0  0  0  0  0  0
    0.1838    0.0363    0.2367 C   0  0  1  0  0  0  0  0  0  0  0  0
    0.2095    0.7593   -0.5778 H   0  0  0  0  0  0  0  0  0  0  0  0
    0.4162    0.8019    1.5556 C   0  0  1  0  0  0  0  0  0  0  0  0
    1.3948    1.2788    1.5053 H   0  0  0  0  0  0  0  0  0  0  0  0
   -0.6176    1.8912    1.8343 C   0  0  0  0  0  0  0  0  0  0  0  0
   -1.5959    1.4474    2.0229 H   0  0  0  0  0  0  0  0  0  0  0  0
   -0.3155    2.4741    2.7035 H   0  0  0  0  0  0  0  0  0  0  0  0
   -0.6910    2.5558    0.9729 H   0  0  0  0  0  0  0  0  0  0  0  0
    0.4054   -0.0735    2.6560 O   0  0  0  0  0  0  0  0  0  0  0  0
    0.4553    0.4539    3.4560 H   0  0  0  0  0  0  0  0  0  0  0  0
    1.3234   -0.9619   -0.0023 C   0  0  0  0  0  0  0  0  0  0  0  0
    2.4981   -0.5940   -0.0010 O   0  0  0  0  0  0  0  0  0  0  0  0
    0.9814   -2.2455   -0.1812 N   0  0  0  0  0  0  0  0  0  0  0  0
    0.0046   -2.4870   -0.1518 H   0  0  0  0  0  0  0  0  0  0  0  0
    1.9447   -3.3194   -0.4190 C   0  0  0  0  0  0  0  0  0  0  0  0
    2.7042   -3.3145    0.3653 H   0  0  0  0  0  0  0  0  0  0  0  0
    1.4423   -4.2868   -0.4256 H   0  0  0  0  0  0  0  0  0  0  0  0
    2.4395   -3.1631   -1.3799 H   0  0  0  0  0  0  0  0  0  0  0  0
  5  6  2  0  0  0  0
  5  7  1  0  0  0  0
  2  3  1  0  0  0  0
  2  4  1  0  0  0  0
  2  5  1  0  0  0  0
  1  2  1  0  0  0  0
 19 20  2  0  0  0  0
 19 21  1  0  0  0  0
 17 18  1  0  0  0  0
 13 14  1  0  0  0  0
 13 15  1  0  0  0  0
 13 16  1  0  0  0  0
 11 12  1  0  0  0  0
 11 13  1  0  0  0  0
 11 17  1  0  0  0  0
  9 10  1  0  0  0  0
  9 11  1  0  0  0  0
  9 19  1  0  0  0  0
  7  8  1  0  0  0  0
  7  9  1  0  0  0  0
 23 24  1  0  0  0  0
 23 25  1  0  0  0  0
 23 26  1  0  0  0  0
 21 22  1  0  0  0  0
 21 23  1  0  0  0  0
M  END
$$$$
default_name
  -OEChem-01062215323D

 26 25  0     1  0  0  0  0  0999 V2000
   -2.8882   -3.2497    1.2537 H   0  0  0  0  0  0  0  0  0  0  0  0
   -2.8032   -2.3157    0.7017 C   0  0  0  0  0  0  0  0  0  0  0  0
   -3.5012   -1.5857    1.1067 H   0  0  0  0  0  0  0  0  0  0  0  0
   -3.0182   -2.4907   -0.3513 H   0  0  0  0  0  0  0  0  0  0  0  0
   -1.3942   -1.7897    0.8407 C   0  0  0  0  0  0  0  0  0  0  0  0
   -0.5672   -2.4077    1.5007 O   0  0  0  0  0  0  0  0  0  0  0  0
   -1.1222   -0.6447    0.2217 N   0  0  0  0  0  0  0  0  0  0  0  0
   -1.8592   -0.1777   -0.2863 H   0  0  0  0  0  0  0  0  0  0  0  0
    0.1838    0.0363    0.2367 C   0  0  1  0  0  0  0  0  0  0  0  0
    0.2095    0.7593   -0.5778 H   0  0  0  0  0  0  0  0  0  0  0  0
    0.4162    0.8019    1.5556 C   0  0  1  0  0  0  0  0  0  0  0  0
    1.3948    1.2788    1.5053 H   0  0  0  0  0  0  0  0  0  0  0  0
   -0.6176    1.8912    1.8343 C   0  0  0  0  0  0  0  0  0  0  0  0
   -1.5959    1.4474    2.0229 H   0  0  0  0  0  0  0  0  0  0  0  0
   -0.3155    2.4741    2.7035 H   0  0  0  0  0  0  0  0  0  0  0  0
   -0.6910    2.5558    0.9729 H   0  0  0  0  0  0  0  0  0  0  0  0
    0.4054   -0.0735    2.6560 O   0  0  0  0  0  0  0  0  0  0  0  0
    0.4553    0.4539    3.4560 H   0  0  0  0  0  0  0  0  0  0  0  0
    1.3234   -0.9619   -0.0023 C   0  0  0  0  0  0  0  0  0  0  0  0
    2.4887   -0.6682    0.2642 O   0  0  0  0  0  0  0  0  0  0  0  0
    0.9869   -2.1670   -0.4828 N   0  0  0  0  0  0  0  0  0  0  0  0
    0.0141   -2.3539   -0.6623 H   0  0  0  0  0  0  0  0  0  0  0  0
    1.9508   -3.2297   -0.7645 C   0  0  0  0  0  0  0  0  0  0  0  0
    2.5637   -3.4162    0.1196 H   0  0  0  0  0  0  0  0  0  0  0  0
    1.4341   -4.1484   -1.0429 H   0  0  0  0  0  0  0  0  0  0  0  0
    2.6074   -2.9231   -1.5815 H   0  0  0  0  0  0  0  0  0  0  0  0
  5  6  2  0  0  0  0
  5  7  1  0  0  0  0
  2  3  1  0  0  0  0
  2  4  1  0  0  0  0
  2  5  1  0  0  0  0
  1  2  1  0  0  0  0
 19 20  2  0  0  0  0
 19 21  1  0  0  0  0
 17 18  1  0  0  0  0
 13 14  1  0  0  0  0
 13 15  1  0  0  0  0
 13 16  1  0  0  0  0
 11 12  1  0  0  0  0
 11 13  1  0  0  0  0
 11 17  1  0  0  0  0
  9 10  1  0  0  0  0
  9 11  1  0  0  0  0
  9 19  1  0  0  0  0
  7  8  1  0  0  0  0
  7  9  1  0  0  0  0
 23 24  1  0  0  0  0
 23 25  1  0  0  0  0
 23 26  1  0  0  0  0
 21 22  1  0  0  0  0
 21 23  1  0  0  0  0
M  END
$$$$
default_name
  -OEChem-01062215323D

 26 25  0     1  0  0  0  0  0999 V2000
   -2.8882   -3.2497    1.2537 H   0  0  0  0  0  0  0  0  0  0  0  0
   -2.8032   -2.3157    0.7017 C   0  0  0  0  0  0  0  0  0  0  0  0
   -3.5012   -1.5857    1.1067 H   0  0  0  0  0  0  0  0  0  0  0  0
   -3.0182   -2.4907   -0.3513 H   0  0  0  0  0  0  0  0  0  0  0  0
   -1.3942   -1.7897    0.8407 C   0  0  0  0  0  0  0  0  0  0  0  0
   -0.5672   -2.4077    1.5007 O   0  0  0  0  0  0  0  0  0  0  0  0
   -1.1222   -0.6447    0.2217 N   0  0  0  0  0  0  0  0  0  0  0  0
   -1.8592   -0.1777   -0.2863 H   0  0  0  0  0  0  0  0  0  0  0  0
    0.1838    0.0363    0.2367 C   0  0  1  0  0  0  0  0  0  0  0  0
    0.2095    0.7593   -0.5778 H   0  0  0  0  0  0  0  0  0  0  0  0
    0.4162    0.8019    1.5556 C   0  0  1  0  0  0  0  0  0  0  0  0
    1.3948    1.2788    1.5053 H   0  0  0  0  0  0  0  0  0  0  0  0
   -0.6176    1.8912    1.8343 C   0  0  0  0  0  0  0  0  0  0  0  0
   -1.5959    1.4474    2.0229 H   0  0  0  0  0  0  0  0  0  0  0  0
   -0.3155    2.4741    2.7035 H   0  0  0  0  0  0  0  0  0  0  0  0
   -0.6910    2.5558    0.9729 H   0  0  0  0  0  0  0  0  0  0  0  0
    0.4054   -0.0735    2.6560 O   0  0  0  0  0  0  0  0  0  0  0  0
    0.4553    0.4539    3.4560 H   0  0  0  0  0  0  0  0  0  0  0  0
    1.3234   -0.9619   -0.0023 C   0  0  0  0  0  0  0  0  0  0  0  0
    2.4320   -0.7905    0.5045 O   0  0  0  0  0  0  0  0  0  0  0  0
    1.0461   -2.0335   -0.7581 N   0  0  0  0  0  0  0  0  0  0  0  0
    0.1146   -2.1275   -1.1283 H   0  0  0  0  0  0  0  0  0  0  0  0
    2.0185   -3.0768   -1.0799 C   0  0  0  0  0  0  0  0  0  0  0  0
    2.4652   -3.4615   -0.1609 H   0  0  0  0  0  0  0  0  0  0  0  0
    1.5358   -3.8955   -1.6139 H   0  0  0  0  0  0  0  0  0  0  0  0
    2.8133   -2.6593   -1.7017 H   0  0  0  0  0  0  0  0  0  0  0  0
  5  6  2  0  0  0  0
  5  7  1  0  0  0  0
  2  3  1  0  0  0  0
  2  4  1  0  0  0  0
  2  5  1  0  0  0  0
  1  2  1  0  0  0  0
 19 20  2  0  0  0  0
 19 21  1  0  0  0  0
 17 18  1  0  0  0  0
 13 14  1  0  0  0  0
 13 15  1  0  0  0  0
 13 16  1  0  0  0  0
 11 12  1  0  0  0  0
 11 13  1  0  0  0  0
 11 17  1  0  0  0  0
  9 10  1  0  0  0  0
  9 11  1  0  0  0  0
  9 19  1  0  0  0  0
  7  8  1  0  0  0  0
  7  9  1  0  0  0  0
 23 24  1  0  0  0  0
 23 25  1  0  0  0  0
 23 26  1  0  0  0  0
 21 22  1  0  0  0  0
 21 23  1  0  0  0  0
M  END
$$$$
default_name
  -OEChem-01062215323D

 26 25  0     1  0  0  0  0  0999 V2000
   -2.8882   -3.2497    1.2537 H   0  0  0  0  0  0  0  0  0  0  0  0
   -2.8032   -2.3157    0.7017 C   0  0  0  0  0  0  0  0  0  0  0  0
   -3.5012   -1.5857    1.1067 H   0  0  0  0  0  0  0  0  0  0  0  0
   -3.0182   -2.4907   -0.3513 H   0  0  0  0  0  0  0  0  0  0  0  0
   -1.3942   -1.7897    0.8407 C   0  0  0  0  0  0  0  0  0  0  0  0
   -0.5672   -2.4077    1.5007 O   0  0  0  0  0  0  0  0  0  0  0  0
   -1.1222   -0.6447    0.2217 N   0  0  0  0  0  0  0  0  0  0  0  0
   -1.8592   -0.1777   -0.2863 H   0  0  0  0  0  0  0  0  0  0  0  0
    0.1838    0.0363    0.2367 C   0  0  1  0  0  0  0  0  0  0  0  0
    0.2095    0.7593   -0.5778 H   0  0  0  0  0  0  0  0  0  0  0  0
    0.4162    0.8019    1.5556 C   0  0  1  0  0  0  0  0  0  0  0  0
    1.3948    1.2788    1.5053 H   0  0  0  0  0  0  0  0  0  0  0  0
   -0.6176    1.8912    1.8343 C   0  0  0  0  0  0  0  0  0  0  0  0
   -1.5959    1.4474    2.0229 H   0  0  0  0  0  0  0  0  0  0  0  0
   -0.3155    2.4741    2.7035 H   0  0  0  0  0  0  0  0  0  0  0  0
   -0.6910    2.5558    0.9729 H   0  0  0  0  0  0  0  0  0  0  0  0
    0.4054   -0.0735    2.6560 O   0  0  0  0  0  0  0  0  0  0  0  0
    0.4553    0.4539    3.4560 H   0  0  0  0  0  0  0  0  0  0  0  0
    1.3234   -0.9619   -0.0023 C   0  0  0  0  0  0  0  0  0  0  0  0
    2.3318   -0.9526    0.7036 O   0  0  0  0  0  0  0  0  0  0  0  0
    1.1551   -1.8539   -0.9884 N   0  0  0  0  0  0  0  0  0  0  0  0
    0.2994   -1.8233   -1.5179 H   0  0  0  0  0  0  0  0  0  0  0  0
    2.1432   -2.8713   -1.3438 C   0  0  0  0  0  0  0  0  0  0  0  0
    2.4154   -3.4473   -0.4571 H   0  0  0  0  0  0  0  0  0  0  0  0
    1.7404   -3.5456   -2.0997 H   0  0  0  0  0  0  0  0  0  0  0  0
    3.0430   -2.3897   -1.7324 H   0  0  0  0  0  0  0  0  0  0  0  0
  5  6  2  0  0  0  0
  5  7  1  0  0  0  0
  2  3  1  0  0  0  0
  2  4  1  0  0  0  0
  2  5  1  0  0  0  0
  1  2  1  0  0  0  0
 19 20  2  0  0  0  0
 19 21  1  0  0  0  0
 17 18  1  0  0  0  0
 13 14  1  0  0  0  0
 13 15  1  0  0  0  0
 13 16  1  0  0  0  0
 11 12  1  0  0  0  0
 11 13  1  0  0  0  0
 11 17  1  0  0  0  0
  9 10  1  0  0  0  0
  9 11  1  0  0  0  0
  9 19  1  0  0  0  0
  7  8  1  0  0  0  0
  7  9  1  0  0  0  0
 23 24  1  0  0  0  0
 23 25  1  0  0  0  0
 23 26  1  0  0  0  0
 21 22  1  0  0  0  0
 21 23  1  0  0  0  0
M  END
$$$$
default_name
  -OEChem-01062215323D

 26 25  0     1  0  0  0  0  0999 V2000
   -2.8882   -3.2497    1.2537 H   0  0  0  0  0  0  0  0  0  0  0  0
   -2.8032   -2.3157    0.7017 C   0  0  0  0  0  0  0  0  0  0  0  0
   -3.5012   -1.5857    1.1067 H   0  0  0  0  0  0  0  0  0  0  0  0
   -3.0182   -2.4907   -0.3513 H   0  0  0  0  0  0  0  0  0  0  0  0
   -1.3942   -1.7897    0.8407 C   0  0  0  0  0  0  0  0  0  0  0  0
   -0.5672   -2.4077    1.5007 O   0  0  0  0  0  0  0  0  0  0  0  0
   -1.1222   -0.6447    0.2217 N   0  0  0  0  0  0  0  0  0  0  0  0
   -1.8592   -0.1777   -0.2863 H   0  0  0  0  0  0  0  0  0  0  0  0
    0.1838    0.0363    0.2367 C   0  0  1  0  0  0  0  0  0  0  0  0
    0.2095    0.7593   -0.5778 H   0  0  0  0  0  0  0  0  0  0  0  0
    0.4162    0.8019    1.5556 C   0  0  1  0  0  0  0  0  0  0  0  0
    1.3948    1.2788    1.5053 H   0  0  0  0  0  0  0  0  0  0  0  0
   -0.6176    1.8912    1.8343 C   0  0  0  0  0  0  0  0  0  0  0  0
   -1.5959    1.4474    2.0229 H   0  0  0  0  0  0  0  0  0  0  0  0
   -0.3155    2.4741    2.7035 H   0  0  0  0  0  0  0  0  0  0  0  0
   -0.6910    2.5558    0.9729 H   0  0  0  0  0  0  0  0  0  0  0  0
    0.4054   -0.0735    2.6560 O   0  0  0  0  0  0  0  0  0  0  0  0
    0.4553    0.4539    3.4560 H   0  0  0  0  0  0  0  0  0  0  0  0
    1.3234   -0.9619   -0.0023 C   0  0  0  0  0  0  0  0  0  0  0  0
    2.1949   -1.1434    0.8478 O   0  0  0  0  0  0  0  0  0  0  0  0
    1.3064   -1.6406   -1.1580 N   0  0  0  0  0  0  0  0  0  0  0  0
    0.5557   -1.4619   -1.8046 H   0  0  0  0  0  0  0  0  0  0  0  0
    2.3164   -2.6270   -1.5381 C   0  0  0  0  0  0  0  0  0  0  0  0
    2.4179   -3.3746   -0.7490 H   0  0  0  0  0  0  0  0  0  0  0  0
    2.0339   -3.1225   -2.4672 H   0  0  0  0  0  0  0  0  0  0  0  0
    3.2810   -2.1326   -1.6716 H   0  0  0  0  0  0  0  0  0  0  0  0
  5  6  2  0  0  0  0
  5  7  1  0  0  0  0
  2  3  1  0  0  0  0
  2  4  1  0  0  0  0
  2  5  1  0  0  0  0
  1  2  1  0  0  0  0
 19 20  2  0  0  0  0
 19 21  1  0  0  0  0
 17 18  1  0  0  0  0
 13 14  1  0  0  0  0
 13 15  1  0  0  0  0
 13 16  1  0  0  0  0
 11 12  1  0  0  0  0
 11 13  1  0  0  0  0
 11 17  1  0  0  0  0
  9 10  1  0  0  0  0
  9 11  1  0  0  0  0
  9 19  1  0  0  0  0
  7  8  1  0  0  0  0
  7  9  1  0  0  0  0
 23 24  1  0  0  0  0
 23 25  1  0  0  0  0
 23 26  1  0  0  0  0
 21 22  1  0  0  0  0
 21 23  1  0  0  0  0
M  END
$$$$
default_name
  -OEChem-01062215323D

 26 25  0     1  0  0  0  0  0999 V2000
   -2.8882   -3.2497    1.2537 H   0  0  0  0  0  0  0  0  0  0  0  0
   -2.8032   -2.3157    0.7017 C   0  0  0  0  0  0  0  0  0  0  0  0
   -3.5012   -1.5857    1.1067 H   0  0  0  0  0  0  0  0  0  0  0  0
   -3.0182   -2.4907   -0.3513 H   0  0  0  0  0  0  0  0  0  0  0  0
   -1.3942   -1.7897    0.8407 C   0  0  0  0  0  0  0  0  0  0  0  0
   -0.5672   -2.4077    1.5007 O   0  0  0  0  0  0  0  0  0  0  0  0
   -1.1222   -0.6447    0.2217 N   0  0  0  0  0  0  0  0  0  0  0  0
   -1.8592   -0.1777   -0.2863 H   0  0  0  0  0  0  0  0  0  0  0  0
    0.1838    0.0363    0.2367 C   0  0  1  0  0  0  0  0  0  0  0  0
    0.2095    0.7593   -0.5778 H   0  0  0  0  0  0  0  0  0  0  0  0
    0.4162    0.8019    1.5556 C   0  0  1  0  0  0  0  0  0  0  0  0
    1.3948    1.2788    1.5053 H   0  0  0  0  0  0  0  0  0  0  0  0
   -0.6176    1.8912    1.8343 C   0  0  0  0  0  0  0  0  0  0  0  0
   -1.5959    1.4474    2.0229 H   0  0  0  0  0  0  0  0  0  0  0  0
   -0.3155    2.4741    2.7035 H   0  0  0  0  0  0  0  0  0  0  0  0
   -0.6910    2.5558    0.9729 H   0  0  0  0  0  0  0  0  0  0  0  0
    0.4054   -0.0735    2.6560 O   0  0  0  0  0  0  0  0  0  0  0  0
    0.4553    0.4539    3.4560 H   0  0  0  0  0  0  0  0  0  0  0  0
    1.3234   -0.9619   -0.0023 C   0  0  0  0  0  0  0  0  0  0  0  0
    2.0308   -1.3499    0.9274 O   0  0  0  0  0  0  0  0  0  0  0  0
    1.4896   -1.4081   -1.2552 N   0  0  0  0  0  0  0  0  0  0  0  0
    0.8662   -1.0681   -1.9688 H   0  0  0  0  0  0  0  0  0  0  0  0
    2.5263   -2.3607   -1.6497 C   0  0  0  0  0  0  0  0  0  0  0  0
    2.4723   -3.2484   -1.0164 H   0  0  0  0  0  0  0  0  0  0  0  0
    2.3965   -2.6549   -2.6913 H   0  0  0  0  0  0  0  0  0  0  0  0
    3.5109   -1.9056   -1.5232 H   0  0  0  0  0  0  0  0  0  0  0  0
  5  6  2  0  0  0  0
  5  7  1  0  0  0  0
  2  3  1  0  0  0  0
  2  4  1  0  0  0  0
  2  5  1  0  0  0  0
  1  2  1  0  0  0  0
 19 20  2  0  0  0  0
 19 21  1  0  0  0  0
 17 18  1  0  0  0  0
 13 14  1  0  0  0  0
 13 15  1  0  0  0  0
 13 16  1  0  0  0  0
 11 12  1  0  0  0  0
 11 13  1  0  0  0  0
 11 17  1  0  0  0  0
  9 10  1  0  0  0  0
  9 11  1  0  0  0  0
  9 19  1  0  0  0  0
  7  8  1  0  0  0  0
  7  9  1  0  0  0  0
 23 24  1  0  0  0  0
 23 25  1  0  0  0  0
 23 26  1  0  0  0  0
 21 22  1  0  0  0  0
 21 23  1  0  0  0  0
M  END
$$$$
default_name
  -OEChem-01062215323D

 26 25  0     1  0  0  0  0  0999 V2000
   -2.8882   -3.2497    1.2537 H   0  0  0  0  0  0  0  0  0  0  0  0
   -2.8032   -2.3157    0.7017 C   0  0  0  0  0  0  0  0  0  0  0  0
   -3.5012   -1.5857    1.1067 H   0  0  0  0  0  0  0  0  0  0  0  0
   -3.0182   -2.4907   -0.3513 H   0  0  0  0  0  0  0  0  0  0  0  0
   -1.3942   -1.7897    0.8407 C   0  0  0  0  0  0  0  0  0  0  0  0
   -0.5672   -2.4077    1.5007 O   0  0  0  0  0  0  0  0  0  0  0  0
   -1.1222   -0.6447    0.2217 N   0  0  0  0  0  0  0  0  0  0  0  0
   -1.8592   -0.1777   -0.2863 H   0  0  0  0  0  0  0  0  0  0  0  0
    0.1838    0.0363    0.2367 C   0  0  1  0  0  0  0  0  0  0  0  0
    0.2095    0.7593   -0.5778 H   0  0  0  0  0  0  0  0  0  0  0  0
    0.4162    0.8019    1.5556 C   0  0  1  0  0  0  0  0  0  0  0  0
    1.3948    1.2788    1.5053 H   0  0  0  0  0  0  0  0  0  0  0  0
   -0.6176    1.8912    1.8343 C   0  0  0  0  0  0  0  0  0  0  0  0
   -1.5959    1.4474    2.0229 H   0  0  0  0  0  0  0  0  0  0  0  0
   -0.3155    2.4741    2.7035 H   0  0  0  0  0  0  0  0  0  0  0  0
   -0.6910    2.5558    0.9729 H   0  0  0  0  0  0  0  0  0  0  0  0
    0.4054   -0.0735    2.6560 O   0  0  0  0  0  0  0  0  0  0  0  0
    0.4553    0.4539    3.4560 H   0  0  0  0  0  0  0  0  0  0  0  0
    1.3234   -0.9619   -0.0023 C   0  0  0  0  0  0  0  0  0  0  0  0
    1.8504   -1.5580    0.9369 O   0  0  0  0  0  0  0  0  0  0  0  0
    1.6925   -1.1721   -1.2736 N   0  0  0  0  0  0  0  0  0  0  0  0
    1.2097   -0.6686   -1.9995 H   0  0  0  0  0  0  0  0  0  0  0  0
    2.7585   -2.0904   -1.6709 C   0  0  0  0  0  0  0  0  0  0  0  0
    2.5751   -3.0773   -1.2414 H   0  0  0  0  0  0  0  0  0  0  0  0
    2.8033   -2.1748   -2.7568 H   0  0  0  0  0  0  0  0  0  0  0  0
    3.7172   -1.7241   -1.2976 H   0  0  0  0  0  0  0  0  0  0  0  0
  5  6  2  0  0  0  0
  5  7  1  0  0  0  0
  2  3  1  0  0  0  0
  2  4  1  0  0  0  0
  2  5  1  0  0  0  0
  1  2  1  0  0  0  0
 19 20  2  0  0  0  0
 19 21  1  0  0  0  0
 17 18  1  0  0  0  0
 13 14  1  0  0  0  0
 13 15  1  0  0  0  0
 13 16  1  0  0  0  0
 11 12  1  0  0  0  0
 11 13  1  0  0  0  0
 11 17  1  0  0  0  0
  9 10  1  0  0  0  0
  9 11  1  0  0  0  0
  9 19  1  0  0  0  0
  7  8  1  0  0  0  0
  7  9  1  0  0  0  0
 23 24  1  0  0  0  0
 23 25  1  0  0  0  0
 23 26  1  0  0  0  0
 21 22  1  0  0  0  0
 21 23  1  0  0  0  0
M  END
$$$$
default_name
  -OEChem-01062215323D

 26 25  0     1  0  0  0  0  0999 V2000
   -2.8882   -3.2497    1.2537 H   0  0  0  0  0  0  0  0  0  0  0  0
   -2.8032   -2.3157    0.7017 C   0  0  0  0  0  0  0  0  0  0  0  0
   -3.5012   -1.5857    1.1067 H   0  0  0  0  0  0  0  0  0  0  0  0
   -3.0182   -2.4907   -0.3513 H   0  0  0  0  0  0  0  0  0  0  0  0
   -1.3942   -1.7897    0.8407 C   0  0  0  0  0  0  0  0  0  0  0  0
   -0.5672   -2.4077    1.5007 O   0  0  0  0  0  0  0  0  0  0  0  0
   -1.1222   -0.6447    0.2217 N   0  0  0  0  0  0  0  0  0  0  0  0
   -1.8592   -0.1777   -0.2863 H   0  0  0  0  0  0  0  0  0  0  0  0
    0.1838    0.0363    0.2367 C   0  0  1  0  0  0  0  0  0  0  0  0
    0.2095    0.7593   -0.5778 H   0  0  0  0  0  0  0  0  0  0  0  0
    0.4162    0.8019    1.5556 C   0  0  1  0  0  0  0  0  0  0  0  0
    1.3948    1.2788    1.5053 H   0  0  0  0  0  0  0  0  0  0  0  0
   -0.6176    1.8912    1.8343 C   0  0  0  0  0  0  0  0  0  0  0  0
   -1.5959    1.4474    2.0229 H   0  0  0  0  0  0  0  0  0  0  0  0
   -0.3155    2.4741    2.7035 H   0  0  0  0  0  0  0  0  0  0  0  0
   -0.6910    2.5558    0.9729 H   0  0  0  0  0  0  0  0  0  0  0  0
    0.4054   -0.0735    2.6560 O   0  0  0  0  0  0  0  0  0  0  0  0
    0.4553    0.4539    3.4560 H   0  0  0  0  0  0  0  0  0  0  0  0
    1.3234   -0.9619   -0.0023 C   0  0  0  0  0  0  0  0  0  0  0  0
    1.6663   -1.7536    0.8756 O   0  0  0  0  0  0  0  0  0  0  0  0
    1.9010   -0.9489   -1.2117 N   0  0  0  0  0  0  0  0  0  0  0  0
    1.5627   -0.2908   -1.8944 H   0  0  0  0  0  0  0  0  0  0  0  0
    2.9974   -1.8347   -1.6003 C   0  0  0  0  0  0  0  0  0  0  0  0
    2.7191   -2.8728   -1.4084 H   0  0  0  0  0  0  0  0  0  0  0  0
    3.2266   -1.7148   -2.6593 H   0  0  0  0  0  0  0  0  0  0  0  0
    3.8858   -1.6005   -1.0099 H   0  0  0  0  0  0  0  0  0  0  0  0
  5  6  2  0  0  0  0
  5  7  1  0  0  0  0
  2  3  1  0  0  0  0
  2  4  1  0  0  0  0
  2  5  1  0  0  0  0
  1  2  1  0  0  0  0
 19 20  2  0  0  0  0
 19 21  1  0  0  0  0
 17 18  1  0  0  0  0
 13 14  1  0  0  0  0
 13 15  1  0  0  0  0
 13 16  1  0  0  0  0
 11 12  1  0  0  0  0
 11 13  1  0  0  0  0
 11 17  1  0  0  0  0
  9 10  1  0  0  0  0
  9 11  1  0  0  0  0
  9 19  1  0  0  0  0
  7  8  1  0  0  0  0
  7  9  1  0  0  0  0
 23 24  1  0  0  0  0
 23 25  1  0  0  0  0
 23 26  1  0  0  0  0
 21 22  1  0  0  0  0
 21 23  1  0  0  0  0
M  END
$$$$
default_name
  -OEChem-01062215323D

 26 25  0     1  0  0  0  0  0999 V2000
   -2.8882   -3.2497    1.2537 H   0  0  0  0  0  0  0  0  0  0  0  0
   -2.8032   -2.3157    0.7017 C   0  0  0  0  0  0  0  0  0  0  0  0
   -3.5012   -1.5857    1.1067 H   0  0  0  0  0  0  0  0  0  0  0  0
   -3.0182   -2.4907   -0.3513 H   0  0  0  0  0  0  0  0  0  0  0  0
   -1.3942   -1.7897    0.8407 C   0  0  0  0  0  0  0  0  0  0  0  0
   -0.5672   -2.4077    1.5007 O   0  0  0  0  0  0  0  0  0  0  0  0
   -1.1222   -0.6447    0.2217 N   0  0  0  0  0  0  0  0  0  0  0  0
   -1.8592   -0.1777   -0.2863 H   0  0  0  0  0  0  0  0  0  0  0  0
    0.1838    0.0363    0.2367 C   0  0  1  0  0  0  0  0  0  0  0  0
    0.2095    0.7593   -0.5778 H   0  0  0  0  0  0  0  0  0  0  0  0
    0.4162    0.8019    1.5556 C   0  0  1  0  0  0  0  0  0  0  0  0
    1.3948    1.2788    1.5053 H   0  0  0  0  0  0  0  0  0  0  0  0
   -0.6176    1.8912    1.8343 C   0  0  0  0  0  0  0  0  0  0  0  0
   -1.5959    1.4474    2.0229 H   0  0  0  0  0  0  0  0  0  0  0  0
   -0.3155    2.4741    2.7035 H   0  0  0  0  0  0  0  0  0  0  0  0
   -0.6910    2.5558    0.9729 H   0  0  0  0  0  0  0  0  0  0  0  0
    0.4054   -0.0735    2.6560 O   0  0  0  0  0  0  0  0  0  0  0  0
    0.4553    0.4539    3.4560 H   0  0  0  0  0  0  0  0  0  0  0  0
    1.3234   -0.9619   -0.0023 C   0  0  0  0  0  0  0  0  0  0  0  0
    1.4908   -1.9234    0.7478 O   0  0  0  0  0  0  0  0  0  0  0  0
    2.1010   -0.7535   -1.0740 N   0  0  0  0  0  0  0  0  0  0  0  0
    1.9013    0.0398   -1.6607 H   0  0  0  0  0  0  0  0  0  0  0  0
    3.2265   -1.6108   -1.4426 C   0  0  0  0  0  0  0  0  0  0  0  0
    2.8946   -2.6490   -1.5062 H   0  0  0  0  0  0  0  0  0  0  0  0
    3.6377   -1.3064   -2.4052 H   0  0  0  0  0  0  0  0  0  0  0  0
    4.0052   -1.5432   -0.6799 H   0  0  0  0  0  0  0  0  0  0  0  0
  5  6  2  0  0  0  0
  5  7  1  0  0  0  0
  2  3  1  0  0  0  0
  2  4  1  0  0  0  0
  2  5  1  0  0  0  0
  1  2  1  0  0  0  0
 19 20  2  0  0  0  0
 19 21  1  0  0  0  0
 17 18  1  0  0  0  0
 13 14  1  0  0  0  0
 13 15  1  0  0  0  0
 13 16  1  0  0  0  0
 11 12  1  0  0  0  0
 11 13  1  0  0  0  0
 11 17  1  0  0  0  0
  9 10  1  0  0  0  0
  9 11  1  0  0  0  0
  9 19  1  0  0  0  0
  7  8  1  0  0  0  0
  7  9  1  0  0  0  0
 23 24  1  0  0  0  0
 23 25  1  0  0  0  0
 23 26  1  0  0  0  0
 21 22  1  0  0  0  0
 21 23  1  0  0  0  0
M  END
$$$$
default_name
  -OEChem-01062215323D

 26 25  0     1  0  0  0  0  0999 V2000
   -2.8882   -3.2497    1.2537 H   0  0  0  0  0  0  0  0  0  0  0  0
   -2.8032   -2.3157    0.7017 C   0  0  0  0  0  0  0  0  0  0  0  0
   -3.5012   -1.5857    1.1067 H   0  0  0  0  0  0  0  0  0  0  0  0
   -3.0182   -2.4907   -0.3513 H   0  0  0  0  0  0  0  0  0  0  0  0
   -1.3942   -1.7897    0.8407 C   0  0  0  0  0  0  0  0  0  0  0  0
   -0.5672   -2.4077    1.5007 O   0  0  0  0  0  0  0  0  0  0  0  0
   -1.1222   -0.6447    0.2217 N   0  0  0  0  0  0  0  0  0  0  0  0
   -1.8592   -0.1777   -0.2863 H   0  0  0  0  0  0  0  0  0  0  0  0
    0.1838    0.0363    0.2367 C   0  0  1  0  0  0  0  0  0  0  0  0
    0.2095    0.7593   -0.5778 H   0  0  0  0  0  0  0  0  0  0  0  0
    0.4162    0.8019    1.5556 C   0  0  1  0  0  0  0  0  0  0  0  0
    1.3948    1.2788    1.5053 H   0  0  0  0  0  0  0  0  0  0  0  0
   -0.6176    1.8912    1.8343 C   0  0  0  0  0  0  0  0  0  0  0  0
   -1.5959    1.4474    2.0229 H   0  0  0  0  0  0  0  0  0  0  0  0
   -0.3155    2.4741    2.7035 H   0  0  0  0  0  0  0  0  0  0  0  0
   -0.6910    2.5558    0.9729 H   0  0  0  0  0  0  0  0  0  0  0  0
    0.4054   -0.0735    2.6560 O   0  0  0  0  0  0  0  0  0  0  0  0
    0.4553    0.4539    3.4560 H   0  0  0  0  0  0  0  0  0  0  0  0
    1.3234   -0.9619   -0.0023 C   0  0  0  0  0  0  0  0  0  0  0  0
    1.3360   -2.0557    0.5622 O   0  0  0  0  0  0  0  0  0  0  0  0
    2.2788   -0.5994   -0.8697 N   0  0  0  0  0  0  0  0  0  0  0  0
    2.2023    0.3005   -1.3144 H   0  0  0  0  0  0  0  0  0  0  0  0
    3.4303   -1.4342   -1.2087 C   0  0  0  0  0  0  0  0  0  0  0  0
    3.0896   -2.4212   -1.5280 H   0  0  0  0  0  0  0  0  0  0  0  0
    4.0084   -0.9773   -2.0121 H   0  0  0  0  0  0  0  0  0  0  0  0
    4.0672   -1.5562   -0.3300 H   0  0  0  0  0  0  0  0  0  0  0  0
  5  6  2  0  0  0  0
  5  7  1  0  0  0  0
  2  3  1  0  0  0  0
  2  4  1  0  0  0  0
  2  5  1  0  0  0  0
  1  2  1  0  0  0  0
 19 20  2  0  0  0  0
 19 21  1  0  0  0  0
 17 18  1  0  0  0  0
 13 14  1  0  0  0  0
 13 15  1  0  0  0  0
 13 16  1  0  0  0  0
 11 12  1  0  0  0  0
 11 13  1  0  0  0  0
 11 17  1  0  0  0  0
  9 10  1  0  0  0  0
  9 11  1  0  0  0  0
  9 19  1  0  0  0  0
  7  8  1  0  0  0  0
  7  9  1  0  0  0  0
 23 24  1  0  0  0  0
 23 25  1  0  0  0  0
 23 26  1  0  0  0  0
 21 22  1  0  0  0  0
 21 23  1  0  0  0  0
M  END
$$$$
default_name
  -OEChem-01062215323D

 26 25  0     1  0  0  0  0  0999 V2000
   -2.8882   -3.2497    1.2537 H   0  0  0  0  0  0  0  0  0  0  0  0
   -2.8032   -2.3157    0.7017 C   0  0  0  0  0  0  0  0  0  0  0  0
   -3.5012   -1.5857    1.1067 H   0  0  0  0  0  0  0  0  0  0  0  0
   -3.0182   -2.4907   -0.3513 H   0  0  0  0  0  0  0  0  0  0  0  0
   -1.3942   -1.7897    0.8407 C   0  0  0  0  0  0  0  0  0  0  0  0
   -0.5672   -2.4077    1.5007 O   0  0  0  0  0  0  0  0  0  0  0  0
   -1.1222   -0.6447    0.2217 N   0  0  0  0  0  0  0  0  0  0  0  0
   -1.8592   -0.1777   -0.2863 H   0  0  0  0  0  0  0  0  0  0  0  0
    0.1838    0.0363    0.2367 C   0  0  1  0  0  0  0  0  0  0  0  0
    0.2095    0.7593   -0.5778 H   0  0  0  0  0  0  0  0  0  0  0  0
    0.4162    0.8019    1.5556 C   0  0  1  0  0  0  0  0  0  0  0  0
    1.3948    1.2788    1.5053 H   0  0  0  0  0  0  0  0  0  0  0  0
   -0.6176    1.8912    1.8343 C   0  0  0  0  0  0  0  0  0  0  0  0
   -1.5959    1.4474    2.0229 H   0  0  0  0  0  0  0  0  0  0  0  0
   -0.3155    2.4741    2.7035 H   0  0  0  0  0  0  0  0  0  0  0  0
   -0.6910    2.5558    0.9729 H   0  0  0  0  0  0  0  0  0  0  0  0
    0.4054   -0.0735    2.6560 O   0  0  0  0  0  0  0  0  0  0  0  0
    0.4553    0.4539    3.4560 H   0  0  0  0  0  0  0  0  0  0  0  0
    1.3234   -0.9619   -0.0023 C   0  0  0  0  0  0  0  0  0  0  0  0
    1.2124   -2.1415    0.3314 O   0  0  0  0  0  0  0  0  0  0  0  0
    2.4224   -0.4970   -0.6127 N   0  0  0  0  0  0  0  0  0  0  0  0
    2.4452    0.4736   -0.8791 H   0  0  0  0  0  0  0  0  0  0  0  0
    3.5948   -1.3168   -0.9145 C   0  0  0  0  0  0  0  0  0  0  0  0
    3.2909   -2.2047   -1.4724 H   0  0  0  0  0  0  0  0  0  0  0  0
    4.3135   -0.7500   -1.5066 H   0  0  0  0  0  0  0  0  0  0  0  0
    4.0676   -1.6385    0.0159 H   0  0  0  0  0  0  0  0  0  0  0  0
  5  6  2  0  0  0  0
  5  7  1  0  0  0  0
  2  3  1  0  0  0  0
  2  4  1  0  0  0  0
  2  5  1  0  0  0  0
  1  2  1  0  0  0  0
 19 20  2  0  0  0  0
 19 21  1  0  0  0  0
 17 18  1  0  0  0  0
 13 14  1  0  0  0  0
 13 15  1  0  0  0  0
 13 16  1  0  0  0  0
 11 12  1  0  0  0  0
 11 13  1  0  0  0  0
 11 17  1  0  0  0  0
  9 10  1  0  0  0  0
  9 11  1  0  0  0  0
  9 19  1  0  0  0  0
  7  8  1  0  0  0  0
  7  9  1  0  0  0  0
 23 24  1  0  0  0  0
 23 25  1  0  0  0  0
 23 26  1  0  0  0  0
 21 22  1  0  0  0  0
 21 23  1  0  0  0  0
M  END
$$$$
default_name
  -OEChem-01062215323D

 26 25  0     1  0  0  0  0  0999 V2000
   -2.8882   -3.2497    1.2537 H   0  0  0  0  0  0  0  0  0  0  0  0
   -2.8032   -2.3157    0.7017 C   0  0  0  0  0  0  0  0  0  0  0  0
   -3.5012   -1.5857    1.1067 H   0  0  0  0  0  0  0  0  0  0  0  0
   -3.0182   -2.4907   -0.3513 H   0  0  0  0  0  0  0  0  0  0  0  0
   -1.3942   -1.7897    0.8407 C   0  0  0  0  0  0  0  0  0  0  0  0
   -0.5672   -2.4077    1.5007 O   0  0  0  0  0  0  0  0  0  0  0  0
   -1.1222   -0.6447    0.2217 N   0  0  0  0  0  0  0  0  0  0  0  0
   -1.8592   -0.1777   -0.2863 H   0  0  0  0  0  0  0  0  0  0  0  0
    0.1838    0.0363    0.2367 C   0  0  1  0  0  0  0  0  0  0  0  0
    0.2095    0.7593   -0.5778 H   0  0  0  0  0  0  0  0  0  0  0  0
    0.4162    0.8019    1.5556 C   0  0  1  0  0  0  0  0  0  0  0  0
    1.3948    1.2788    1.5053 H   0  0  0  0  0  0  0  0  0  0  0  0
   -0.6176    1.8912    1.8343 C   0  0  0  0  0  0  0  0  0  0  0  0
   -1.5959    1.4474    2.0229 H   0  0  0  0  0  0  0  0  0  0  0  0
   -0.3155    2.4741    2.7035 H   0  0  0  0  0  0  0  0  0  0  0  0
   -0.6910    2.5558    0.9729 H   0  0  0  0  0  0  0  0  0  0  0  0
    0.4054   -0.0735    2.6560 O   0  0  0  0  0  0  0  0  0  0  0  0
    0.4553    0.4539    3.4560 H   0  0  0  0  0  0  0  0  0  0  0  0
    1.3234   -0.9619   -0.0023 C   0  0  0  0  0  0  0  0  0  0  0  0
    1.1284   -2.1750    0.0711 O   0  0  0  0  0  0  0  0  0  0  0  0
    2.5220   -0.4533   -0.3206 N   0  0  0  0  0  0  0  0  0  0  0  0
    2.6135    0.5472   -0.3844 H   0  0  0  0  0  0  0  0  0  0  0  0
    3.7089   -1.2666   -0.5800 C   0  0  0  0  0  0  0  0  0  0  0  0
    3.4846   -2.0145   -1.3432 H   0  0  0  0  0  0  0  0  0  0  0  0
    4.5323   -0.6399   -0.9232 H   0  0  0  0  0  0  0  0  0  0  0  0
    4.0065   -1.7846    0.3342 H   0  0  0  0  0  0  0  0  0  0  0  0
  5  6  2  0  0  0  0
  5  7  1  0  0  0  0
  2  3  1  0  0  0  0
  2  4  1  0  0  0  0
  2  5  1  0  0  0  0
  1  2  1  0  0  0  0
 19 20  2  0  0  0  0
 19 21  1  0  0  0  0
 17 18  1  0  0  0  0
 13 14  1  0  0  0  0
 13 15  1  0  0  0  0
 13 16  1  0  0  0  0
 11 12  1  0  0  0  0
 11 13  1  0  0  0  0
 11 17  1  0  0  0  0
  9 10  1  0  0  0  0
  9 11  1  0  0  0  0
  9 19  1  0  0  0  0
  7  8  1  0  0  0  0
  7  9  1  0  0  0  0
 23 24  1  0  0  0  0
 23 25  1  0  0  0  0
 23 26  1  0  0  0  0
 21 22  1  0  0  0  0
 21 23  1  0  0  0  0
M  END
$$$$
default_name
  -OEChem-01062215323D

 26 25  0     1  0  0  0  0  0999 V2000
   -2.8882   -3.2497    1.2537 H   0  0  0  0  0  0  0  0  0  0  0  0
   -2.8032   -2.3157    0.7017 C   0  0  0  0  0  0  0  0  0  0  0  0
   -3.5012   -1.5857    1.1067 H   0  0  0  0  0  0  0  0  0  0  0  0
   -3.0182   -2.4907   -0.3513 H   0  0  0  0  0  0  0  0  0  0  0  0
   -1.3942   -1.7897    0.8407 C   0  0  0  0  0  0  0  0  0  0  0  0
   -0.5672   -2.4077    1.5007 O   0  0  0  0  0  0  0  0  0  0  0  0
   -1.1222   -0.6447    0.2217 N   0  0  0  0  0  0  0  0  0  0  0  0
   -1.8592   -0.1777   -0.2863 H   0  0  0  0  0  0  0  0  0  0  0  0
    0.1838    0.0363    0.2367 C   0  0  1  0  0  0  0  0  0  0  0  0
    0.1198    0.9272   -0.3870 H   0  0  0  0  0  0  0  0  0  0  0  0
    0.5814    0.4828    1.6588 C   0  0  1  0  0  0  0  0  0  0  0  0
    1.5523    0.9747    1.6028 H   0  0  0  0  0  0  0  0  0  0  0  0
   -0.3991    1.4619    2.3014 C   0  0  0  0  0  0  0  0  0  0  0  0
   -1.3527    0.9704    2.4985 H   0  0  0  0  0  0  0  0  0  0  0  0
    0.0117    1.8348    3.2389 H   0  0  0  0  0  0  0  0  0  0  0  0
   -0.5677    2.3049    1.6308 H   0  0  0  0  0  0  0  0  0  0  0  0
    0.6928   -0.6216    2.5220 O   0  0  0  0  0  0  0  0  0  0  0  0
    0.8443   -0.2910    3.4098 H   0  0  0  0  0  0  0  0  0  0  0  0
    1.2751   -0.8614   -0.3594 C   0  0  0  0  0  0  0  0  0  0  0  0
    1.0058   -1.9799   -0.7972 O   0  0  0  0  0  0  0  0  0  0  0  0
    2.5175   -0.3607   -0.4062 N   0  0  0  0  0  0  0  0  0  0  0  0
    2.6707    0.5684   -0.0501 H   0  0  0  0  0  0  0  0  0  0  0  0
    3.6680   -1.0856   -0.9435 C   0  0  0  0  0  0  0  0  0  0  0  0
    3.4446   -1.4370   -1.9528 H   0  0  0  0  0  0  0  0  0  0  0  0
    4.5448   -0.4385   -0.9750 H   0  0  0  0  0  0  0  0  0  0  0  0
    3.8820   -1.9529   -0.3153 H   0  0  0  0  0  0  0  0  0  0  0  0
  5  6  2  0  0  0  0
  5  7  1  0  0  0  0
  2  3  1  0  0  0  0
  2  4  1  0  0  0  0
  2  5  1  0  0  0  0
  1  2  1  0  0  0  0
 19 20  2  0  0  0  0
 19 21  1  0  0  0  0
 17 18  1  0  0  0  0
 13 14  1  0  0  0  0
 13 15  1  0  0  0  0
 13 16  1  0  0  0  0
 11 12  1  0  0  0  0
 11 13  1  0  0  0  0
 11 17  1  0  0  0  0
  9 10  1  0  0  0  0
  9 11  1  0  0  0  0
  9 19  1  0  0  0  0
  7  8  1  0  0  0  0
  7  9  1  0  0  0  0
 23 24  1  0  0  0  0
 23 25  1  0  0  0  0
 23 26  1  0  0  0  0
 21 22  1  0  0  0  0
 21 23  1  0  0  0  0
M  END
$$$$
default_name
  -OEChem-01062215323D

 26 25  0     1  0  0  0  0  0999 V2000
   -2.8882   -3.2497    1.2537 H   0  0  0  0  0  0  0  0  0  0  0  0
   -2.8032   -2.3157    0.7017 C   0  0  0  0  0  0  0  0  0  0  0  0
   -3.5012   -1.5857    1.1067 H   0  0  0  0  0  0  0  0  0  0  0  0
   -3.0182   -2.4907   -0.3513 H   0  0  0  0  0  0  0  0  0  0  0  0
   -1.3942   -1.7897    0.8407 C   0  0  0  0  0  0  0  0  0  0  0  0
   -0.5672   -2.4077    1.5007 O   0  0  0  0  0  0  0  0  0  0  0  0
   -1.1222   -0.6447    0.2217 N   0  0  0  0  0  0  0  0  0  0  0  0
   -1.8592   -0.1777   -0.2863 H   0  0  0  0  0  0  0  0  0  0  0  0
    0.1838    0.0363    0.2367 C   0  0  1  0  0  0  0  0  0  0  0  0
    0.1198    0.9272   -0.3870 H   0  0  0  0  0  0  0  0  0  0  0  0
    0.5814    0.4828    1.6588 C   0  0  1  0  0  0  0  0  0  0  0  0
    1.5523    0.9747    1.6028 H   0  0  0  0  0  0  0  0  0  0  0  0
   -0.3991    1.4619    2.3014 C   0  0  0  0  0  0  0  0  0  0  0  0
   -1.3527    0.9704    2.4985 H   0  0  0  0  0  0  0  0  0  0  0  0
    0.0117    1.8348    3.2389 H   0  0  0  0  0  0  0  0  0  0  0  0
   -0.5677    2.3049    1.6308 H   0  0  0  0  0  0  0  0  0  0  0  0
    0.6928   -0.6216    2.5220 O   0  0  0  0  0  0  0  0  0  0  0  0
    0.8443   -0.2910    3.4098 H   0  0  0  0  0  0  0  0  0  0  0  0
    1.2751   -0.8614   -0.3594 C   0  0  0  0  0  0  0  0  0  0  0  0
    0.9842   -1.8467   -1.0374 O   0  0  0  0  0  0  0  0  0  0  0  0
    2.5474   -0.5063   -0.1322 N   0  0  0  0  0  0  0  0  0  0  0  0
    2.7210    0.3216    0.4136 H   0  0  0  0  0  0  0  0  0  0  0  0
    3.7024   -1.2522   -0.6297 C   0  0  0  0  0  0  0  0  0  0  0  0
    3.6148   -1.3920   -1.7089 H   0  0  0  0  0  0  0  0  0  0  0  0
    4.6254   -0.7147   -0.4115 H   0  0  0  0  0  0  0  0  0  0  0  0
    3.7367   -2.2354   -0.1557 H   0  0  0  0  0  0  0  0  0  0  0  0
  5  6  2  0  0  0  0
  5  7  1  0  0  0  0
  2  3  1  0  0  0  0
  2  4  1  0  0  0  0
  2  5  1  0  0  0  0
  1  2  1  0  0  0  0
 19 20  2  0  0  0  0
 19 21  1  0  0  0  0
 17 18  1  0  0  0  0
 13 14  1  0  0  0  0
 13 15  1  0  0  0  0
 13 16  1  0  0  0  0
 11 12  1  0  0  0  0
 11 13  1  0  0  0  0
 11 17  1  0  0  0  0
  9 10  1  0  0  0  0
  9 11  1  0  0  0  0
  9 19  1  0  0  0  0
  7  8  1  0  0  0  0
  7  9  1  0  0  0  0
 23 24  1  0  0  0  0
 23 25  1  0  0  0  0
 23 26  1  0  0  0  0
 21 22  1  0  0  0  0
 21 23  1  0  0  0  0
M  END
$$$$
default_name
  -OEChem-01062215323D

 26 25  0     1  0  0  0  0  0999 V2000
   -2.8882   -3.2497    1.2537 H   0  0  0  0  0  0  0  0  0  0  0  0
   -2.8032   -2.3157    0.7017 C   0  0  0  0  0  0  0  0  0  0  0  0
   -3.5012   -1.5857    1.1067 H   0  0  0  0  0  0  0  0  0  0  0  0
   -3.0182   -2.4907   -0.3513 H   0  0  0  0  0  0  0  0  0  0  0  0
   -1.3942   -1.7897    0.8407 C   0  0  0  0  0  0  0  0  0  0  0  0
   -0.5672   -2.4077    1.5007 O   0  0  0  0  0  0  0  0  0  0  0  0
   -1.1222   -0.6447    0.2217 N   0  0  0  0  0  0  0  0  0  0  0  0
   -1.8592   -0.1777   -0.2863 H   0  0  0  0  0  0  0  0  0  0  0  0
    0.1838    0.0363    0.2367 C   0  0  1  0  0  0  0  0  0  0  0  0
    0.1198    0.9272   -0.3870 H   0  0  0  0  0  0  0  0  0  0  0  0
    0.5814    0.4828    1.6588 C   0  0  1  0  0  0  0  0  0  0  0  0
    1.5523    0.9747    1.6028 H   0  0  0  0  0  0  0  0  0  0  0  0
   -0.3991    1.4619    2.3014 C   0  0  0  0  0  0  0  0  0  0  0  0
   -1.3527    0.9704    2.4985 H   0  0  0  0  0  0  0  0  0  0  0  0
    0.0117    1.8348    3.2389 H   0  0  0  0  0  0  0  0  0  0  0  0
   -0.5677    2.3049    1.6308 H   0  0  0  0  0  0  0  0  0  0  0  0
    0.6928   -0.6216    2.5220 O   0  0  0  0  0  0  0  0  0  0  0  0
    0.8443   -0.2910    3.4098 H   0  0  0  0  0  0  0  0  0  0  0  0
    1.2751   -0.8614   -0.3594 C   0  0  0  0  0  0  0  0  0  0  0  0
    1.0130   -1.6716   -1.2482 O   0  0  0  0  0  0  0  0  0  0  0  0
    2.5202   -0.7004    0.1101 N   0  0  0  0  0  0  0  0  0  0  0  0
    2.6745   -0.0072    0.8237 H   0  0  0  0  0  0  0  0  0  0  0  0
    3.6713   -1.4744   -0.3520 C   0  0  0  0  0  0  0  0  0  0  0  0
    3.7467   -1.4106   -1.4393 H   0  0  0  0  0  0  0  0  0  0  0  0
    4.5901   -1.0934    0.0941 H   0  0  0  0  0  0  0  0  0  0  0  0
    3.5438   -2.5232   -0.0756 H   0  0  0  0  0  0  0  0  0  0  0  0
  5  6  2  0  0  0  0
  5  7  1  0  0  0  0
  2  3  1  0  0  0  0
  2  4  1  0  0  0  0
  2  5  1  0  0  0  0
  1  2  1  0  0  0  0
 19 20  2  0  0  0  0
 19 21  1  0  0  0  0
 17 18  1  0  0  0  0
 13 14  1  0  0  0  0
 13 15  1  0  0  0  0
 13 16  1  0  0  0  0
 11 12  1  0  0  0  0
 11 13  1  0  0  0  0
 11 17  1  0  0  0  0
  9 10  1  0  0  0  0
  9 11  1  0  0  0  0
  9 19  1  0  0  0  0
  7  8  1  0  0  0  0
  7  9  1  0  0  0  0
 23 24  1  0  0  0  0
 23 25  1  0  0  0  0
 23 26  1  0  0  0  0
 21 22  1  0  0  0  0
 21 23  1  0  0  0  0
M  END
$$$$
default_name
  -OEChem-01062215323D

 26 25  0     1  0  0  0  0  0999 V2000
   -2.8882   -3.2497    1.2537 H   0  0  0  0  0  0  0  0  0  0  0  0
   -2.8032   -2.3157    0.7017 C   0  0  0  0  0  0  0  0  0  0  0  0
   -3.5012   -1.5857    1.1067 H   0  0  0  0  0  0  0  0  0  0  0  0
   -3.0182   -2.4907   -0.3513 H   0  0  0  0  0  0  0  0  0  0  0  0
   -1.3942   -1.7897    0.8407 C   0  0  0  0  0  0  0  0  0  0  0  0
   -0.5672   -2.4077    1.5007 O   0  0  0  0  0  0  0  0  0  0  0  0
   -1.1222   -0.6447    0.2217 N   0  0  0  0  0  0  0  0  0  0  0  0
   -1.8592   -0.1777   -0.2863 H   0  0  0  0  0  0  0  0  0  0  0  0
    0.1838    0.0363    0.2367 C   0  0  1  0  0  0  0  0  0  0  0  0
    0.1198    0.9272   -0.3870 H   0  0  0  0  0  0  0  0  0  0  0  0
    0.5814    0.4828    1.6588 C   0  0  1  0  0  0  0  0  0  0  0  0
    1.5523    0.9747    1.6028 H   0  0  0  0  0  0  0  0  0  0  0  0
   -0.3991    1.4619    2.3014 C   0  0  0  0  0  0  0  0  0  0  0  0
   -1.3527    0.9704    2.4985 H   0  0  0  0  0  0  0  0  0  0  0  0
    0.0117    1.8348    3.2389 H   0  0  0  0  0  0  0  0  0  0  0  0
   -0.5677    2.3049    1.6308 H   0  0  0  0  0  0  0  0  0  0  0  0
    0.6928   -0.6216    2.5220 O   0  0  0  0  0  0  0  0  0  0  0  0
    0.8443   -0.2910    3.4098 H   0  0  0  0  0  0  0  0  0  0  0  0
    1.2751   -0.8614   -0.3594 C   0  0  0  0  0  0  0  0  0  0  0  0
    1.0904   -1.4666   -1.4153 O   0  0  0  0  0  0  0  0  0  0  0  0
    2.4376   -0.9297    0.3043 N   0  0  0  0  0  0  0  0  0  0  0  0
    2.5344   -0.3957    1.1522 H   0  0  0  0  0  0  0  0  0  0  0  0
    3.5768   -1.7370   -0.1294 C   0  0  0  0  0  0  0  0  0  0  0  0
    3.8315   -1.4915   -1.1624 H   0  0  0  0  0  0  0  0  0  0  0  0
    4.4413   -1.5487    0.5074 H   0  0  0  0  0  0  0  0  0  0  0  0
    3.3164   -2.7965   -0.0804 H   0  0  0  0  0  0  0  0  0  0  0  0
  5  6  2  0  0  0  0
  5  7  1  0  0  0  0
  2  3  1  0  0  0  0
  2  4  1  0  0  0  0
  2  5  1  0  0  0  0
  1  2  1  0  0  0  0
 19 20  2  0  0  0  0
 19 21  1  0  0  0  0
 17 18  1  0  0  0  0
 13 14  1  0  0  0  0
 13 15  1  0  0  0  0
 13 16  1  0  0  0  0
 11 12  1  0  0  0  0
 11 13  1  0  0  0  0
 11 17  1  0  0  0  0
  9 10  1  0  0  0  0
  9 11  1  0  0  0  0
  9 19  1  0  0  0  0
  7  8  1  0  0  0  0
  7  9  1  0  0  0  0
 23 24  1  0  0  0  0
 23 25  1  0  0  0  0
 23 26  1  0  0  0  0
 21 22  1  0  0  0  0
 21 23  1  0  0  0  0
M  END
$$$$
default_name
  -OEChem-01062215323D

 26 25  0     1  0  0  0  0  0999 V2000
   -2.8882   -3.2497    1.2537 H   0  0  0  0  0  0  0  0  0  0  0  0
   -2.8032   -2.3157    0.7017 C   0  0  0  0  0  0  0  0  0  0  0  0
   -3.5012   -1.5857    1.1067 H   0  0  0  0  0  0  0  0  0  0  0  0
   -3.0182   -2.4907   -0.3513 H   0  0  0  0  0  0  0  0  0  0  0  0
   -1.3942   -1.7897    0.8407 C   0  0  0  0  0  0  0  0  0  0  0  0
   -0.5672   -2.4077    1.5007 O   0  0  0  0  0  0  0  0  0  0  0  0
   -1.1222   -0.6447    0.2217 N   0  0  0  0  0  0  0  0  0  0  0  0
   -1.8592   -0.1777   -0.2863 H   0  0  0  0  0  0  0  0  0  0  0  0
    0.1838    0.0363    0.2367 C   0  0  1  0  0  0  0  0  0  0  0  0
    0.1198    0.9272   -0.3870 H   0  0  0  0  0  0  0  0  0  0  0  0
    0.5814    0.4828    1.6588 C   0  0  1  0  0  0  0  0  0  0  0  0
    1.5523    0.9747    1.6028 H   0  0  0  0  0  0  0  0  0  0  0  0
   -0.3991    1.4619    2.3014 C   0  0  0  0  0  0  0  0  0  0  0  0
   -1.3527    0.9704    2.4985 H   0  0  0  0  0  0  0  0  0  0  0  0
    0.0117    1.8348    3.2389 H   0  0  0  0  0  0  0  0  0  0  0  0
   -0.5677    2.3049    1.6308 H   0  0  0  0  0  0  0  0  0  0  0  0
    0.6928   -0.6216    2.5220 O   0  0  0  0  0  0  0  0  0  0  0  0
    0.8443   -0.2910    3.4098 H   0  0  0  0  0  0  0  0  0  0  0  0
    1.2751   -0.8614   -0.3594 C   0  0  0  0  0  0  0  0  0  0  0  0
    1.2112   -1.2456   -1.5271 O   0  0  0  0  0  0  0  0  0  0  0  0
    2.3053   -1.1787    0.4371 N   0  0  0  0  0  0  0  0  0  0  0  0
    2.3102   -0.8174    1.3768 H   0  0  0  0  0  0  0  0  0  0  0  0
    3.4254   -2.0222    0.0229 C   0  0  0  0  0  0  0  0  0  0  0  0
    3.8632   -1.6292   -0.8969 H   0  0  0  0  0  0  0  0  0  0  0  0
    4.1892   -2.0497    0.8003 H   0  0  0  0  0  0  0  0  0  0  0  0
    3.0699   -3.0366   -0.1698 H   0  0  0  0  0  0  0  0  0  0  0  0
  5  6  2  0  0  0  0
  5  7  1  0  0  0  0
  2  3  1  0  0  0  0
  2  4  1  0  0  0  0
  2  5  1  0  0  0  0
  1  2  1  0  0  0  0
 19 20  2  0  0  0  0
 19 21  1  0  0  0  0
 17 18  1  0  0  0  0
 13 14  1  0  0  0  0
 13 15  1  0  0  0  0
 13 16  1  0  0  0  0
 11 12  1  0  0  0  0
 11 13  1  0  0  0  0
 11 17  1  0  0  0  0
  9 10  1  0  0  0  0
  9 11  1  0  0  0  0
  9 19  1  0  0  0  0
  7  8  1  0  0  0  0
  7  9  1  0  0  0  0
 23 24  1  0  0  0  0
 23 25  1  0  0  0  0
 23 26  1  0  0  0  0
 21 22  1  0  0  0  0
 21 23  1  0  0  0  0
M  END
$$$$
default_name
  -OEChem-01062215323D

 26 25  0     1  0  0  0  0  0999 V2000
   -2.8882   -3.2497    1.2537 H   0  0  0  0  0  0  0  0  0  0  0  0
   -2.8032   -2.3157    0.7017 C   0  0  0  0  0  0  0  0  0  0  0  0
   -3.5012   -1.5857    1.1067 H   0  0  0  0  0  0  0  0  0  0  0  0
   -3.0182   -2.4907   -0.3513 H   0  0  0  0  0  0  0  0  0  0  0  0
   -1.3942   -1.7897    0.8407 C   0  0  0  0  0  0  0  0  0  0  0  0
   -0.5672   -2.4077    1.5007 O   0  0  0  0  0  0  0  0  0  0  0  0
   -1.1222   -0.6447    0.2217 N   0  0  0  0  0  0  0  0  0  0  0  0
   -1.8592   -0.1777   -0.2863 H   0  0  0  0  0  0  0  0  0  0  0  0
    0.1838    0.0363    0.2367 C   0  0  1  0  0  0  0  0  0  0  0  0
    0.1198    0.9272   -0.3870 H   0  0  0  0  0  0  0  0  0  0  0  0
    0.5814    0.4828    1.6588 C   0  0  1  0  0  0  0  0  0  0  0  0
    1.5523    0.9747    1.6028 H   0  0  0  0  0  0  0  0  0  0  0  0
   -0.3991    1.4619    2.3014 C   0  0  0  0  0  0  0  0  0  0  0  0
   -1.3527    0.9704    2.4985 H   0  0  0  0  0  0  0  0  0  0  0  0
    0.0117    1.8348    3.2389 H   0  0  0  0  0  0  0  0  0  0  0  0
   -0.5677    2.3049    1.6308 H   0  0  0  0  0  0  0  0  0  0  0  0
    0.6928   -0.6216    2.5220 O   0  0  0  0  0  0  0  0  0  0  0  0
    0.8443   -0.2910    3.4098 H   0  0  0  0  0  0  0  0  0  0  0  0
    1.2751   -0.8614   -0.3594 C   0  0  0  0  0  0  0  0  0  0  0  0
    1.3669   -1.0236   -1.5761 O   0  0  0  0  0  0  0  0  0  0  0  0
    2.1324   -1.4304    0.4996 N   0  0  0  0  0  0  0  0  0  0  0  0
    2.0172   -1.2434    1.4820 H   0  0  0  0  0  0  0  0  0  0  0  0
    3.2274   -2.3105    0.0945 C   0  0  0  0  0  0  0  0  0  0  0  0
    3.8398   -1.8143   -0.6610 H   0  0  0  0  0  0  0  0  0  0  0  0
    3.8509   -2.5622    0.9527 H   0  0  0  0  0  0  0  0  0  0  0  0
    2.8213   -3.2274   -0.3378 H   0  0  0  0  0  0  0  0  0  0  0  0
  5  6  2  0  0  0  0
  5  7  1  0  0  0  0
  2  3  1  0  0  0  0
  2  4  1  0  0  0  0
  2  5  1  0  0  0  0
  1  2  1  0  0  0  0
 19 20  2  0  0  0  0
 19 21  1  0  0  0  0
 17 18  1  0  0  0  0
 13 14  1  0  0  0  0
 13 15  1  0  0  0  0
 13 16  1  0  0  0  0
 11 12  1  0  0  0  0
 11 13  1  0  0  0  0
 11 17  1  0  0  0  0
  9 10  1  0  0  0  0
  9 11  1  0  0  0  0
  9 19  1  0  0  0  0
  7  8  1  0  0  0  0
  7  9  1  0  0  0  0
 23 24  1  0  0  0  0
 23 25  1  0  0  0  0
 23 26  1  0  0  0  0
 21 22  1  0  0  0  0
 21 23  1  0  0  0  0
M  END
$$$$
default_name
  -OEChem-01062215323D

 26 25  0     1  0  0  0  0  0999 V2000
   -2.8882   -3.2497    1.2537 H   0  0  0  0  0  0  0  0  0  0  0  0
   -2.8032   -2.3157    0.7017 C   0  0  0  0  0  0  0  0  0  0  0  0
   -3.5012   -1.5857    1.1067 H   0  0  0  0  0  0  0  0  0  0  0  0
   -3.0182   -2.4907   -0.3513 H   0  0  0  0  0  0  0  0  0  0  0  0
   -1.3942   -1.7897    0.8407 C   0  0  0  0  0  0  0  0  0  0  0  0
   -0.5672   -2.4077    1.5007 O   0  0  0  0  0  0  0  0  0  0  0  0
   -1.1222   -0.6447    0.2217 N   0  0  0  0  0  0  0  0  0  0  0  0
   -1.8592   -0.1777   -0.2863 H   0  0  0  0  0  0  0  0  0  0  0  0
    0.1838    0.0363    0.2367 C   0  0  1  0  0  0  0  0  0  0  0  0
    0.1198    0.9272   -0.3870 H   0  0  0  0  0  0  0  0  0  0  0  0
    0.5814    0.4828    1.6588 C   0  0  1  0  0  0  0  0  0  0  0  0
    1.5523    0.9747    1.6028 H   0  0  0  0  0  0  0  0  0  0  0  0
   -0.3991    1.4619    2.3014 C   0  0  0  0  0  0  0  0  0  0  0  0
   -1.3527    0.9704    2.4985 H   0  0  0  0  0  0  0  0  0  0  0  0
    0.0117    1.8348    3.2389 H   0  0  0  0  0  0  0  0  0  0  0  0
   -0.5677    2.3049    1.6308 H   0  0  0  0  0  0  0  0  0  0  0  0
    0.6928   -0.6216    2.5220 O   0  0  0  0  0  0  0  0  0  0  0  0
    0.8443   -0.2910    3.4098 H   0  0  0  0  0  0  0  0  0  0  0  0
    1.2751   -0.8614   -0.3594 C   0  0  0  0  0  0  0  0  0  0  0  0
    1.5472   -0.8159   -1.5590 O   0  0  0  0  0  0  0  0  0  0  0  0
    1.9306   -1.6676    0.4873 N   0  0  0  0  0  0  0  0  0  0  0  0
    1.6754   -1.6449    1.4609 H   0  0  0  0  0  0  0  0  0  0  0  0
    2.9963   -2.5822    0.0807 C   0  0  0  0  0  0  0  0  0  0  0  0
    3.7629   -2.0341   -0.4708 H   0  0  0  0  0  0  0  0  0  0  0  0
    3.4495   -3.0512    0.9542 H   0  0  0  0  0  0  0  0  0  0  0  0
    2.5873   -3.3557   -0.5728 H   0  0  0  0  0  0  0  0  0  0  0  0
  5  6  2  0  0  0  0
  5  7  1  0  0  0  0
  2  3  1  0  0  0  0
  2  4  1  0  0  0  0
  2  5  1  0  0  0  0
  1  2  1  0  0  0  0
 19 20  2  0  0  0  0
 19 21  1  0  0  0  0
 17 18  1  0  0  0  0
 13 14  1  0  0  0  0
 13 15  1  0  0  0  0
 13 16  1  0  0  0  0
 11 12  1  0  0  0  0
 11 13  1  0  0  0  0
 11 17  1  0  0  0  0
  9 10  1  0  0  0  0
  9 11  1  0  0  0  0
  9 19  1  0  0  0  0
  7  8  1  0  0  0  0
  7  9  1  0  0  0  0
 23 24  1  0  0  0  0
 23 25  1  0  0  0  0
 23 26  1  0  0  0  0
 21 22  1  0  0  0  0
 21 23  1  0  0  0  0
M  END
$$$$
default_name
  -OEChem-01062215323D

 26 25  0     1  0  0  0  0  0999 V2000
   -2.8882   -3.2497    1.2537 H   0  0  0  0  0  0  0  0  0  0  0  0
   -2.8032   -2.3157    0.7017 C   0  0  0  0  0  0  0  0  0  0  0  0
   -3.5012   -1.5857    1.1067 H   0  0  0  0  0  0  0  0  0  0  0  0
   -3.0182   -2.4907   -0.3513 H   0  0  0  0  0  0  0  0  0  0  0  0
   -1.3942   -1.7897    0.8407 C   0  0  0  0  0  0  0  0  0  0  0  0
   -0.5672   -2.4077    1.5007 O   0  0  0  0  0  0  0  0  0  0  0  0
   -1.1222   -0.6447    0.2217 N   0  0  0  0  0  0  0  0  0  0  0  0
   -1.8592   -0.1777   -0.2863 H   0  0  0  0  0  0  0  0  0  0  0  0
    0.1838    0.0363    0.2367 C   0  0  1  0  0  0  0  0  0  0  0  0
    0.1198    0.9272   -0.3870 H   0  0  0  0  0  0  0  0  0  0  0  0
    0.5814    0.4828    1.6588 C   0  0  1  0  0  0  0  0  0  0  0  0
    1.5523    0.9747    1.6028 H   0  0  0  0  0  0  0  0  0  0  0  0
   -0.3991    1.4619    2.3014 C   0  0  0  0  0  0  0  0  0  0  0  0
   -1.3527    0.9704    2.4985 H   0  0  0  0  0  0  0  0  0  0  0  0
    0.0117    1.8348    3.2389 H   0  0  0  0  0  0  0  0  0  0  0  0
   -0.5677    2.3049    1.6308 H   0  0  0  0  0  0  0  0  0  0  0  0
    0.6928   -0.6216    2.5220 O   0  0  0  0  0  0  0  0  0  0  0  0
    0.8443   -0.2910    3.4098 H   0  0  0  0  0  0  0  0  0  0  0  0
    1.2751   -0.8614   -0.3594 C   0  0  0  0  0  0  0  0  0  0  0  0
    1.7396   -0.6365   -1.4769 O   0  0  0  0  0  0  0  0  0  0  0  0
    1.7137   -1.8741    0.4012 N   0  0  0  0  0  0  0  0  0  0  0  0
    1.3081   -1.9945    1.3147 H   0  0  0  0  0  0  0  0  0  0  0  0
    2.7479   -2.8189   -0.0178 C   0  0  0  0  0  0  0  0  0  0  0  0
    3.6376   -2.2738   -0.3392 H   0  0  0  0  0  0  0  0  0  0  0  0
    3.0123   -3.4835    0.8049 H   0  0  0  0  0  0  0  0  0  0  0  0
    2.3841   -3.4128   -0.8589 H   0  0  0  0  0  0  0  0  0  0  0  0
  5  6  2  0  0  0  0
  5  7  1  0  0  0  0
  2  3  1  0  0  0  0
  2  4  1  0  0  0  0
  2  5  1  0  0  0  0
  1  2  1  0  0  0  0
 19 20  2  0  0  0  0
 19 21  1  0  0  0  0
 17 18  1  0  0  0  0
 13 14  1  0  0  0  0
 13 15  1  0  0  0  0
 13 16  1  0  0  0  0
 11 12  1  0  0  0  0
 11 13  1  0  0  0  0
 11 17  1  0  0  0  0
  9 10  1  0  0  0  0
  9 11  1  0  0  0  0
  9 19  1  0  0  0  0
  7  8  1  0  0  0  0
  7  9  1  0  0  0  0
 23 24  1  0  0  0  0
 23 25  1  0  0  0  0
 23 26  1  0  0  0  0
 21 22  1  0  0  0  0
 21 23  1  0  0  0  0
M  END
$$$$
default_name
  -OEChem-01062215323D

 26 25  0     1  0  0  0  0  0999 V2000
   -2.8882   -3.2497    1.2537 H   0  0  0  0  0  0  0  0  0  0  0  0
   -2.8032   -2.3157    0.7017 C   0  0  0  0  0  0  0  0  0  0  0  0
   -3.5012   -1.5857    1.1067 H   0  0  0  0  0  0  0  0  0  0  0  0
   -3.0182   -2.4907   -0.3513 H   0  0  0  0  0  0  0  0  0  0  0  0
   -1.3942   -1.7897    0.8407 C   0  0  0  0  0  0  0  0  0  0  0  0
   -0.5672   -2.4077    1.5007 O   0  0  0  0  0  0  0  0  0  0  0  0
   -1.1222   -0.6447    0.2217 N   0  0  0  0  0  0  0  0  0  0  0  0
   -1.8592   -0.1777   -0.2863 H   0  0  0  0  0  0  0  0  0  0  0  0
    0.1838    0.0363    0.2367 C   0  0  1  0  0  0  0  0  0  0  0  0
    0.1198    0.9272   -0.3870 H   0  0  0  0  0  0  0  0  0  0  0  0
    0.5814    0.4828    1.6588 C   0  0  1  0  0  0  0  0  0  0  0  0
    1.5523    0.9747    1.6028 H   0  0  0  0  0  0  0  0  0  0  0  0
   -0.3991    1.4619    2.3014 C   0  0  0  0  0  0  0  0  0  0  0  0
   -1.3527    0.9704    2.4985 H   0  0  0  0  0  0  0  0  0  0  0  0
    0.0117    1.8348    3.2389 H   0  0  0  0  0  0  0  0  0  0  0  0
   -0.5677    2.3049    1.6308 H   0  0  0  0  0  0  0  0  0  0  0  0
    0.6928   -0.6216    2.5220 O   0  0  0  0  0  0  0  0  0  0  0  0
    0.8443   -0.2910    3.4098 H   0  0  0  0  0  0  0  0  0  0  0  0
    1.2751   -0.8614   -0.3594 C   0  0  0  0  0  0  0  0  0  0  0  0
    1.9310   -0.4977   -1.3355 O   0  0  0  0  0  0  0  0  0  0  0  0
    1.4964   -2.0360    0.2472 N   0  0  0  0  0  0  0  0  0  0  0  0
    0.9402   -2.2682    1.0535 H   0  0  0  0  0  0  0  0  0  0  0  0
    2.4990   -3.0043   -0.1941 C   0  0  0  0  0  0  0  0  0  0  0  0
    3.4726   -2.5169   -0.2752 H   0  0  0  0  0  0  0  0  0  0  0  0
    2.5691   -3.8296    0.5148 H   0  0  0  0  0  0  0  0  0  0  0  0
    2.2253   -3.3948   -1.1766 H   0  0  0  0  0  0  0  0  0  0  0  0
  5  6  2  0  0  0  0
  5  7  1  0  0  0  0
  2  3  1  0  0  0  0
  2  4  1  0  0  0  0
  2  5  1  0  0  0  0
  1  2  1  0  0  0  0
 19 20  2  0  0  0  0
 19 21  1  0  0  0  0
 17 18  1  0  0  0  0
 13 14  1  0  0  0  0
 13 15  1  0  0  0  0
 13 16  1  0  0  0  0
 11 12  1  0  0  0  0
 11 13  1  0  0  0  0
 11 17  1  0  0  0  0
  9 10  1  0  0  0  0
  9 11  1  0  0  0  0
  9 19  1  0  0  0  0
  7  8  1  0  0  0  0
  7  9  1  0  0  0  0
 23 24  1  0  0  0  0
 23 25  1  0  0  0  0
 23 26  1  0  0  0  0
 21 22  1  0  0  0  0
 21 23  1  0  0  0  0
M  END
$$$$
default_name
  -OEChem-01062215323D

 26 25  0     1  0  0  0  0  0999 V2000
   -2.8882   -3.2497    1.2537 H   0  0  0  0  0  0  0  0  0  0  0  0
   -2.8032   -2.3157    0.7017 C   0  0  0  0  0  0  0  0  0  0  0  0
   -3.5012   -1.5857    1.1067 H   0  0  0  0  0  0  0  0  0  0  0  0
   -3.0182   -2.4907   -0.3513 H   0  0  0  0  0  0  0  0  0  0  0  0
   -1.3942   -1.7897    0.8407 C   0  0  0  0  0  0  0  0  0  0  0  0
   -0.5672   -2.4077    1.5007 O   0  0  0  0  0  0  0  0  0  0  0  0
   -1.1222   -0.6447    0.2217 N   0  0  0  0  0  0  0  0  0  0  0  0
   -1.8592   -0.1777   -0.2863 H   0  0  0  0  0  0  0  0  0  0  0  0
    0.1838    0.0363    0.2367 C   0  0  1  0  0  0  0  0  0  0  0  0
    0.1198    0.9272   -0.3870 H   0  0  0  0  0  0  0  0  0  0  0  0
    0.5814    0.4828    1.6588 C   0  0  1  0  0  0  0  0  0  0  0  0
    1.5523    0.9747    1.6028 H   0  0  0  0  0  0  0  0  0  0  0  0
   -0.3991    1.4619    2.3014 C   0  0  0  0  0  0  0  0  0  0  0  0
   -1.3527    0.9704    2.4985 H   0  0  0  0  0  0  0  0  0  0  0  0
    0.0117    1.8348    3.2389 H   0  0  0  0  0  0  0  0  0  0  0  0
   -0.5677    2.3049    1.6308 H   0  0  0  0  0  0  0  0  0  0  0  0
    0.6928   -0.6216    2.5220 O   0  0  0  0  0  0  0  0  0  0  0  0
    0.8443   -0.2910    3.4098 H   0  0  0  0  0  0  0  0  0  0  0  0
    1.2751   -0.8614   -0.3594 C   0  0  0  0  0  0  0  0  0  0  0  0
    2.1085   -0.4090   -1.1442 O   0  0  0  0  0  0  0  0  0  0  0  0
    1.2936   -2.1421    0.0356 N   0  0  0  0  0  0  0  0  0  0  0  0
    0.5969   -2.4475    0.6951 H   0  0  0  0  0  0  0  0  0  0  0  0
    2.2666   -3.1260   -0.4363 C   0  0  0  0  0  0  0  0  0  0  0  0
    3.2790   -2.7470   -0.2832 H   0  0  0  0  0  0  0  0  0  0  0  0
    2.1502   -4.0658    0.1037 H   0  0  0  0  0  0  0  0  0  0  0  0
    2.1220   -3.3030   -1.5042 H   0  0  0  0  0  0  0  0  0  0  0  0
  5  6  2  0  0  0  0
  5  7  1  0  0  0  0
  2  3  1  0  0  0  0
  2  4  1  0  0  0  0
  2  5  1  0  0  0  0
  1  2  1  0  0  0  0
 19 20  2  0  0  0  0
 19 21  1  0  0  0  0
 17 18  1  0  0  0  0
 13 14  1  0  0  0  0
 13 15  1  0  0  0  0
 13 16  1  0  0  0  0
 11 12  1  0  0  0  0
 11 13  1  0  0  0  0
 11 17  1  0  0  0  0
  9 10  1  0  0  0  0
  9 11  1  0  0  0  0
  9 19  1  0  0  0  0
  7  8  1  0  0  0  0
  7  9  1  0  0  0  0
 23 24  1  0  0  0  0
 23 25  1  0  0  0  0
 23 26  1  0  0  0  0
 21 22  1  0  0  0  0
 21 23  1  0  0  0  0
M  END
$$$$
default_name
  -OEChem-01062215323D

 26 25  0     1  0  0  0  0  0999 V2000
   -2.8882   -3.2497    1.2537 H   0  0  0  0  0  0  0  0  0  0  0  0
   -2.8032   -2.3157    0.7017 C   0  0  0  0  0  0  0  0  0  0  0  0
   -3.5012   -1.5857    1.1067 H   0  0  0  0  0  0  0  0  0  0  0  0
   -3.0182   -2.4907   -0.3513 H   0  0  0  0  0  0  0  0  0  0  0  0
   -1.3942   -1.7897    0.8407 C   0  0  0  0  0  0  0  0  0  0  0  0
   -0.5672   -2.4077    1.5007 O   0  0  0  0  0  0  0  0  0  0  0  0
   -1.1222   -0.6447    0.2217 N   0  0  0  0  0  0  0  0  0  0  0  0
   -1.8592   -0.1777   -0.2863 H   0  0  0  0  0  0  0  0  0  0  0  0
    0.1838    0.0363    0.2367 C   0  0  1  0  0  0  0  0  0  0  0  0
    0.1198    0.9272   -0.3870 H   0  0  0  0  0  0  0  0  0  0  0  0
    0.5814    0.4828    1.6588 C   0  0  1  0  0  0  0  0  0  0  0  0
    1.5523    0.9747    1.6028 H   0  0  0  0  0  0  0  0  0  0  0  0
   -0.3991    1.4619    2.3014 C   0  0  0  0  0  0  0  0  0  0  0  0
   -1.3527    0.9704    2.4985 H   0  0  0  0  0  0  0  0  0  0  0  0
    0.0117    1.8348    3.2389 H   0  0  0  0  0  0  0  0  0  0  0  0
   -0.5677    2.3049    1.6308 H   0  0  0  0  0  0  0  0  0  0  0  0
    0.6928   -0.6216    2.5220 O   0  0  0  0  0  0  0  0  0  0  0  0
    0.8443   -0.2910    3.4098 H   0  0  0  0  0  0  0  0  0  0  0  0
    1.2751   -0.8614   -0.3594 C   0  0  0  0  0  0  0  0  0  0  0  0
    2.2599   -0.3763   -0.9163 O   0  0  0  0  0  0  0  0  0  0  0  0
    1.1190   -2.1852   -0.2190 N   0  0  0  0  0  0  0  0  0  0  0  0
    0.3016   -2.5201    0.2638 H   0  0  0  0  0  0  0  0  0  0  0  0
    2.0666   -3.1755   -0.7278 C   0  0  0  0  0  0  0  0  0  0  0  0
    3.0701   -2.9482   -0.3625 H   0  0  0  0  0  0  0  0  0  0  0  0
    1.7841   -4.1762   -0.4004 H   0  0  0  0  0  0  0  0  0  0  0  0
    2.0809   -3.1436   -1.8193 H   0  0  0  0  0  0  0  0  0  0  0  0
  5  6  2  0  0  0  0
  5  7  1  0  0  0  0
  2  3  1  0  0  0  0
  2  4  1  0  0  0  0
  2  5  1  0  0  0  0
  1  2  1  0  0  0  0
 19 20  2  0  0  0  0
 19 21  1  0  0  0  0
 17 18  1  0  0  0  0
 13 14  1  0  0  0  0
 13 15  1  0  0  0  0
 13 16  1  0  0  0  0
 11 12  1  0  0  0  0
 11 13  1  0  0  0  0
 11 17  1  0  0  0  0
  9 10  1  0  0  0  0
  9 11  1  0  0  0  0
  9 19  1  0  0  0  0
  7  8  1  0  0  0  0
  7  9  1  0  0  0  0
 23 24  1  0  0  0  0
 23 25  1  0  0  0  0
 23 26  1  0  0  0  0
 21 22  1  0  0  0  0
 21 23  1  0  0  0  0
M  END
$$$$
default_name
  -OEChem-01062215323D

 26 25  0     1  0  0  0  0  0999 V2000
   -2.8882   -3.2497    1.2537 H   0  0  0  0  0  0  0  0  0  0  0  0
   -2.8032   -2.3157    0.7017 C   0  0  0  0  0  0  0  0  0  0  0  0
   -3.5012   -1.5857    1.1067 H   0  0  0  0  0  0  0  0  0  0  0  0
   -3.0182   -2.4907   -0.3513 H   0  0  0  0  0  0  0  0  0  0  0  0
   -1.3942   -1.7897    0.8407 C   0  0  0  0  0  0  0  0  0  0  0  0
   -0.5672   -2.4077    1.5007 O   0  0  0  0  0  0  0  0  0  0  0  0
   -1.1222   -0.6447    0.2217 N   0  0  0  0  0  0  0  0  0  0  0  0
   -1.8592   -0.1777   -0.2863 H   0  0  0  0  0  0  0  0  0  0  0  0
    0.1838    0.0363    0.2367 C   0  0  1  0  0  0  0  0  0  0  0  0
    0.1198    0.9272   -0.3870 H   0  0  0  0  0  0  0  0  0  0  0  0
    0.5814    0.4828    1.6588 C   0  0  1  0  0  0  0  0  0  0  0  0
    1.5523    0.9747    1.6028 H   0  0  0  0  0  0  0  0  0  0  0  0
   -0.3991    1.4619    2.3014 C   0  0  0  0  0  0  0  0  0  0  0  0
   -1.3527    0.9704    2.4985 H   0  0  0  0  0  0  0  0  0  0  0  0
    0.0117    1.8348    3.2389 H   0  0  0  0  0  0  0  0  0  0  0  0
   -0.5677    2.3049    1.6308 H   0  0  0  0  0  0  0  0  0  0  0  0
    0.6928   -0.6216    2.5220 O   0  0  0  0  0  0  0  0  0  0  0  0
    0.8443   -0.2910    3.4098 H   0  0  0  0  0  0  0  0  0  0  0  0
    1.2751   -0.8614   -0.3594 C   0  0  0  0  0  0  0  0  0  0  0  0
    2.3748   -0.4020   -0.6672 O   0  0  0  0  0  0  0  0  0  0  0  0
    0.9847   -2.1624   -0.4993 N   0  0  0  0  0  0  0  0  0  0  0  0
    0.0743   -2.4812   -0.2108 H   0  0  0  0  0  0  0  0  0  0  0  0
    1.9127   -3.1495   -1.0488 C   0  0  0  0  0  0  0  0  0  0  0  0
    2.8601   -3.1069   -0.5079 H   0  0  0  0  0  0  0  0  0  0  0  0
    1.4957   -4.1532   -0.9630 H   0  0  0  0  0  0  0  0  0  0  0  0
    2.1051   -2.9274   -2.1006 H   0  0  0  0  0  0  0  0  0  0  0  0
  5  6  2  0  0  0  0
  5  7  1  0  0  0  0
  2  3  1  0  0  0  0
  2  4  1  0  0  0  0
  2  5  1  0  0  0  0
  1  2  1  0  0  0  0
 19 20  2  0  0  0  0
 19 21  1  0  0  0  0
 17 18  1  0  0  0  0
 13 14  1  0  0  0  0
 13 15  1  0  0  0  0
 13 16  1  0  0  0  0
 11 12  1  0  0  0  0
 11 13  1  0  0  0  0
 11 17  1  0  0  0  0
  9 10  1  0  0  0  0
  9 11  1  0  0  0  0
  9 19  1  0  0  0  0
  7  8  1  0  0  0  0
  7  9  1  0  0  0  0
 23 24  1  0  0  0  0
 23 25  1  0  0  0  0
 23 26  1  0  0  0  0
 21 22  1  0  0  0  0
 21 23  1  0  0  0  0
M  END
$$$$
default_name
  -OEChem-01062215323D

 26 25  0     1  0  0  0  0  0999 V2000
   -2.8882   -3.2497    1.2537 H   0  0  0  0  0  0  0  0  0  0  0  0
   -2.8032   -2.3157    0.7017 C   0  0  0  0  0  0  0  0  0  0  0  0
   -3.5012   -1.5857    1.1067 H   0  0  0  0  0  0  0  0  0  0  0  0
   -3.0182   -2.4907   -0.3513 H   0  0  0  0  0  0  0  0  0  0  0  0
   -1.3942   -1.7897    0.8407 C   0  0  0  0  0  0  0  0  0  0  0  0
   -0.5672   -2.4077    1.5007 O   0  0  0  0  0  0  0  0  0  0  0  0
   -1.1222   -0.6447    0.2217 N   0  0  0  0  0  0  0  0  0  0  0  0
   -1.8592   -0.1777   -0.2863 H   0  0  0  0  0  0  0  0  0  0  0  0
    0.1838    0.0363    0.2367 C   0  0  1  0  0  0  0  0  0  0  0  0
    0.1198    0.9272   -0.3870 H   0  0  0  0  0  0  0  0  0  0  0  0
    0.5814    0.4828    1.6588 C   0  0  1  0  0  0  0  0  0  0  0  0
    1.5523    0.9747    1.6028 H   0  0  0  0  0  0  0  0  0  0  0  0
   -0.3991    1.4619    2.3014 C   0  0  0  0  0  0  0  0  0  0  0  0
   -1.3527    0.9704    2.4985 H   0  0  0  0  0  0  0  0  0  0  0  0
    0.0117    1.8348    3.2389 H   0  0  0  0  0  0  0  0  0  0  0  0
   -0.5677    2.3049    1.6308 H   0  0  0  0  0  0  0  0  0  0  0  0
    0.6928   -0.6216    2.5220 O   0  0  0  0  0  0  0  0  0  0  0  0
    0.8443   -0.2910    3.4098 H   0  0  0  0  0  0  0  0  0  0  0  0
    1.2751   -0.8614   -0.3594 C   0  0  0  0  0  0  0  0  0  0  0  0
    2.4456   -0.4842   -0.4139 O   0  0  0  0  0  0  0  0  0  0  0  0
    0.8996   -2.0752   -0.7862 N   0  0  0  0  0  0  0  0  0  0  0  0
   -0.0693   -2.3333   -0.6966 H   0  0  0  0  0  0  0  0  0  0  0  0
    1.8152   -3.0499   -1.3774 C   0  0  0  0  0  0  0  0  0  0  0  0
    2.6633   -3.2124   -0.7094 H   0  0  0  0  0  0  0  0  0  0  0  0
    1.3047   -3.9982   -1.5460 H   0  0  0  0  0  0  0  0  0  0  0  0
    2.1928   -2.6692   -2.3288 H   0  0  0  0  0  0  0  0  0  0  0  0
  5  6  2  0  0  0  0
  5  7  1  0  0  0  0
  2  3  1  0  0  0  0
  2  4  1  0  0  0  0
  2  5  1  0  0  0  0
  1  2  1  0  0  0  0
 19 20  2  0  0  0  0
 19 21  1  0  0  0  0
 17 18  1  0  0  0  0
 13 14  1  0  0  0  0
 13 15  1  0  0  0  0
 13 16  1  0  0  0  0
 11 12  1  0  0  0  0
 11 13  1  0  0  0  0
 11 17  1  0  0  0  0
  9 10  1  0  0  0  0
  9 11  1  0  0  0  0
  9 19  1  0  0  0  0
  7  8  1  0  0  0  0
  7  9  1  0  0  0  0
 23 24  1  0  0  0  0
 23 25  1  0  0  0  0
 23 26  1  0  0  0  0
 21 22  1  0  0  0  0
 21 23  1  0  0  0  0
M  END
$$$$
default_name
  -OEChem-01062215323D

 26 25  0     1  0  0  0  0  0999 V2000
   -2.8882   -3.2497    1.2537 H   0  0  0  0  0  0  0  0  0  0  0  0
   -2.8032   -2.3157    0.7017 C   0  0  0  0  0  0  0  0  0  0  0  0
   -3.5012   -1.5857    1.1067 H   0  0  0  0  0  0  0  0  0  0  0  0
   -3.0182   -2.4907   -0.3513 H   0  0  0  0  0  0  0  0  0  0  0  0
   -1.3942   -1.7897    0.8407 C   0  0  0  0  0  0  0  0  0  0  0  0
   -0.5672   -2.4077    1.5007 O   0  0  0  0  0  0  0  0  0  0  0  0
   -1.1222   -0.6447    0.2217 N   0  0  0  0  0  0  0  0  0  0  0  0
   -1.8592   -0.1777   -0.2863 H   0  0  0  0  0  0  0  0  0  0  0  0
    0.1838    0.0363    0.2367 C   0  0  1  0  0  0  0  0  0  0  0  0
    0.1198    0.9272   -0.3870 H   0  0  0  0  0  0  0  0  0  0  0  0
    0.5814    0.4828    1.6588 C   0  0  1  0  0  0  0  0  0  0  0  0
    1.5523    0.9747    1.6028 H   0  0  0  0  0  0  0  0  0  0  0  0
   -0.3991    1.4619    2.3014 C   0  0  0  0  0  0  0  0  0  0  0  0
   -1.3527    0.9704    2.4985 H   0  0  0  0  0  0  0  0  0  0  0  0
    0.0117    1.8348    3.2389 H   0  0  0  0  0  0  0  0  0  0  0  0
   -0.5677    2.3049    1.6308 H   0  0  0  0  0  0  0  0  0  0  0  0
    0.6928   -0.6216    2.5220 O   0  0  0  0  0  0  0  0  0  0  0  0
    0.8443   -0.2910    3.4098 H   0  0  0  0  0  0  0  0  0  0  0  0
    1.2751   -0.8614   -0.3594 C   0  0  0  0  0  0  0  0  0  0  0  0
    2.4672   -0.6174   -0.1736 O   0  0  0  0  0  0  0  0  0  0  0  0
    0.8697   -1.9297   -1.0601 N   0  0  0  0  0  0  0  0  0  0  0  0
   -0.1196   -2.0865   -1.1603 H   0  0  0  0  0  0  0  0  0  0  0  0
    1.7808   -2.8832   -1.6913 C   0  0  0  0  0  0  0  0  0  0  0  0
    2.4932   -3.2573   -0.9533 H   0  0  0  0  0  0  0  0  0  0  0  0
    1.2241   -3.7220   -2.1095 H   0  0  0  0  0  0  0  0  0  0  0  0
    2.3381   -2.3866   -2.4884 H   0  0  0  0  0  0  0  0  0  0  0  0
  5  6  2  0  0  0  0
  5  7  1  0  0  0  0
  2  3  1  0  0  0  0
  2  4  1  0  0  0  0
  2  5  1  0  0  0  0
  1  2  1  0  0  0  0
 19 20  2  0  0  0  0
 19 21  1  0  0  0  0
 17 18  1  0  0  0  0
 13 14  1  0  0  0  0
 13 15  1  0  0  0  0
 13 16  1  0  0  0  0
 11 12  1  0  0  0  0
 11 13  1  0  0  0  0
 11 17  1  0  0  0  0
  9 10  1  0  0  0  0
  9 11  1  0  0  0  0
  9 19  1  0  0  0  0
  7  8  1  0  0  0  0
  7  9  1  0  0  0  0
 23 24  1  0  0  0  0
 23 25  1  0  0  0  0
 23 26  1  0  0  0  0
 21 22  1  0  0  0  0
 21 23  1  0  0  0  0
M  END
$$$$
default_name
  -OEChem-01062215323D

 26 25  0     1  0  0  0  0  0999 V2000
   -2.8882   -3.2497    1.2537 H   0  0  0  0  0  0  0  0  0  0  0  0
   -2.8032   -2.3157    0.7017 C   0  0  0  0  0  0  0  0  0  0  0  0
   -3.5012   -1.5857    1.1067 H   0  0  0  0  0  0  0  0  0  0  0  0
   -3.0182   -2.4907   -0.3513 H   0  0  0  0  0  0  0  0  0  0  0  0
   -1.3942   -1.7897    0.8407 C   0  0  0  0  0  0  0  0  0  0  0  0
   -0.5672   -2.4077    1.5007 O   0  0  0  0  0  0  0  0  0  0  0  0
   -1.1222   -0.6447    0.2217 N   0  0  0  0  0  0  0  0  0  0  0  0
   -1.8592   -0.1777   -0.2863 H   0  0  0  0  0  0  0  0  0  0  0  0
    0.1838    0.0363    0.2367 C   0  0  1  0  0  0  0  0  0  0  0  0
    0.1198    0.9272   -0.3870 H   0  0  0  0  0  0  0  0  0  0  0  0
    0.5814    0.4828    1.6588 C   0  0  1  0  0  0  0  0  0  0  0  0
    1.5523    0.9747    1.6028 H   0  0  0  0  0  0  0  0  0  0  0  0
   -0.3991    1.4619    2.3014 C   0  0  0  0  0  0  0  0  0  0  0  0
   -1.3527    0.9704    2.4985 H   0  0  0  0  0  0  0  0  0  0  0  0
    0.0117    1.8348    3.2389 H   0  0  0  0  0  0  0  0  0  0  0  0
   -0.5677    2.3049    1.6308 H   0  0  0  0  0  0  0  0  0  0  0  0
    0.6928   -0.6216    2.5220 O   0  0  0  0  0  0  0  0  0  0  0  0
    0.8443   -0.2910    3.4098 H   0  0  0  0  0  0  0  0  0  0  0  0
    1.2751   -0.8614   -0.3594 C   0  0  0  0  0  0  0  0  0  0  0  0
    2.4384   -0.7925    0.0372 O   0  0  0  0  0  0  0  0  0  0  0  0
    0.8970   -1.7356   -1.3025 N   0  0  0  0  0  0  0  0  0  0  0  0
   -0.0732   -1.7576   -1.5704 H   0  0  0  0  0  0  0  0  0  0  0  0
    1.8119   -2.6610   -1.9689 C   0  0  0  0  0  0  0  0  0  0  0  0
    2.3612   -3.2387   -1.2229 H   0  0  0  0  0  0  0  0  0  0  0  0
    1.2594   -3.3434   -2.6151 H   0  0  0  0  0  0  0  0  0  0  0  0
    2.5310   -2.0989   -2.5685 H   0  0  0  0  0  0  0  0  0  0  0  0
  5  6  2  0  0  0  0
  5  7  1  0  0  0  0
  2  3  1  0  0  0  0
  2  4  1  0  0  0  0
  2  5  1  0  0  0  0
  1  2  1  0  0  0  0
 19 20  2  0  0  0  0
 19 21  1  0  0  0  0
 17 18  1  0  0  0  0
 13 14  1  0  0  0  0
 13 15  1  0  0  0  0
 13 16  1  0  0  0  0
 11 12  1  0  0  0  0
 11 13  1  0  0  0  0
 11 17  1  0  0  0  0
  9 10  1  0  0  0  0
  9 11  1  0  0  0  0
  9 19  1  0  0  0  0
  7  8  1  0  0  0  0
  7  9  1  0  0  0  0
 23 24  1  0  0  0  0
 23 25  1  0  0  0  0
 23 26  1  0  0  0  0
 21 22  1  0  0  0  0
 21 23  1  0  0  0  0
M  END
$$$$
default_name
  -OEChem-01062215323D

 26 25  0     1  0  0  0  0  0999 V2000
   -2.8882   -3.2497    1.2537 H   0  0  0  0  0  0  0  0  0  0  0  0
   -2.8032   -2.3157    0.7017 C   0  0  0  0  0  0  0  0  0  0  0  0
   -3.5012   -1.5857    1.1067 H   0  0  0  0  0  0  0  0  0  0  0  0
   -3.0182   -2.4907   -0.3513 H   0  0  0  0  0  0  0  0  0  0  0  0
   -1.3942   -1.7897    0.8407 C   0  0  0  0  0  0  0  0  0  0  0  0
   -0.5672   -2.4077    1.5007 O   0  0  0  0  0  0  0  0  0  0  0  0
   -1.1222   -0.6447    0.2217 N   0  0  0  0  0  0  0  0  0  0  0  0
   -1.8592   -0.1777   -0.2863 H   0  0  0  0  0  0  0  0  0  0  0  0
    0.1838    0.0363    0.2367 C   0  0  1  0  0  0  0  0  0  0  0  0
    0.1198    0.9272   -0.3870 H   0  0  0  0  0  0  0  0  0  0  0  0
    0.5814    0.4828    1.6588 C   0  0  1  0  0  0  0  0  0  0  0  0
    1.5523    0.9747    1.6028 H   0  0  0  0  0  0  0  0  0  0  0  0
   -0.3991    1.4619    2.3014 C   0  0  0  0  0  0  0  0  0  0  0  0
   -1.3527    0.9704    2.4985 H   0  0  0  0  0  0  0  0  0  0  0  0
    0.0117    1.8348    3.2389 H   0  0  0  0  0  0  0  0  0  0  0  0
   -0.5677    2.3049    1.6308 H   0  0  0  0  0  0  0  0  0  0  0  0
    0.6928   -0.6216    2.5220 O   0  0  0  0  0  0  0  0  0  0  0  0
    0.8443   -0.2910    3.4098 H   0  0  0  0  0  0  0  0  0  0  0  0
    1.2751   -0.8614   -0.3594 C   0  0  0  0  0  0  0  0  0  0  0  0
    2.3609   -0.9975    0.2042 O   0  0  0  0  0  0  0  0  0  0  0  0
    0.9796   -1.5062   -1.4967 N   0  0  0  0  0  0  0  0  0  0  0  0
    0.0670   -1.3691   -1.8989 H   0  0  0  0  0  0  0  0  0  0  0  0
    1.9064   -2.3984   -2.1915 C   0  0  0  0  0  0  0  0  0  0  0  0
    2.2765   -3.1578   -1.4998 H   0  0  0  0  0  0  0  0  0  0  0  0
    1.4081   -2.8880   -3.0284 H   0  0  0  0  0  0  0  0  0  0  0  0
    2.7584   -1.8256   -2.5637 H   0  0  0  0  0  0  0  0  0  0  0  0
  5  6  2  0  0  0  0
  5  7  1  0  0  0  0
  2  3  1  0  0  0  0
  2  4  1  0  0  0  0
  2  5  1  0  0  0  0
  1  2  1  0  0  0  0
 19 20  2  0  0  0  0
 19 21  1  0  0  0  0
 17 18  1  0  0  0  0
 13 14  1  0  0  0  0
 13 15  1  0  0  0  0
 13 16  1  0  0  0  0
 11 12  1  0  0  0  0
 11 13  1  0  0  0  0
 11 17  1  0  0  0  0
  9 10  1  0  0  0  0
  9 11  1  0  0  0  0
  9 19  1  0  0  0  0
  7  8  1  0  0  0  0
  7  9  1  0  0  0  0
 23 24  1  0  0  0  0
 23 25  1  0  0  0  0
 23 26  1  0  0  0  0
 21 22  1  0  0  0  0
 21 23  1  0  0  0  0
M  END
$$$$
default_name
  -OEChem-01062215323D

 26 25  0     1  0  0  0  0  0999 V2000
   -2.8882   -3.2497    1.2537 H   0  0  0  0  0  0  0  0  0  0  0  0
   -2.8032   -2.3157    0.7017 C   0  0  0  0  0  0  0  0  0  0  0  0
   -3.5012   -1.5857    1.1067 H   0  0  0  0  0  0  0  0  0  0  0  0
   -3.0182   -2.4907   -0.3513 H   0  0  0  0  0  0  0  0  0  0  0  0
   -1.3942   -1.7897    0.8407 C   0  0  0  0  0  0  0  0  0  0  0  0
   -0.5672   -2.4077    1.5007 O   0  0  0  0  0  0  0  0  0  0  0  0
   -1.1222   -0.6447    0.2217 N   0  0  0  0  0  0  0  0  0  0  0  0
   -1.8592   -0.1777   -0.2863 H   0  0  0  0  0  0  0  0  0  0  0  0
    0.1838    0.0363    0.2367 C   0  0  1  0  0  0  0  0  0  0  0  0
    0.1198    0.9272   -0.3870 H   0  0  0  0  0  0  0  0  0  0  0  0
    0.5814    0.4828    1.6588 C   0  0  1  0  0  0  0  0  0  0  0  0
    1.5523    0.9747    1.6028 H   0  0  0  0  0  0  0  0  0  0  0  0
   -0.3991    1.4619    2.3014 C   0  0  0  0  0  0  0  0  0  0  0  0
   -1.3527    0.9704    2.4985 H   0  0  0  0  0  0  0  0  0  0  0  0
    0.0117    1.8348    3.2389 H   0  0  0  0  0  0  0  0  0  0  0  0
   -0.5677    2.3049    1.6308 H   0  0  0  0  0  0  0  0  0  0  0  0
    0.6928   -0.6216    2.5220 O   0  0  0  0  0  0  0  0  0  0  0  0
    0.8443   -0.2910    3.4098 H   0  0  0  0  0  0  0  0  0  0  0  0
    1.2751   -0.8614   -0.3594 C   0  0  0  0  0  0  0  0  0  0  0  0
    2.2402   -1.2185    0.3160 O   0  0  0  0  0  0  0  0  0  0  0  0
    1.1119   -1.2572   -1.6295 N   0  0  0  0  0  0  0  0  0  0  0  0
    0.2911   -0.9475   -2.1235 H   0  0  0  0  0  0  0  0  0  0  0  0
    2.0577   -2.1132   -2.3438 C   0  0  0  0  0  0  0  0  0  0  0  0
    2.2447   -3.0201   -1.7653 H   0  0  0  0  0  0  0  0  0  0  0  0
    1.6603   -2.3871   -3.3213 H   0  0  0  0  0  0  0  0  0  0  0  0
    3.0049   -1.5854   -2.4743 H   0  0  0  0  0  0  0  0  0  0  0  0
  5  6  2  0  0  0  0
  5  7  1  0  0  0  0
  2  3  1  0  0  0  0
  2  4  1  0  0  0  0
  2  5  1  0  0  0  0
  1  2  1  0  0  0  0
 19 20  2  0  0  0  0
 19 21  1  0  0  0  0
 17 18  1  0  0  0  0
 13 14  1  0  0  0  0
 13 15  1  0  0  0  0
 13 16  1  0  0  0  0
 11 12  1  0  0  0  0
 11 13  1  0  0  0  0
 11 17  1  0  0  0  0
  9 10  1  0  0  0  0
  9 11  1  0  0  0  0
  9 19  1  0  0  0  0
  7  8  1  0  0  0  0
  7  9  1  0  0  0  0
 23 24  1  0  0  0  0
 23 25  1  0  0  0  0
 23 26  1  0  0  0  0
 21 22  1  0  0  0  0
 21 23  1  0  0  0  0
M  END
$$$$
default_name
  -OEChem-01062215323D

 26 25  0     1  0  0  0  0  0999 V2000
   -2.8882   -3.2497    1.2537 H   0  0  0  0  0  0  0  0  0  0  0  0
   -2.8032   -2.3157    0.7017 C   0  0  0  0  0  0  0  0  0  0  0  0
   -3.5012   -1.5857    1.1067 H   0  0  0  0  0  0  0  0  0  0  0  0
   -3.0182   -2.4907   -0.3513 H   0  0  0  0  0  0  0  0  0  0  0  0
   -1.3942   -1.7897    0.8407 C   0  0  0  0  0  0  0  0  0  0  0  0
   -0.5672   -2.4077    1.5007 O   0  0  0  0  0  0  0  0  0  0  0  0
   -1.1222   -0.6447    0.2217 N   0  0  0  0  0  0  0  0  0  0  0  0
   -1.8592   -0.1777   -0.2863 H   0  0  0  0  0  0  0  0  0  0  0  0
    0.1838    0.0363    0.2367 C   0  0  1  0  0  0  0  0  0  0  0  0
    0.1198    0.9272   -0.3870 H   0  0  0  0  0  0  0  0  0  0  0  0
    0.5814    0.4828    1.6588 C   0  0  1  0  0  0  0  0  0  0  0  0
    1.5523    0.9747    1.6028 H   0  0  0  0  0  0  0  0  0  0  0  0
   -0.3991    1.4619    2.3014 C   0  0  0  0  0  0  0  0  0  0  0  0
   -1.3527    0.9704    2.4985 H   0  0  0  0  0  0  0  0  0  0  0  0
    0.0117    1.8348    3.2389 H   0  0  0  0  0  0  0  0  0  0  0  0
   -0.5677    2.3049    1.6308 H   0  0  0  0  0  0  0  0  0  0  0  0
    0.6928   -0.6216    2.5220 O   0  0  0  0  0  0  0  0  0  0  0  0
    0.8443   -0.2910    3.4098 H   0  0  0  0  0  0  0  0  0  0  0  0
    1.2751   -0.8614   -0.3594 C   0  0  0  0  0  0  0  0  0  0  0  0
    2.0844   -1.4405    0.3651 O   0  0  0  0  0  0  0  0  0  0  0  0
    1.2848   -1.0055   -1.6919 N   0  0  0  0  0  0  0  0  0  0  0  0
    0.5841   -0.5214   -2.2288 H   0  0  0  0  0  0  0  0  0  0  0  0
    2.2557   -1.8250   -2.4154 C   0  0  0  0  0  0  0  0  0  0  0  0
    2.2681   -2.8351   -2.0012 H   0  0  0  0  0  0  0  0  0  0  0  0
    1.9986   -1.8746   -3.4737 H   0  0  0  0  0  0  0  0  0  0  0  0
    3.2535   -1.3947   -2.3063 H   0  0  0  0  0  0  0  0  0  0  0  0
  5  6  2  0  0  0  0
  5  7  1  0  0  0  0
  2  3  1  0  0  0  0
  2  4  1  0  0  0  0
  2  5  1  0  0  0  0
  1  2  1  0  0  0  0
 19 20  2  0  0  0  0
 19 21  1  0  0  0  0
 17 18  1  0  0  0  0
 13 14  1  0  0  0  0
 13 15  1  0  0  0  0
 13 16  1  0  0  0  0
 11 12  1  0  0  0  0
 11 13  1  0  0  0  0
 11 17  1  0  0  0  0
  9 10  1  0  0  0  0
  9 11  1  0  0  0  0
  9 19  1  0  0  0  0
  7  8  1  0  0  0  0
  7  9  1  0  0  0  0
 23 24  1  0  0  0  0
 23 25  1  0  0  0  0
 23 26  1  0  0  0  0
 21 22  1  0  0  0  0
 21 23  1  0  0  0  0
M  END
$$$$
default_name
  -OEChem-01062215323D

 26 25  0     1  0  0  0  0  0999 V2000
   -2.8882   -3.2497    1.2537 H   0  0  0  0  0  0  0  0  0  0  0  0
   -2.8032   -2.3157    0.7017 C   0  0  0  0  0  0  0  0  0  0  0  0
   -3.5012   -1.5857    1.1067 H   0  0  0  0  0  0  0  0  0  0  0  0
   -3.0182   -2.4907   -0.3513 H   0  0  0  0  0  0  0  0  0  0  0  0
   -1.3942   -1.7897    0.8407 C   0  0  0  0  0  0  0  0  0  0  0  0
   -0.5672   -2.4077    1.5007 O   0  0  0  0  0  0  0  0  0  0  0  0
   -1.1222   -0.6447    0.2217 N   0  0  0  0  0  0  0  0  0  0  0  0
   -1.8592   -0.1777   -0.2863 H   0  0  0  0  0  0  0  0  0  0  0  0
    0.1838    0.0363    0.2367 C   0  0  1  0  0  0  0  0  0  0  0  0
    0.1198    0.9272   -0.3870 H   0  0  0  0  0  0  0  0  0  0  0  0
    0.5814    0.4828    1.6588 C   0  0  1  0  0  0  0  0  0  0  0  0
    1.5523    0.9747    1.6028 H   0  0  0  0  0  0  0  0  0  0  0  0
   -0.3991    1.4619    2.3014 C   0  0  0  0  0  0  0  0  0  0  0  0
   -1.3527    0.9704    2.4985 H   0  0  0  0  0  0  0  0  0  0  0  0
    0.0117    1.8348    3.2389 H   0  0  0  0  0  0  0  0  0  0  0  0
   -0.5677    2.3049    1.6308 H   0  0  0  0  0  0  0  0  0  0  0  0
    0.6928   -0.6216    2.5220 O   0  0  0  0  0  0  0  0  0  0  0  0
    0.8443   -0.2910    3.4098 H   0  0  0  0  0  0  0  0  0  0  0  0
    1.2751   -0.8614   -0.3594 C   0  0  0  0  0  0  0  0  0  0  0  0
    1.9042   -1.6482    0.3480 O   0  0  0  0  0  0  0  0  0  0  0  0
    1.4866   -0.7684   -1.6797 N   0  0  0  0  0  0  0  0  0  0  0  0
    0.9260   -0.1199   -2.2076 H   0  0  0  0  0  0  0  0  0  0  0  0
    2.4868   -1.5532   -2.4016 C   0  0  0  0  0  0  0  0  0  0  0  0
    2.3450   -2.6152   -2.1914 H   0  0  0  0  0  0  0  0  0  0  0  0
    2.4000   -1.3855   -3.4753 H   0  0  0  0  0  0  0  0  0  0  0  0
    3.4875   -1.2664   -2.0713 H   0  0  0  0  0  0  0  0  0  0  0  0
  5  6  2  0  0  0  0
  5  7  1  0  0  0  0
  2  3  1  0  0  0  0
  2  4  1  0  0  0  0
  2  5  1  0  0  0  0
  1  2  1  0  0  0  0
 19 20  2  0  0  0  0
 19 21  1  0  0  0  0
 17 18  1  0  0  0  0
 13 14  1  0  0  0  0
 13 15  1  0  0  0  0
 13 16  1  0  0  0  0
 11 12  1  0  0  0  0
 11 13  1  0  0  0  0
 11 17  1  0  0  0  0
  9 10  1  0  0  0  0
  9 11  1  0  0  0  0
  9 19  1  0  0  0  0
  7  8  1  0  0  0  0
  7  9  1  0  0  0  0
 23 24  1  0  0  0  0
 23 25  1  0  0  0  0
 23 26  1  0  0  0  0
 21 22  1  0  0  0  0
 21 23  1  0  0  0  0
M  END
$$$$
default_name
  -OEChem-01062215323D

 26 25  0     1  0  0  0  0  0999 V2000
   -2.8882   -3.2497    1.2537 H   0  0  0  0  0  0  0  0  0  0  0  0
   -2.8032   -2.3157    0.7017 C   0  0  0  0  0  0  0  0  0  0  0  0
   -3.5012   -1.5857    1.1067 H   0  0  0  0  0  0  0  0  0  0  0  0
   -3.0182   -2.4907   -0.3513 H   0  0  0  0  0  0  0  0  0  0  0  0
   -1.3942   -1.7897    0.8407 C   0  0  0  0  0  0  0  0  0  0  0  0
   -0.5672   -2.4077    1.5007 O   0  0  0  0  0  0  0  0  0  0  0  0
   -1.1222   -0.6447    0.2217 N   0  0  0  0  0  0  0  0  0  0  0  0
   -1.8592   -0.1777   -0.2863 H   0  0  0  0  0  0  0  0  0  0  0  0
    0.1838    0.0363    0.2367 C   0  0  1  0  0  0  0  0  0  0  0  0
    0.1198    0.9272   -0.3870 H   0  0  0  0  0  0  0  0  0  0  0  0
    0.5814    0.4828    1.6588 C   0  0  1  0  0  0  0  0  0  0  0  0
    1.5523    0.9747    1.6028 H   0  0  0  0  0  0  0  0  0  0  0  0
   -0.3991    1.4619    2.3014 C   0  0  0  0  0  0  0  0  0  0  0  0
   -1.3527    0.9704    2.4985 H   0  0  0  0  0  0  0  0  0  0  0  0
    0.0117    1.8348    3.2389 H   0  0  0  0  0  0  0  0  0  0  0  0
   -0.5677    2.3049    1.6308 H   0  0  0  0  0  0  0  0  0  0  0  0
    0.6928   -0.6216    2.5220 O   0  0  0  0  0  0  0  0  0  0  0  0
    0.8443   -0.2910    3.4098 H   0  0  0  0  0  0  0  0  0  0  0  0
    1.2751   -0.8614   -0.3594 C   0  0  0  0  0  0  0  0  0  0  0  0
    1.7118   -1.8276    0.2659 O   0  0  0  0  0  0  0  0  0  0  0  0
    1.7035   -0.5618   -1.5936 N   0  0  0  0  0  0  0  0  0  0  0  0
    1.2933    0.2296   -2.0615 H   0  0  0  0  0  0  0  0  0  0  0  0
    2.7353   -1.3166   -2.3031 C   0  0  0  0  0  0  0  0  0  0  0  0
    2.4703   -2.3755   -2.3230 H   0  0  0  0  0  0  0  0  0  0  0  0
    2.8372   -0.9533   -3.3259 H   0  0  0  0  0  0  0  0  0  0  0  0
    3.6907   -1.2093   -1.7852 H   0  0  0  0  0  0  0  0  0  0  0  0
  5  6  2  0  0  0  0
  5  7  1  0  0  0  0
  2  3  1  0  0  0  0
  2  4  1  0  0  0  0
  2  5  1  0  0  0  0
  1  2  1  0  0  0  0
 19 20  2  0  0  0  0
 19 21  1  0  0  0  0
 17 18  1  0  0  0  0
 13 14  1  0  0  0  0
 13 15  1  0  0  0  0
 13 16  1  0  0  0  0
 11 12  1  0  0  0  0
 11 13  1  0  0  0  0
 11 17  1  0  0  0  0
  9 10  1  0  0  0  0
  9 11  1  0  0  0  0
  9 19  1  0  0  0  0
  7  8  1  0  0  0  0
  7  9  1  0  0  0  0
 23 24  1  0  0  0  0
 23 25  1  0  0  0  0
 23 26  1  0  0  0  0
 21 22  1  0  0  0  0
 21 23  1  0  0  0  0
M  END
$$$$
default_name
  -OEChem-01062215323D

 26 25  0     1  0  0  0  0  0999 V2000
   -2.8882   -3.2497    1.2537 H   0  0  0  0  0  0  0  0  0  0  0  0
   -2.8032   -2.3157    0.7017 C   0  0  0  0  0  0  0  0  0  0  0  0
   -3.5012   -1.5857    1.1067 H   0  0  0  0  0  0  0  0  0  0  0  0
   -3.0182   -2.4907   -0.3513 H   0  0  0  0  0  0  0  0  0  0  0  0
   -1.3942   -1.7897    0.8407 C   0  0  0  0  0  0  0  0  0  0  0  0
   -0.5672   -2.4077    1.5007 O   0  0  0  0  0  0  0  0  0  0  0  0
   -1.1222   -0.6447    0.2217 N   0  0  0  0  0  0  0  0  0  0  0  0
   -1.8592   -0.1777   -0.2863 H   0  0  0  0  0  0  0  0  0  0  0  0
    0.1838    0.0363    0.2367 C   0  0  1  0  0  0  0  0  0  0  0  0
    0.1198    0.9272   -0.3870 H   0  0  0  0  0  0  0  0  0  0  0  0
    0.5814    0.4828    1.6588 C   0  0  1  0  0  0  0  0  0  0  0  0
    1.5523    0.9747    1.6028 H   0  0  0  0  0  0  0  0  0  0  0  0
   -0.3991    1.4619    2.3014 C   0  0  0  0  0  0  0  0  0  0  0  0
   -1.3527    0.9704    2.4985 H   0  0  0  0  0  0  0  0  0  0  0  0
    0.0117    1.8348    3.2389 H   0  0  0  0  0  0  0  0  0  0  0  0
   -0.5677    2.3049    1.6308 H   0  0  0  0  0  0  0  0  0  0  0  0
    0.6928   -0.6216    2.5220 O   0  0  0  0  0  0  0  0  0  0  0  0
    0.8443   -0.2910    3.4098 H   0  0  0  0  0  0  0  0  0  0  0  0
    1.2751   -0.8614   -0.3594 C   0  0  0  0  0  0  0  0  0  0  0  0
    1.5204   -1.9664    0.1244 O   0  0  0  0  0  0  0  0  0  0  0  0
    1.9208   -0.4000   -1.4395 N   0  0  0  0  0  0  0  0  0  0  0  0
    1.6612    0.5033   -1.8003 H   0  0  0  0  0  0  0  0  0  0  0  0
    2.9842   -1.1311   -2.1268 C   0  0  0  0  0  0  0  0  0  0  0  0
    2.6353   -2.1324   -2.3870 H   0  0  0  0  0  0  0  0  0  0  0  0
    3.2803   -0.6072   -3.0358 H   0  0  0  0  0  0  0  0  0  0  0  0
    3.8495   -1.2273   -1.4675 H   0  0  0  0  0  0  0  0  0  0  0  0
  5  6  2  0  0  0  0
  5  7  1  0  0  0  0
  2  3  1  0  0  0  0
  2  4  1  0  0  0  0
  2  5  1  0  0  0  0
  1  2  1  0  0  0  0
 19 20  2  0  0  0  0
 19 21  1  0  0  0  0
 17 18  1  0  0  0  0
 13 14  1  0  0  0  0
 13 15  1  0  0  0  0
 13 16  1  0  0  0  0
 11 12  1  0  0  0  0
 11 13  1  0  0  0  0
 11 17  1  0  0  0  0
  9 10  1  0  0  0  0
  9 11  1  0  0  0  0
  9 19  1  0  0  0  0
  7  8  1  0  0  0  0
  7  9  1  0  0  0  0
 23 24  1  0  0  0  0
 23 25  1  0  0  0  0
 23 26  1  0  0  0  0
 21 22  1  0  0  0  0
 21 23  1  0  0  0  0
M  END
$$$$
default_name
  -OEChem-01062215323D

 26 25  0     1  0  0  0  0  0999 V2000
   -2.8882   -3.2497    1.2537 H   0  0  0  0  0  0  0  0  0  0  0  0
   -2.8032   -2.3157    0.7017 C   0  0  0  0  0  0  0  0  0  0  0  0
   -3.5012   -1.5857    1.1067 H   0  0  0  0  0  0  0  0  0  0  0  0
   -3.0182   -2.4907   -0.3513 H   0  0  0  0  0  0  0  0  0  0  0  0
   -1.3942   -1.7897    0.8407 C   0  0  0  0  0  0  0  0  0  0  0  0
   -0.5672   -2.4077    1.5007 O   0  0  0  0  0  0  0  0  0  0  0  0
   -1.1222   -0.6447    0.2217 N   0  0  0  0  0  0  0  0  0  0  0  0
   -1.8592   -0.1777   -0.2863 H   0  0  0  0  0  0  0  0  0  0  0  0
    0.1838    0.0363    0.2367 C   0  0  1  0  0  0  0  0  0  0  0  0
    0.1198    0.9272   -0.3870 H   0  0  0  0  0  0  0  0  0  0  0  0
    0.5814    0.4828    1.6588 C   0  0  1  0  0  0  0  0  0  0  0  0
    1.5523    0.9747    1.6028 H   0  0  0  0  0  0  0  0  0  0  0  0
   -0.3991    1.4619    2.3014 C   0  0  0  0  0  0  0  0  0  0  0  0
   -1.3527    0.9704    2.4985 H   0  0  0  0  0  0  0  0  0  0  0  0
    0.0117    1.8348    3.2389 H   0  0  0  0  0  0  0  0  0  0  0  0
   -0.5677    2.3049    1.6308 H   0  0  0  0  0  0  0  0  0  0  0  0
    0.6928   -0.6216    2.5220 O   0  0  0  0  0  0  0  0  0  0  0  0
    0.8443   -0.2910    3.4098 H   0  0  0  0  0  0  0  0  0  0  0  0
    1.2751   -0.8614   -0.3594 C   0  0  0  0  0  0  0  0  0  0  0  0
    1.3429   -2.0551   -0.0668 O   0  0  0  0  0  0  0  0  0  0  0  0
    2.1236   -0.2939   -1.2280 N   0  0  0  0  0  0  0  0  0  0  0  0
    2.0045    0.6826   -1.4418 H   0  0  0  0  0  0  0  0  0  0  0  0
    3.2165   -1.0094   -1.8846 C   0  0  0  0  0  0  0  0  0  0  0  0
    2.8289   -1.9024   -2.3790 H   0  0  0  0  0  0  0  0  0  0  0  0
    3.6993   -0.3709   -2.6247 H   0  0  0  0  0  0  0  0  0  0  0  0
    3.9528   -1.3191   -1.1399 H   0  0  0  0  0  0  0  0  0  0  0  0
  5  6  2  0  0  0  0
  5  7  1  0  0  0  0
  2  3  1  0  0  0  0
  2  4  1  0  0  0  0
  2  5  1  0  0  0  0
  1  2  1  0  0  0  0
 19 20  2  0  0  0  0
 19 21  1  0  0  0  0
 17 18  1  0  0  0  0
 13 14  1  0  0  0  0
 13 15  1  0  0  0  0
 13 16  1  0  0  0  0
 11 12  1  0  0  0  0
 11 13  1  0  0  0  0
 11 17  1  0  0  0  0
  9 10  1  0  0  0  0
  9 11  1  0  0  0  0
  9 19  1  0  0  0  0
  7  8  1  0  0  0  0
  7  9  1  0  0  0  0
 23 24  1  0  0  0  0
 23 25  1  0  0  0  0
 23 26  1  0  0  0  0
 21 22  1  0  0  0  0
 21 23  1  0  0  0  0
M  END
$$$$
default_name
  -OEChem-01062215323D

 26 25  0     1  0  0  0  0  0999 V2000
   -2.8882   -3.2497    1.2537 H   0  0  0  0  0  0  0  0  0  0  0  0
   -2.8032   -2.3157    0.7017 C   0  0  0  0  0  0  0  0  0  0  0  0
   -3.5012   -1.5857    1.1067 H   0  0  0  0  0  0  0  0  0  0  0  0
   -3.0182   -2.4907   -0.3513 H   0  0  0  0  0  0  0  0  0  0  0  0
   -1.3942   -1.7897    0.8407 C   0  0  0  0  0  0  0  0  0  0  0  0
   -0.5672   -2.4077    1.5007 O   0  0  0  0  0  0  0  0  0  0  0  0
   -1.1222   -0.6447    0.2217 N   0  0  0  0  0  0  0  0  0  0  0  0
   -1.8592   -0.1777   -0.2863 H   0  0  0  0  0  0  0  0  0  0  0  0
    0.1838    0.0363    0.2367 C   0  0  1  0  0  0  0  0  0  0  0  0
    0.1198    0.9272   -0.3870 H   0  0  0  0  0  0  0  0  0  0  0  0
    0.5814    0.4828    1.6588 C   0  0  1  0  0  0  0  0  0  0  0  0
    1.5523    0.9747    1.6028 H   0  0  0  0  0  0  0  0  0  0  0  0
   -0.3991    1.4619    2.3014 C   0  0  0  0  0  0  0  0  0  0  0  0
   -1.3527    0.9704    2.4985 H   0  0  0  0  0  0  0  0  0  0  0  0
    0.0117    1.8348    3.2389 H   0  0  0  0  0  0  0  0  0  0  0  0
   -0.5677    2.3049    1.6308 H   0  0  0  0  0  0  0  0  0  0  0  0
    0.6928   -0.6216    2.5220 O   0  0  0  0  0  0  0  0  0  0  0  0
    0.8443   -0.2910    3.4098 H   0  0  0  0  0  0  0  0  0  0  0  0
    1.2751   -0.8614   -0.3594 C   0  0  0  0  0  0  0  0  0  0  0  0
    1.1915   -2.0878   -0.2947 O   0  0  0  0  0  0  0  0  0  0  0  0
    2.2982   -0.2508   -0.9734 N   0  0  0  0  0  0  0  0  0  0  0  0
    2.2998    0.7553   -1.0106 H   0  0  0  0  0  0  0  0  0  0  0  0
    3.4165   -0.9599   -1.5931 C   0  0  0  0  0  0  0  0  0  0  0  0
    3.0378   -1.7011   -2.2996 H   0  0  0  0  0  0  0  0  0  0  0  0
    4.0654   -0.2605   -2.1207 H   0  0  0  0  0  0  0  0  0  0  0  0
    3.9939   -1.4785   -0.8248 H   0  0  0  0  0  0  0  0  0  0  0  0
  5  6  2  0  0  0  0
  5  7  1  0  0  0  0
  2  3  1  0  0  0  0
  2  4  1  0  0  0  0
  2  5  1  0  0  0  0
  1  2  1  0  0  0  0
 19 20  2  0  0  0  0
 19 21  1  0  0  0  0
 17 18  1  0  0  0  0
 13 14  1  0  0  0  0
 13 15  1  0  0  0  0
 13 16  1  0  0  0  0
 11 12  1  0  0  0  0
 11 13  1  0  0  0  0
 11 17  1  0  0  0  0
  9 10  1  0  0  0  0
  9 11  1  0  0  0  0
  9 19  1  0  0  0  0
  7  8  1  0  0  0  0
  7  9  1  0  0  0  0
 23 24  1  0  0  0  0
 23 25  1  0  0  0  0
 23 26  1  0  0  0  0
 21 22  1  0  0  0  0
 21 23  1  0  0  0  0
M  END
$$$$
default_name
  -OEChem-01062215323D

 26 25  0     1  0  0  0  0  0999 V2000
   -2.8882   -3.2497    1.2537 H   0  0  0  0  0  0  0  0  0  0  0  0
   -2.8032   -2.3157    0.7017 C   0  0  0  0  0  0  0  0  0  0  0  0
   -3.5012   -1.5857    1.1067 H   0  0  0  0  0  0  0  0  0  0  0  0
   -3.0182   -2.4907   -0.3513 H   0  0  0  0  0  0  0  0  0  0  0  0
   -1.3942   -1.7897    0.8407 C   0  0  0  0  0  0  0  0  0  0  0  0
   -0.5672   -2.4077    1.5007 O   0  0  0  0  0  0  0  0  0  0  0  0
   -1.1222   -0.6447    0.2217 N   0  0  0  0  0  0  0  0  0  0  0  0
   -1.8592   -0.1777   -0.2863 H   0  0  0  0  0  0  0  0  0  0  0  0
    0.1838    0.0363    0.2367 C   0  0  1  0  0  0  0  0  0  0  0  0
    0.1198    0.9272   -0.3870 H   0  0  0  0  0  0  0  0  0  0  0  0
    0.5814    0.4828    1.6588 C   0  0  1  0  0  0  0  0  0  0  0  0
    1.5523    0.9747    1.6028 H   0  0  0  0  0  0  0  0  0  0  0  0
   -0.3991    1.4619    2.3014 C   0  0  0  0  0  0  0  0  0  0  0  0
   -1.3527    0.9704    2.4985 H   0  0  0  0  0  0  0  0  0  0  0  0
    0.0117    1.8348    3.2389 H   0  0  0  0  0  0  0  0  0  0  0  0
   -0.5677    2.3049    1.6308 H   0  0  0  0  0  0  0  0  0  0  0  0
    0.6928   -0.6216    2.5220 O   0  0  0  0  0  0  0  0  0  0  0  0
    0.8443   -0.2910    3.4098 H   0  0  0  0  0  0  0  0  0  0  0  0
    1.2751   -0.8614   -0.3594 C   0  0  0  0  0  0  0  0  0  0  0  0
    1.0766   -2.0621   -0.5438 O   0  0  0  0  0  0  0  0  0  0  0  0
    2.4325   -0.2736   -0.6931 N   0  0  0  0  0  0  0  0  0  0  0  0
    2.5270    0.7163   -0.5359 H   0  0  0  0  0  0  0  0  0  0  0  0
    3.5705   -0.9859   -1.2721 C   0  0  0  0  0  0  0  0  0  0  0  0
    3.2478   -1.5424   -2.1543 H   0  0  0  0  0  0  0  0  0  0  0  0
    4.3538   -0.2836   -1.5580 H   0  0  0  0  0  0  0  0  0  0  0  0
    3.9697   -1.6947   -0.5435 H   0  0  0  0  0  0  0  0  0  0  0  0
  5  6  2  0  0  0  0
  5  7  1  0  0  0  0
  2  3  1  0  0  0  0
  2  4  1  0  0  0  0
  2  5  1  0  0  0  0
  1  2  1  0  0  0  0
 19 20  2  0  0  0  0
 19 21  1  0  0  0  0
 17 18  1  0  0  0  0
 13 14  1  0  0  0  0
 13 15  1  0  0  0  0
 13 16  1  0  0  0  0
 11 12  1  0  0  0  0
 11 13  1  0  0  0  0
 11 17  1  0  0  0  0
  9 10  1  0  0  0  0
  9 11  1  0  0  0  0
  9 19  1  0  0  0  0
  7  8  1  0  0  0  0
  7  9  1  0  0  0  0
 23 24  1  0  0  0  0
 23 25  1  0  0  0  0
 23 26  1  0  0  0  0
 21 22  1  0  0  0  0
 21 23  1  0  0  0  0
M  END
$$$$
default_name
  -OEChem-01062215323D

 26 25  0     1  0  0  0  0  0999 V2000
   -2.8882   -3.2497    1.2537 H   0  0  0  0  0  0  0  0  0  0  0  0
   -2.8032   -2.3157    0.7017 C   0  0  0  0  0  0  0  0  0  0  0  0
   -3.5012   -1.5857    1.1067 H   0  0  0  0  0  0  0  0  0  0  0  0
   -3.0182   -2.4907   -0.3513 H   0  0  0  0  0  0  0  0  0  0  0  0
   -1.3942   -1.7897    0.8407 C   0  0  0  0  0  0  0  0  0  0  0  0
   -0.5672   -2.4077    1.5007 O   0  0  0  0  0  0  0  0  0  0  0  0
   -1.1222   -0.6447    0.2217 N   0  0  0  0  0  0  0  0  0  0  0  0
   -1.8592   -0.1777   -0.2863 H   0  0  0  0  0  0  0  0  0  0  0  0
    0.1838    0.0363    0.2367 C   0  0  1  0  0  0  0  0  0  0  0  0
    0.0555    1.0453   -0.1536 H   0  0  0  0  0  0  0  0  0  0  0  0
    0.7542    0.1513    1.6654 C   0  0  1  0  0  0  0  0  0  0  0  0
    1.7168    0.6590    1.6084 H   0  0  0  0  0  0  0  0  0  0  0  0
   -0.1310    0.9405    2.6280 C   0  0  0  0  0  0  0  0  0  0  0  0
   -1.0595    0.4012    2.8194 H   0  0  0  0  0  0  0  0  0  0  0  0
    0.3935    1.0953    3.5702 H   0  0  0  0  0  0  0  0  0  0  0  0
   -0.3693    1.9120    2.1940 H   0  0  0  0  0  0  0  0  0  0  0  0
    0.9558   -1.1196    2.2323 O   0  0  0  0  0  0  0  0  0  0  0  0
    1.2165   -0.9989    3.1477 H   0  0  0  0  0  0  0  0  0  0  0  0
    1.1855   -0.6825   -0.6755 C   0  0  0  0  0  0  0  0  0  0  0  0
    0.8530   -1.6751   -1.3230 O   0  0  0  0  0  0  0  0  0  0  0  0
    2.4189   -0.1639   -0.7540 N   0  0  0  0  0  0  0  0  0  0  0  0
    2.6242    0.6612   -0.2150 H   0  0  0  0  0  0  0  0  0  0  0  0
    3.4883   -0.7270   -1.5768 C   0  0  0  0  0  0  0  0  0  0  0  0
    3.1415   -0.8412   -2.6057 H   0  0  0  0  0  0  0  0  0  0  0  0
    4.3623   -0.0755   -1.5633 H   0  0  0  0  0  0  0  0  0  0  0  0
    3.7663   -1.7116   -1.1947 H   0  0  0  0  0  0  0  0  0  0  0  0
  5  6  2  0  0  0  0
  5  7  1  0  0  0  0
  2  3  1  0  0  0  0
  2  4  1  0  0  0  0
  2  5  1  0  0  0  0
  1  2  1  0  0  0  0
 19 20  2  0  0  0  0
 19 21  1  0  0  0  0
 17 18  1  0  0  0  0
 13 14  1  0  0  0  0
 13 15  1  0  0  0  0
 13 16  1  0  0  0  0
 11 12  1  0  0  0  0
 11 13  1  0  0  0  0
 11 17  1  0  0  0  0
  9 10  1  0  0  0  0
  9 11  1  0  0  0  0
  9 19  1  0  0  0  0
  7  8  1  0  0  0  0
  7  9  1  0  0  0  0
 23 24  1  0  0  0  0
 23 25  1  0  0  0  0
 23 26  1  0  0  0  0
 21 22  1  0  0  0  0
 21 23  1  0  0  0  0
M  END
$$$$
default_name
  -OEChem-01062215323D

 26 25  0     1  0  0  0  0  0999 V2000
   -2.8882   -3.2497    1.2537 H   0  0  0  0  0  0  0  0  0  0  0  0
   -2.8032   -2.3157    0.7017 C   0  0  0  0  0  0  0  0  0  0  0  0
   -3.5012   -1.5857    1.1067 H   0  0  0  0  0  0  0  0  0  0  0  0
   -3.0182   -2.4907   -0.3513 H   0  0  0  0  0  0  0  0  0  0  0  0
   -1.3942   -1.7897    0.8407 C   0  0  0  0  0  0  0  0  0  0  0  0
   -0.5672   -2.4077    1.5007 O   0  0  0  0  0  0  0  0  0  0  0  0
   -1.1222   -0.6447    0.2217 N   0  0  0  0  0  0  0  0  0  0  0  0
   -1.8592   -0.1777   -0.2863 H   0  0  0  0  0  0  0  0  0  0  0  0
    0.1838    0.0363    0.2367 C   0  0  1  0  0  0  0  0  0  0  0  0
    0.0555    1.0453   -0.1536 H   0  0  0  0  0  0  0  0  0  0  0  0
    0.7542    0.1513    1.6654 C   0  0  1  0  0  0  0  0  0  0  0  0
    1.7168    0.6590    1.6084 H   0  0  0  0  0  0  0  0  0  0  0  0
   -0.1310    0.9405    2.6280 C   0  0  0  0  0  0  0  0  0  0  0  0
   -1.0595    0.4012    2.8194 H   0  0  0  0  0  0  0  0  0  0  0  0
    0.3935    1.0953    3.5702 H   0  0  0  0  0  0  0  0  0  0  0  0
   -0.3693    1.9120    2.1940 H   0  0  0  0  0  0  0  0  0  0  0  0
    0.9558   -1.1196    2.2323 O   0  0  0  0  0  0  0  0  0  0  0  0
    1.2165   -0.9989    3.1477 H   0  0  0  0  0  0  0  0  0  0  0  0
    1.1855   -0.6825   -0.6755 C   0  0  0  0  0  0  0  0  0  0  0  0
    0.8041   -1.4908   -1.5219 O   0  0  0  0  0  0  0  0  0  0  0  0
    2.4798   -0.3679   -0.5264 N   0  0  0  0  0  0  0  0  0  0  0  0
    2.7270    0.3155    0.1703 H   0  0  0  0  0  0  0  0  0  0  0  0
    3.5582   -0.9606   -1.3160 C   0  0  0  0  0  0  0  0  0  0  0  0
    3.3402   -0.8506   -2.3801 H   0  0  0  0  0  0  0  0  0  0  0  0
    4.5068   -0.4722   -1.0920 H   0  0  0  0  0  0  0  0  0  0  0  0
    3.6380   -2.0256   -1.0881 H   0  0  0  0  0  0  0  0  0  0  0  0
  5  6  2  0  0  0  0
  5  7  1  0  0  0  0
  2  3  1  0  0  0  0
  2  4  1  0  0  0  0
  2  5  1  0  0  0  0
  1  2  1  0  0  0  0
 19 20  2  0  0  0  0
 19 21  1  0  0  0  0
 17 18  1  0  0  0  0
 13 14  1  0  0  0  0
 13 15  1  0  0  0  0
 13 16  1  0  0  0  0
 11 12  1  0  0  0  0
 11 13  1  0  0  0  0
 11 17  1  0  0  0  0
  9 10  1  0  0  0  0
  9 11  1  0  0  0  0
  9 19  1  0  0  0  0
  7  8  1  0  0  0  0
  7  9  1  0  0  0  0
 23 24  1  0  0  0  0
 23 25  1  0  0  0  0
 23 26  1  0  0  0  0
 21 22  1  0  0  0  0
 21 23  1  0  0  0  0
M  END
$$$$
default_name
  -OEChem-01062215323D

 26 25  0     1  0  0  0  0  0999 V2000
   -2.8882   -3.2497    1.2537 H   0  0  0  0  0  0  0  0  0  0  0  0
   -2.8032   -2.3157    0.7017 C   0  0  0  0  0  0  0  0  0  0  0  0
   -3.5012   -1.5857    1.1067 H   0  0  0  0  0  0  0  0  0  0  0  0
   -3.0182   -2.4907   -0.3513 H   0  0  0  0  0  0  0  0  0  0  0  0
   -1.3942   -1.7897    0.8407 C   0  0  0  0  0  0  0  0  0  0  0  0
   -0.5672   -2.4077    1.5007 O   0  0  0  0  0  0  0  0  0  0  0  0
   -1.1222   -0.6447    0.2217 N   0  0  0  0  0  0  0  0  0  0  0  0
   -1.8592   -0.1777   -0.2863 H   0  0  0  0  0  0  0  0  0  0  0  0
    0.1838    0.0363    0.2367 C   0  0  1  0  0  0  0  0  0  0  0  0
    0.0555    1.0453   -0.1536 H   0  0  0  0  0  0  0  0  0  0  0  0
    0.7542    0.1513    1.6654 C   0  0  1  0  0  0  0  0  0  0  0  0
    1.7168    0.6590    1.6084 H   0  0  0  0  0  0  0  0  0  0  0  0
   -0.1310    0.9405    2.6280 C   0  0  0  0  0  0  0  0  0  0  0  0
   -1.0595    0.4012    2.8194 H   0  0  0  0  0  0  0  0  0  0  0  0
    0.3935    1.0953    3.5702 H   0  0  0  0  0  0  0  0  0  0  0  0
   -0.3693    1.9120    2.1940 H   0  0  0  0  0  0  0  0  0  0  0  0
    0.9558   -1.1196    2.2323 O   0  0  0  0  0  0  0  0  0  0  0  0
    1.2165   -0.9989    3.1477 H   0  0  0  0  0  0  0  0  0  0  0  0
    1.1855   -0.6825   -0.6755 C   0  0  0  0  0  0  0  0  0  0  0  0
    0.8095   -1.2716   -1.6888 O   0  0  0  0  0  0  0  0  0  0  0  0
    2.4796   -0.6128   -0.3336 N   0  0  0  0  0  0  0  0  0  0  0  0
    2.7263   -0.0993    0.4964 H   0  0  0  0  0  0  0  0  0  0  0  0
    3.5581   -1.2410   -1.0951 C   0  0  0  0  0  0  0  0  0  0  0  0
    3.5033   -0.9283   -2.1397 H   0  0  0  0  0  0  0  0  0  0  0  0
    4.5281   -0.9572   -0.6864 H   0  0  0  0  0  0  0  0  0  0  0  0
    3.4528   -2.3272   -1.0537 H   0  0  0  0  0  0  0  0  0  0  0  0
  5  6  2  0  0  0  0
  5  7  1  0  0  0  0
  2  3  1  0  0  0  0
  2  4  1  0  0  0  0
  2  5  1  0  0  0  0
  1  2  1  0  0  0  0
 19 20  2  0  0  0  0
 19 21  1  0  0  0  0
 17 18  1  0  0  0  0
 13 14  1  0  0  0  0
 13 15  1  0  0  0  0
 13 16  1  0  0  0  0
 11 12  1  0  0  0  0
 11 13  1  0  0  0  0
 11 17  1  0  0  0  0
  9 10  1  0  0  0  0
  9 11  1  0  0  0  0
  9 19  1  0  0  0  0
  7  8  1  0  0  0  0
  7  9  1  0  0  0  0
 23 24  1  0  0  0  0
 23 25  1  0  0  0  0
 23 26  1  0  0  0  0
 21 22  1  0  0  0  0
 21 23  1  0  0  0  0
M  END
$$$$
default_name
  -OEChem-01062215323D

 26 25  0     1  0  0  0  0  0999 V2000
   -2.8882   -3.2497    1.2537 H   0  0  0  0  0  0  0  0  0  0  0  0
   -2.8032   -2.3157    0.7017 C   0  0  0  0  0  0  0  0  0  0  0  0
   -3.5012   -1.5857    1.1067 H   0  0  0  0  0  0  0  0  0  0  0  0
   -3.0182   -2.4907   -0.3513 H   0  0  0  0  0  0  0  0  0  0  0  0
   -1.3942   -1.7897    0.8407 C   0  0  0  0  0  0  0  0  0  0  0  0
   -0.5672   -2.4077    1.5007 O   0  0  0  0  0  0  0  0  0  0  0  0
   -1.1222   -0.6447    0.2217 N   0  0  0  0  0  0  0  0  0  0  0  0
   -1.8592   -0.1777   -0.2863 H   0  0  0  0  0  0  0  0  0  0  0  0
    0.1838    0.0363    0.2367 C   0  0  1  0  0  0  0  0  0  0  0  0
    0.0555    1.0453   -0.1536 H   0  0  0  0  0  0  0  0  0  0  0  0
    0.7542    0.1513    1.6654 C   0  0  1  0  0  0  0  0  0  0  0  0
    1.7168    0.6590    1.6084 H   0  0  0  0  0  0  0  0  0  0  0  0
   -0.1310    0.9405    2.6280 C   0  0  0  0  0  0  0  0  0  0  0  0
   -1.0595    0.4012    2.8194 H   0  0  0  0  0  0  0  0  0  0  0  0
    0.3935    1.0953    3.5702 H   0  0  0  0  0  0  0  0  0  0  0  0
   -0.3693    1.9120    2.1940 H   0  0  0  0  0  0  0  0  0  0  0  0
    0.9558   -1.1196    2.2323 O   0  0  0  0  0  0  0  0  0  0  0  0
    1.2165   -0.9989    3.1477 H   0  0  0  0  0  0  0  0  0  0  0  0
    1.1855   -0.6825   -0.6755 C   0  0  0  0  0  0  0  0  0  0  0  0
    0.8686   -1.0324   -1.8123 O   0  0  0  0  0  0  0  0  0  0  0  0
    2.4183   -0.8819   -0.1888 N   0  0  0  0  0  0  0  0  0  0  0  0
    2.6222   -0.5550    0.7413 H   0  0  0  0  0  0  0  0  0  0  0  0
    3.4881   -1.5492   -0.9291 C   0  0  0  0  0  0  0  0  0  0  0  0
    3.6197   -1.0692   -1.9009 H   0  0  0  0  0  0  0  0  0  0  0  0
    4.4248   -1.4976   -0.3739 H   0  0  0  0  0  0  0  0  0  0  0  0
    3.2234   -2.5958   -1.0940 H   0  0  0  0  0  0  0  0  0  0  0  0
  5  6  2  0  0  0  0
  5  7  1  0  0  0  0
  2  3  1  0  0  0  0
  2  4  1  0  0  0  0
  2  5  1  0  0  0  0
  1  2  1  0  0  0  0
 19 20  2  0  0  0  0
 19 21  1  0  0  0  0
 17 18  1  0  0  0  0
 13 14  1  0  0  0  0
 13 15  1  0  0  0  0
 13 16  1  0  0  0  0
 11 12  1  0  0  0  0
 11 13  1  0  0  0  0
 11 17  1  0  0  0  0
  9 10  1  0  0  0  0
  9 11  1  0  0  0  0
  9 19  1  0  0  0  0
  7  8  1  0  0  0  0
  7  9  1  0  0  0  0
 23 24  1  0  0  0  0
 23 25  1  0  0  0  0
 23 26  1  0  0  0  0
 21 22  1  0  0  0  0
 21 23  1  0  0  0  0
M  END
$$$$
default_name
  -OEChem-01062215323D

 26 25  0     1  0  0  0  0  0999 V2000
   -2.8882   -3.2497    1.2537 H   0  0  0  0  0  0  0  0  0  0  0  0
   -2.8032   -2.3157    0.7017 C   0  0  0  0  0  0  0  0  0  0  0  0
   -3.5012   -1.5857    1.1067 H   0  0  0  0  0  0  0  0  0  0  0  0
   -3.0182   -2.4907   -0.3513 H   0  0  0  0  0  0  0  0  0  0  0  0
   -1.3942   -1.7897    0.8407 C   0  0  0  0  0  0  0  0  0  0  0  0
   -0.5672   -2.4077    1.5007 O   0  0  0  0  0  0  0  0  0  0  0  0
   -1.1222   -0.6447    0.2217 N   0  0  0  0  0  0  0  0  0  0  0  0
   -1.8592   -0.1777   -0.2863 H   0  0  0  0  0  0  0  0  0  0  0  0
    0.1838    0.0363    0.2367 C   0  0  1  0  0  0  0  0  0  0  0  0
    0.0555    1.0453   -0.1536 H   0  0  0  0  0  0  0  0  0  0  0  0
    0.7542    0.1513    1.6654 C   0  0  1  0  0  0  0  0  0  0  0  0
    1.7168    0.6590    1.6084 H   0  0  0  0  0  0  0  0  0  0  0  0
   -0.1310    0.9405    2.6280 C   0  0  0  0  0  0  0  0  0  0  0  0
   -1.0595    0.4012    2.8194 H   0  0  0  0  0  0  0  0  0  0  0  0
    0.3935    1.0953    3.5702 H   0  0  0  0  0  0  0  0  0  0  0  0
   -0.3693    1.9120    2.1940 H   0  0  0  0  0  0  0  0  0  0  0  0
    0.9558   -1.1196    2.2323 O   0  0  0  0  0  0  0  0  0  0  0  0
    1.2165   -0.9989    3.1477 H   0  0  0  0  0  0  0  0  0  0  0  0
    1.1855   -0.6825   -0.6755 C   0  0  0  0  0  0  0  0  0  0  0  0
    0.9776   -0.7897   -1.8840 O   0  0  0  0  0  0  0  0  0  0  0  0
    2.3001   -1.1569   -0.1019 N   0  0  0  0  0  0  0  0  0  0  0  0
    2.4218   -1.0206    0.8881 H   0  0  0  0  0  0  0  0  0  0  0  0
    3.3528   -1.8642   -0.8295 C   0  0  0  0  0  0  0  0  0  0  0  0
    3.6816   -1.2635   -1.6799 H   0  0  0  0  0  0  0  0  0  0  0  0
    4.2040   -2.0565   -0.1760 H   0  0  0  0  0  0  0  0  0  0  0  0
    2.9653   -2.8132   -1.2061 H   0  0  0  0  0  0  0  0  0  0  0  0
  5  6  2  0  0  0  0
  5  7  1  0  0  0  0
  2  3  1  0  0  0  0
  2  4  1  0  0  0  0
  2  5  1  0  0  0  0
  1  2  1  0  0  0  0
 19 20  2  0  0  0  0
 19 21  1  0  0  0  0
 17 18  1  0  0  0  0
 13 14  1  0  0  0  0
 13 15  1  0  0  0  0
 13 16  1  0  0  0  0
 11 12  1  0  0  0  0
 11 13  1  0  0  0  0
 11 17  1  0  0  0  0
  9 10  1  0  0  0  0
  9 11  1  0  0  0  0
  9 19  1  0  0  0  0
  7  8  1  0  0  0  0
  7  9  1  0  0  0  0
 23 24  1  0  0  0  0
 23 25  1  0  0  0  0
 23 26  1  0  0  0  0
 21 22  1  0  0  0  0
 21 23  1  0  0  0  0
M  END
$$$$
default_name
  -OEChem-01062215323D

 26 25  0     1  0  0  0  0  0999 V2000
   -2.8882   -3.2497    1.2537 H   0  0  0  0  0  0  0  0  0  0  0  0
   -2.8032   -2.3157    0.7017 C   0  0  0  0  0  0  0  0  0  0  0  0
   -3.5012   -1.5857    1.1067 H   0  0  0  0  0  0  0  0  0  0  0  0
   -3.0182   -2.4907   -0.3513 H   0  0  0  0  0  0  0  0  0  0  0  0
   -1.3942   -1.7897    0.8407 C   0  0  0  0  0  0  0  0  0  0  0  0
   -0.5672   -2.4077    1.5007 O   0  0  0  0  0  0  0  0  0  0  0  0
   -1.1222   -0.6447    0.2217 N   0  0  0  0  0  0  0  0  0  0  0  0
   -1.8592   -0.1777   -0.2863 H   0  0  0  0  0  0  0  0  0  0  0  0
    0.1838    0.0363    0.2367 C   0  0  1  0  0  0  0  0  0  0  0  0
    0.0555    1.0453   -0.1536 H   0  0  0  0  0  0  0  0  0  0  0  0
    0.7542    0.1513    1.6654 C   0  0  1  0  0  0  0  0  0  0  0  0
    1.7168    0.6590    1.6084 H   0  0  0  0  0  0  0  0  0  0  0  0
   -0.1310    0.9405    2.6280 C   0  0  0  0  0  0  0  0  0  0  0  0
   -1.0595    0.4012    2.8194 H   0  0  0  0  0  0  0  0  0  0  0  0
    0.3935    1.0953    3.5702 H   0  0  0  0  0  0  0  0  0  0  0  0
   -0.3693    1.9120    2.1940 H   0  0  0  0  0  0  0  0  0  0  0  0
    0.9558   -1.1196    2.2323 O   0  0  0  0  0  0  0  0  0  0  0  0
    1.2165   -0.9989    3.1477 H   0  0  0  0  0  0  0  0  0  0  0  0
    1.1855   -0.6825   -0.6755 C   0  0  0  0  0  0  0  0  0  0  0  0
    1.1288   -0.5599   -1.8990 O   0  0  0  0  0  0  0  0  0  0  0  0
    2.1331   -1.4190   -0.0788 N   0  0  0  0  0  0  0  0  0  0  0  0
    2.1388   -1.4643    0.9269 H   0  0  0  0  0  0  0  0  0  0  0  0
    3.1616   -2.1644   -0.8028 C   0  0  0  0  0  0  0  0  0  0  0  0
    3.6845   -1.4981   -1.4917 H   0  0  0  0  0  0  0  0  0  0  0  0
    3.8806   -2.5958   -0.1061 H   0  0  0  0  0  0  0  0  0  0  0  0
    2.6961   -2.9644   -1.3825 H   0  0  0  0  0  0  0  0  0  0  0  0
  5  6  2  0  0  0  0
  5  7  1  0  0  0  0
  2  3  1  0  0  0  0
  2  4  1  0  0  0  0
  2  5  1  0  0  0  0
  1  2  1  0  0  0  0
 19 20  2  0  0  0  0
 19 21  1  0  0  0  0
 17 18  1  0  0  0  0
 13 14  1  0  0  0  0
 13 15  1  0  0  0  0
 13 16  1  0  0  0  0
 11 12  1  0  0  0  0
 11 13  1  0  0  0  0
 11 17  1  0  0  0  0
  9 10  1  0  0  0  0
  9 11  1  0  0  0  0
  9 19  1  0  0  0  0
  7  8  1  0  0  0  0
  7  9  1  0  0  0  0
 23 24  1  0  0  0  0
 23 25  1  0  0  0  0
 23 26  1  0  0  0  0
 21 22  1  0  0  0  0
 21 23  1  0  0  0  0
M  END
$$$$
default_name
  -OEChem-01062215323D

 26 25  0     1  0  0  0  0  0999 V2000
   -2.8882   -3.2497    1.2537 H   0  0  0  0  0  0  0  0  0  0  0  0
   -2.8032   -2.3157    0.7017 C   0  0  0  0  0  0  0  0  0  0  0  0
   -3.5012   -1.5857    1.1067 H   0  0  0  0  0  0  0  0  0  0  0  0
   -3.0182   -2.4907   -0.3513 H   0  0  0  0  0  0  0  0  0  0  0  0
   -1.3942   -1.7897    0.8407 C   0  0  0  0  0  0  0  0  0  0  0  0
   -0.5672   -2.4077    1.5007 O   0  0  0  0  0  0  0  0  0  0  0  0
   -1.1222   -0.6447    0.2217 N   0  0  0  0  0  0  0  0  0  0  0  0
   -1.8592   -0.1777   -0.2863 H   0  0  0  0  0  0  0  0  0  0  0  0
    0.1838    0.0363    0.2367 C   0  0  1  0  0  0  0  0  0  0  0  0
    0.0555    1.0453   -0.1536 H   0  0  0  0  0  0  0  0  0  0  0  0
    0.7542    0.1513    1.6654 C   0  0  1  0  0  0  0  0  0  0  0  0
    1.7168    0.6590    1.6084 H   0  0  0  0  0  0  0  0  0  0  0  0
   -0.1310    0.9405    2.6280 C   0  0  0  0  0  0  0  0  0  0  0  0
   -1.0595    0.4012    2.8194 H   0  0  0  0  0  0  0  0  0  0  0  0
    0.3935    1.0953    3.5702 H   0  0  0  0  0  0  0  0  0  0  0  0
   -0.3693    1.9120    2.1940 H   0  0  0  0  0  0  0  0  0  0  0  0
    0.9558   -1.1196    2.2323 O   0  0  0  0  0  0  0  0  0  0  0  0
    1.2165   -0.9989    3.1477 H   0  0  0  0  0  0  0  0  0  0  0  0
    1.1855   -0.6825   -0.6755 C   0  0  0  0  0  0  0  0  0  0  0  0
    1.3122   -0.3586   -1.8563 O   0  0  0  0  0  0  0  0  0  0  0  0
    1.9286   -1.6504   -0.1210 N   0  0  0  0  0  0  0  0  0  0  0  0
    1.7923   -1.8559    0.8551 H   0  0  0  0  0  0  0  0  0  0  0  0
    2.9274   -2.4295   -0.8510 C   0  0  0  0  0  0  0  0  0  0  0  0
    3.6285   -1.7570   -1.3493 H   0  0  0  0  0  0  0  0  0  0  0  0
    3.4768   -3.0788   -0.1690 H   0  0  0  0  0  0  0  0  0  0  0  0
    2.4343   -3.0393   -1.6111 H   0  0  0  0  0  0  0  0  0  0  0  0
  5  6  2  0  0  0  0
  5  7  1  0  0  0  0
  2  3  1  0  0  0  0
  2  4  1  0  0  0  0
  2  5  1  0  0  0  0
  1  2  1  0  0  0  0
 19 20  2  0  0  0  0
 19 21  1  0  0  0  0
 17 18  1  0  0  0  0
 13 14  1  0  0  0  0
 13 15  1  0  0  0  0
 13 16  1  0  0  0  0
 11 12  1  0  0  0  0
 11 13  1  0  0  0  0
 11 17  1  0  0  0  0
  9 10  1  0  0  0  0
  9 11  1  0  0  0  0
  9 19  1  0  0  0  0
  7  8  1  0  0  0  0
  7  9  1  0  0  0  0
 23 24  1  0  0  0  0
 23 25  1  0  0  0  0
 23 26  1  0  0  0  0
 21 22  1  0  0  0  0
 21 23  1  0  0  0  0
M  END
$$$$
default_name
  -OEChem-01062215323D

 26 25  0     1  0  0  0  0  0999 V2000
   -2.8882   -3.2497    1.2537 H   0  0  0  0  0  0  0  0  0  0  0  0
   -2.8032   -2.3157    0.7017 C   0  0  0  0  0  0  0  0  0  0  0  0
   -3.5012   -1.5857    1.1067 H   0  0  0  0  0  0  0  0  0  0  0  0
   -3.0182   -2.4907   -0.3513 H   0  0  0  0  0  0  0  0  0  0  0  0
   -1.3942   -1.7897    0.8407 C   0  0  0  0  0  0  0  0  0  0  0  0
   -0.5672   -2.4077    1.5007 O   0  0  0  0  0  0  0  0  0  0  0  0
   -1.1222   -0.6447    0.2217 N   0  0  0  0  0  0  0  0  0  0  0  0
   -1.8592   -0.1777   -0.2863 H   0  0  0  0  0  0  0  0  0  0  0  0
    0.1838    0.0363    0.2367 C   0  0  1  0  0  0  0  0  0  0  0  0
    0.0555    1.0453   -0.1536 H   0  0  0  0  0  0  0  0  0  0  0  0
    0.7542    0.1513    1.6654 C   0  0  1  0  0  0  0  0  0  0  0  0
    1.7168    0.6590    1.6084 H   0  0  0  0  0  0  0  0  0  0  0  0
   -0.1310    0.9405    2.6280 C   0  0  0  0  0  0  0  0  0  0  0  0
   -1.0595    0.4012    2.8194 H   0  0  0  0  0  0  0  0  0  0  0  0
    0.3935    1.0953    3.5702 H   0  0  0  0  0  0  0  0  0  0  0  0
   -0.3693    1.9120    2.1940 H   0  0  0  0  0  0  0  0  0  0  0  0
    0.9558   -1.1196    2.2323 O   0  0  0  0  0  0  0  0  0  0  0  0
    1.2165   -0.9989    3.1477 H   0  0  0  0  0  0  0  0  0  0  0  0
    1.1855   -0.6825   -0.6755 C   0  0  0  0  0  0  0  0  0  0  0  0
    1.5150   -0.1997   -1.7587 O   0  0  0  0  0  0  0  0  0  0  0  0
    1.7006   -1.8353   -0.2257 N   0  0  0  0  0  0  0  0  0  0  0  0
    1.4062   -2.1686    0.6775 H   0  0  0  0  0  0  0  0  0  0  0  0
    2.6663   -2.6414   -0.9708 C   0  0  0  0  0  0  0  0  0  0  0  0
    3.5172   -2.0225   -1.2623 H   0  0  0  0  0  0  0  0  0  0  0  0
    3.0199   -3.4725   -0.3603 H   0  0  0  0  0  0  0  0  0  0  0  0
    2.1975   -3.0326   -1.8763 H   0  0  0  0  0  0  0  0  0  0  0  0
  5  6  2  0  0  0  0
  5  7  1  0  0  0  0
  2  3  1  0  0  0  0
  2  4  1  0  0  0  0
  2  5  1  0  0  0  0
  1  2  1  0  0  0  0
 19 20  2  0  0  0  0
 19 21  1  0  0  0  0
 17 18  1  0  0  0  0
 13 14  1  0  0  0  0
 13 15  1  0  0  0  0
 13 16  1  0  0  0  0
 11 12  1  0  0  0  0
 11 13  1  0  0  0  0
 11 17  1  0  0  0  0
  9 10  1  0  0  0  0
  9 11  1  0  0  0  0
  9 19  1  0  0  0  0
  7  8  1  0  0  0  0
  7  9  1  0  0  0  0
 23 24  1  0  0  0  0
 23 25  1  0  0  0  0
 23 26  1  0  0  0  0
 21 22  1  0  0  0  0
 21 23  1  0  0  0  0
M  END
$$$$
default_name
  -OEChem-01062215323D

 26 25  0     1  0  0  0  0  0999 V2000
   -2.8882   -3.2497    1.2537 H   0  0  0  0  0  0  0  0  0  0  0  0
   -2.8032   -2.3157    0.7017 C   0  0  0  0  0  0  0  0  0  0  0  0
   -3.5012   -1.5857    1.1067 H   0  0  0  0  0  0  0  0  0  0  0  0
   -3.0182   -2.4907   -0.3513 H   0  0  0  0  0  0  0  0  0  0  0  0
   -1.3942   -1.7897    0.8407 C   0  0  0  0  0  0  0  0  0  0  0  0
   -0.5672   -2.4077    1.5007 O   0  0  0  0  0  0  0  0  0  0  0  0
   -1.1222   -0.6447    0.2217 N   0  0  0  0  0  0  0  0  0  0  0  0
   -1.8592   -0.1777   -0.2863 H   0  0  0  0  0  0  0  0  0  0  0  0
    0.1838    0.0363    0.2367 C   0  0  1  0  0  0  0  0  0  0  0  0
    0.0555    1.0453   -0.1536 H   0  0  0  0  0  0  0  0  0  0  0  0
    0.7542    0.1513    1.6654 C   0  0  1  0  0  0  0  0  0  0  0  0
    1.7168    0.6590    1.6084 H   0  0  0  0  0  0  0  0  0  0  0  0
   -0.1310    0.9405    2.6280 C   0  0  0  0  0  0  0  0  0  0  0  0
   -1.0595    0.4012    2.8194 H   0  0  0  0  0  0  0  0  0  0  0  0
    0.3935    1.0953    3.5702 H   0  0  0  0  0  0  0  0  0  0  0  0
   -0.3693    1.9120    2.1940 H   0  0  0  0  0  0  0  0  0  0  0  0
    0.9558   -1.1196    2.2323 O   0  0  0  0  0  0  0  0  0  0  0  0
    1.2165   -0.9989    3.1477 H   0  0  0  0  0  0  0  0  0  0  0  0
    1.1855   -0.6825   -0.6755 C   0  0  0  0  0  0  0  0  0  0  0  0
    1.7236   -0.0939   -1.6131 O   0  0  0  0  0  0  0  0  0  0  0  0
    1.4646   -1.9611   -0.3857 N   0  0  0  0  0  0  0  0  0  0  0  0
    1.0066   -2.3812    0.4062 H   0  0  0  0  0  0  0  0  0  0  0  0
    2.3960   -2.7856   -1.1540 C   0  0  0  0  0  0  0  0  0  0  0  0
    3.3583   -2.2765   -1.2366 H   0  0  0  0  0  0  0  0  0  0  0  0
    2.5413   -3.7501   -0.6671 H   0  0  0  0  0  0  0  0  0  0  0  0
    2.0020   -2.9449   -2.1600 H   0  0  0  0  0  0  0  0  0  0  0  0
  5  6  2  0  0  0  0
  5  7  1  0  0  0  0
  2  3  1  0  0  0  0
  2  4  1  0  0  0  0
  2  5  1  0  0  0  0
  1  2  1  0  0  0  0
 19 20  2  0  0  0  0
 19 21  1  0  0  0  0
 17 18  1  0  0  0  0
 13 14  1  0  0  0  0
 13 15  1  0  0  0  0
 13 16  1  0  0  0  0
 11 12  1  0  0  0  0
 11 13  1  0  0  0  0
 11 17  1  0  0  0  0
  9 10  1  0  0  0  0
  9 11  1  0  0  0  0
  9 19  1  0  0  0  0
  7  8  1  0  0  0  0
  7  9  1  0  0  0  0
 23 24  1  0  0  0  0
 23 25  1  0  0  0  0
 23 26  1  0  0  0  0
 21 22  1  0  0  0  0
 21 23  1  0  0  0  0
M  END
$$$$
default_name
  -OEChem-01062215323D

 26 25  0     1  0  0  0  0  0999 V2000
   -2.8882   -3.2497    1.2537 H   0  0  0  0  0  0  0  0  0  0  0  0
   -2.8032   -2.3157    0.7017 C   0  0  0  0  0  0  0  0  0  0  0  0
   -3.5012   -1.5857    1.1067 H   0  0  0  0  0  0  0  0  0  0  0  0
   -3.0182   -2.4907   -0.3513 H   0  0  0  0  0  0  0  0  0  0  0  0
   -1.3942   -1.7897    0.8407 C   0  0  0  0  0  0  0  0  0  0  0  0
   -0.5672   -2.4077    1.5007 O   0  0  0  0  0  0  0  0  0  0  0  0
   -1.1222   -0.6447    0.2217 N   0  0  0  0  0  0  0  0  0  0  0  0
   -1.8592   -0.1777   -0.2863 H   0  0  0  0  0  0  0  0  0  0  0  0
    0.1838    0.0363    0.2367 C   0  0  1  0  0  0  0  0  0  0  0  0
    0.0555    1.0453   -0.1536 H   0  0  0  0  0  0  0  0  0  0  0  0
    0.7542    0.1513    1.6654 C   0  0  1  0  0  0  0  0  0  0  0  0
    1.7168    0.6590    1.6084 H   0  0  0  0  0  0  0  0  0  0  0  0
   -0.1310    0.9405    2.6280 C   0  0  0  0  0  0  0  0  0  0  0  0
   -1.0595    0.4012    2.8194 H   0  0  0  0  0  0  0  0  0  0  0  0
    0.3935    1.0953    3.5702 H   0  0  0  0  0  0  0  0  0  0  0  0
   -0.3693    1.9120    2.1940 H   0  0  0  0  0  0  0  0  0  0  0  0
    0.9558   -1.1196    2.2323 O   0  0  0  0  0  0  0  0  0  0  0  0
    1.2165   -0.9989    3.1477 H   0  0  0  0  0  0  0  0  0  0  0  0
    1.1855   -0.6825   -0.6755 C   0  0  0  0  0  0  0  0  0  0  0  0
    1.9237   -0.0484   -1.4292 O   0  0  0  0  0  0  0  0  0  0  0  0
    1.2367   -2.0192   -0.5902 N   0  0  0  0  0  0  0  0  0  0  0  0
    0.6207   -2.4792    0.0598 H   0  0  0  0  0  0  0  0  0  0  0  0
    2.1349   -2.8523   -1.3881 C   0  0  0  0  0  0  0  0  0  0  0  0
    3.1626   -2.5018   -1.2740 H   0  0  0  0  0  0  0  0  0  0  0  0
    2.0734   -3.8928   -1.0685 H   0  0  0  0  0  0  0  0  0  0  0  0
    1.8611   -2.7821   -2.4430 H   0  0  0  0  0  0  0  0  0  0  0  0
  5  6  2  0  0  0  0
  5  7  1  0  0  0  0
  2  3  1  0  0  0  0
  2  4  1  0  0  0  0
  2  5  1  0  0  0  0
  1  2  1  0  0  0  0
 19 20  2  0  0  0  0
 19 21  1  0  0  0  0
 17 18  1  0  0  0  0
 13 14  1  0  0  0  0
 13 15  1  0  0  0  0
 13 16  1  0  0  0  0
 11 12  1  0  0  0  0
 11 13  1  0  0  0  0
 11 17  1  0  0  0  0
  9 10  1  0  0  0  0
  9 11  1  0  0  0  0
  9 19  1  0  0  0  0
  7  8  1  0  0  0  0
  7  9  1  0  0  0  0
 23 24  1  0  0  0  0
 23 25  1  0  0  0  0
 23 26  1  0  0  0  0
 21 22  1  0  0  0  0
 21 23  1  0  0  0  0
M  END
$$$$
default_name
  -OEChem-01062215323D

 26 25  0     1  0  0  0  0  0999 V2000
   -2.8882   -3.2497    1.2537 H   0  0  0  0  0  0  0  0  0  0  0  0
   -2.8032   -2.3157    0.7017 C   0  0  0  0  0  0  0  0  0  0  0  0
   -3.5012   -1.5857    1.1067 H   0  0  0  0  0  0  0  0  0  0  0  0
   -3.0182   -2.4907   -0.3513 H   0  0  0  0  0  0  0  0  0  0  0  0
   -1.3942   -1.7897    0.8407 C   0  0  0  0  0  0  0  0  0  0  0  0
   -0.5672   -2.4077    1.5007 O   0  0  0  0  0  0  0  0  0  0  0  0
   -1.1222   -0.6447    0.2217 N   0  0  0  0  0  0  0  0  0  0  0  0
   -1.8592   -0.1777   -0.2863 H   0  0  0  0  0  0  0  0  0  0  0  0
    0.1838    0.0363    0.2367 C   0  0  1  0  0  0  0  0  0  0  0  0
    0.0555    1.0453   -0.1536 H   0  0  0  0  0  0  0  0  0  0  0  0
    0.7542    0.1513    1.6654 C   0  0  1  0  0  0  0  0  0  0  0  0
    1.7168    0.6590    1.6084 H   0  0  0  0  0  0  0  0  0  0  0  0
   -0.1310    0.9405    2.6280 C   0  0  0  0  0  0  0  0  0  0  0  0
   -1.0595    0.4012    2.8194 H   0  0  0  0  0  0  0  0  0  0  0  0
    0.3935    1.0953    3.5702 H   0  0  0  0  0  0  0  0  0  0  0  0
   -0.3693    1.9120    2.1940 H   0  0  0  0  0  0  0  0  0  0  0  0
    0.9558   -1.1196    2.2323 O   0  0  0  0  0  0  0  0  0  0  0  0
    1.2165   -0.9989    3.1477 H   0  0  0  0  0  0  0  0  0  0  0  0
    1.1855   -0.6825   -0.6755 C   0  0  0  0  0  0  0  0  0  0  0  0
    2.1017   -0.0664   -1.2196 O   0  0  0  0  0  0  0  0  0  0  0  0
    1.0324   -2.0056   -0.8252 N   0  0  0  0  0  0  0  0  0  0  0  0
    0.2750   -2.4559   -0.3382 H   0  0  0  0  0  0  0  0  0  0  0  0
    1.9008   -2.8370   -1.6572 C   0  0  0  0  0  0  0  0  0  0  0  0
    2.9434   -2.6829   -1.3720 H   0  0  0  0  0  0  0  0  0  0  0  0
    1.6483   -3.8907   -1.5370 H   0  0  0  0  0  0  0  0  0  0  0  0
    1.7844   -2.5554   -2.7059 H   0  0  0  0  0  0  0  0  0  0  0  0
  5  6  2  0  0  0  0
  5  7  1  0  0  0  0
  2  3  1  0  0  0  0
  2  4  1  0  0  0  0
  2  5  1  0  0  0  0
  1  2  1  0  0  0  0
 19 20  2  0  0  0  0
 19 21  1  0  0  0  0
 17 18  1  0  0  0  0
 13 14  1  0  0  0  0
 13 15  1  0  0  0  0
 13 16  1  0  0  0  0
 11 12  1  0  0  0  0
 11 13  1  0  0  0  0
 11 17  1  0  0  0  0
  9 10  1  0  0  0  0
  9 11  1  0  0  0  0
  9 19  1  0  0  0  0
  7  8  1  0  0  0  0
  7  9  1  0  0  0  0
 23 24  1  0  0  0  0
 23 25  1  0  0  0  0
 23 26  1  0  0  0  0
 21 22  1  0  0  0  0
 21 23  1  0  0  0  0
M  END
$$$$
default_name
  -OEChem-01062215323D

 26 25  0     1  0  0  0  0  0999 V2000
   -2.8882   -3.2497    1.2537 H   0  0  0  0  0  0  0  0  0  0  0  0
   -2.8032   -2.3157    0.7017 C   0  0  0  0  0  0  0  0  0  0  0  0
   -3.5012   -1.5857    1.1067 H   0  0  0  0  0  0  0  0  0  0  0  0
   -3.0182   -2.4907   -0.3513 H   0  0  0  0  0  0  0  0  0  0  0  0
   -1.3942   -1.7897    0.8407 C   0  0  0  0  0  0  0  0  0  0  0  0
   -0.5672   -2.4077    1.5007 O   0  0  0  0  0  0  0  0  0  0  0  0
   -1.1222   -0.6447    0.2217 N   0  0  0  0  0  0  0  0  0  0  0  0
   -1.8592   -0.1777   -0.2863 H   0  0  0  0  0  0  0  0  0  0  0  0
    0.1838    0.0363    0.2367 C   0  0  1  0  0  0  0  0  0  0  0  0
    0.0555    1.0453   -0.1536 H   0  0  0  0  0  0  0  0  0  0  0  0
    0.7542    0.1513    1.6654 C   0  0  1  0  0  0  0  0  0  0  0  0
    1.7168    0.6590    1.6084 H   0  0  0  0  0  0  0  0  0  0  0  0
   -0.1310    0.9405    2.6280 C   0  0  0  0  0  0  0  0  0  0  0  0
   -1.0595    0.4012    2.8194 H   0  0  0  0  0  0  0  0  0  0  0  0
    0.3935    1.0953    3.5702 H   0  0  0  0  0  0  0  0  0  0  0  0
   -0.3693    1.9120    2.1940 H   0  0  0  0  0  0  0  0  0  0  0  0
    0.9558   -1.1196    2.2323 O   0  0  0  0  0  0  0  0  0  0  0  0
    1.2165   -0.9989    3.1477 H   0  0  0  0  0  0  0  0  0  0  0  0
    1.1855   -0.6825   -0.6755 C   0  0  0  0  0  0  0  0  0  0  0  0
    2.2454   -0.1465   -0.9986 O   0  0  0  0  0  0  0  0  0  0  0  0
    0.8656   -1.9214   -1.0747 N   0  0  0  0  0  0  0  0  0  0  0  0
   -0.0071   -2.3129   -0.7606 H   0  0  0  0  0  0  0  0  0  0  0  0
    1.7097   -2.7407   -1.9430 C   0  0  0  0  0  0  0  0  0  0  0  0
    2.7157   -2.8075   -1.5238 H   0  0  0  0  0  0  0  0  0  0  0  0
    1.2947   -3.7440   -2.0408 H   0  0  0  0  0  0  0  0  0  0  0  0
    1.7771   -2.2801   -2.9309 H   0  0  0  0  0  0  0  0  0  0  0  0
  5  6  2  0  0  0  0
  5  7  1  0  0  0  0
  2  3  1  0  0  0  0
  2  4  1  0  0  0  0
  2  5  1  0  0  0  0
  1  2  1  0  0  0  0
 19 20  2  0  0  0  0
 19 21  1  0  0  0  0
 17 18  1  0  0  0  0
 13 14  1  0  0  0  0
 13 15  1  0  0  0  0
 13 16  1  0  0  0  0
 11 12  1  0  0  0  0
 11 13  1  0  0  0  0
 11 17  1  0  0  0  0
  9 10  1  0  0  0  0
  9 11  1  0  0  0  0
  9 19  1  0  0  0  0
  7  8  1  0  0  0  0
  7  9  1  0  0  0  0
 23 24  1  0  0  0  0
 23 25  1  0  0  0  0
 23 26  1  0  0  0  0
 21 22  1  0  0  0  0
 21 23  1  0  0  0  0
M  END
$$$$
default_name
  -OEChem-01062215323D

 26 25  0     1  0  0  0  0  0999 V2000
   -2.8882   -3.2497    1.2537 H   0  0  0  0  0  0  0  0  0  0  0  0
   -2.8032   -2.3157    0.7017 C   0  0  0  0  0  0  0  0  0  0  0  0
   -3.5012   -1.5857    1.1067 H   0  0  0  0  0  0  0  0  0  0  0  0
   -3.0182   -2.4907   -0.3513 H   0  0  0  0  0  0  0  0  0  0  0  0
   -1.3942   -1.7897    0.8407 C   0  0  0  0  0  0  0  0  0  0  0  0
   -0.5672   -2.4077    1.5007 O   0  0  0  0  0  0  0  0  0  0  0  0
   -1.1222   -0.6447    0.2217 N   0  0  0  0  0  0  0  0  0  0  0  0
   -1.8592   -0.1777   -0.2863 H   0  0  0  0  0  0  0  0  0  0  0  0
    0.1838    0.0363    0.2367 C   0  0  1  0  0  0  0  0  0  0  0  0
    0.0555    1.0453   -0.1536 H   0  0  0  0  0  0  0  0  0  0  0  0
    0.7542    0.1513    1.6654 C   0  0  1  0  0  0  0  0  0  0  0  0
    1.7168    0.6590    1.6084 H   0  0  0  0  0  0  0  0  0  0  0  0
   -0.1310    0.9405    2.6280 C   0  0  0  0  0  0  0  0  0  0  0  0
   -1.0595    0.4012    2.8194 H   0  0  0  0  0  0  0  0  0  0  0  0
    0.3935    1.0953    3.5702 H   0  0  0  0  0  0  0  0  0  0  0  0
   -0.3693    1.9120    2.1940 H   0  0  0  0  0  0  0  0  0  0  0  0
    0.9558   -1.1196    2.2323 O   0  0  0  0  0  0  0  0  0  0  0  0
    1.2165   -0.9989    3.1477 H   0  0  0  0  0  0  0  0  0  0  0  0
    1.1855   -0.6825   -0.6755 C   0  0  0  0  0  0  0  0  0  0  0  0
    2.3451   -0.2835   -0.7812 O   0  0  0  0  0  0  0  0  0  0  0  0
    0.7478   -1.7722   -1.3217 N   0  0  0  0  0  0  0  0  0  0  0  0
   -0.2063   -2.0599   -1.1787 H   0  0  0  0  0  0  0  0  0  0  0  0
    1.5746   -2.5699   -2.2258 C   0  0  0  0  0  0  0  0  0  0  0  0
    2.4949   -2.8672   -1.7192 H   0  0  0  0  0  0  0  0  0  0  0  0
    1.0369   -3.4627   -2.5455 H   0  0  0  0  0  0  0  0  0  0  0  0
    1.8397   -1.9751   -3.1025 H   0  0  0  0  0  0  0  0  0  0  0  0
  5  6  2  0  0  0  0
  5  7  1  0  0  0  0
  2  3  1  0  0  0  0
  2  4  1  0  0  0  0
  2  5  1  0  0  0  0
  1  2  1  0  0  0  0
 19 20  2  0  0  0  0
 19 21  1  0  0  0  0
 17 18  1  0  0  0  0
 13 14  1  0  0  0  0
 13 15  1  0  0  0  0
 13 16  1  0  0  0  0
 11 12  1  0  0  0  0
 11 13  1  0  0  0  0
 11 17  1  0  0  0  0
  9 10  1  0  0  0  0
  9 11  1  0  0  0  0
  9 19  1  0  0  0  0
  7  8  1  0  0  0  0
  7  9  1  0  0  0  0
 23 24  1  0  0  0  0
 23 25  1  0  0  0  0
 23 26  1  0  0  0  0
 21 22  1  0  0  0  0
 21 23  1  0  0  0  0
M  END
$$$$
default_name
  -OEChem-01062215323D

 26 25  0     1  0  0  0  0  0999 V2000
   -2.8882   -3.2497    1.2537 H   0  0  0  0  0  0  0  0  0  0  0  0
   -2.8032   -2.3157    0.7017 C   0  0  0  0  0  0  0  0  0  0  0  0
   -3.5012   -1.5857    1.1067 H   0  0  0  0  0  0  0  0  0  0  0  0
   -3.0182   -2.4907   -0.3513 H   0  0  0  0  0  0  0  0  0  0  0  0
   -1.3942   -1.7897    0.8407 C   0  0  0  0  0  0  0  0  0  0  0  0
   -0.5672   -2.4077    1.5007 O   0  0  0  0  0  0  0  0  0  0  0  0
   -1.1222   -0.6447    0.2217 N   0  0  0  0  0  0  0  0  0  0  0  0
   -1.8592   -0.1777   -0.2863 H   0  0  0  0  0  0  0  0  0  0  0  0
    0.1838    0.0363    0.2367 C   0  0  1  0  0  0  0  0  0  0  0  0
    0.0555    1.0453   -0.1536 H   0  0  0  0  0  0  0  0  0  0  0  0
    0.7542    0.1513    1.6654 C   0  0  1  0  0  0  0  0  0  0  0  0
    1.7168    0.6590    1.6084 H   0  0  0  0  0  0  0  0  0  0  0  0
   -0.1310    0.9405    2.6280 C   0  0  0  0  0  0  0  0  0  0  0  0
   -1.0595    0.4012    2.8194 H   0  0  0  0  0  0  0  0  0  0  0  0
    0.3935    1.0953    3.5702 H   0  0  0  0  0  0  0  0  0  0  0  0
   -0.3693    1.9120    2.1940 H   0  0  0  0  0  0  0  0  0  0  0  0
    0.9558   -1.1196    2.2323 O   0  0  0  0  0  0  0  0  0  0  0  0
    1.2165   -0.9989    3.1477 H   0  0  0  0  0  0  0  0  0  0  0  0
    1.1855   -0.6825   -0.6755 C   0  0  0  0  0  0  0  0  0  0  0  0
    2.3940   -0.4678   -0.5823 O   0  0  0  0  0  0  0  0  0  0  0  0
    0.6869   -1.5682   -1.5493 N   0  0  0  0  0  0  0  0  0  0  0  0
   -0.3091   -1.7143   -1.5640 H   0  0  0  0  0  0  0  0  0  0  0  0
    1.5048   -2.3364   -2.4866 C   0  0  0  0  0  0  0  0  0  0  0  0
    2.2962   -2.8579   -1.9447 H   0  0  0  0  0  0  0  0  0  0  0  0
    0.8924   -3.0661   -3.0168 H   0  0  0  0  0  0  0  0  0  0  0  0
    1.9680   -1.6610   -3.2091 H   0  0  0  0  0  0  0  0  0  0  0  0
  5  6  2  0  0  0  0
  5  7  1  0  0  0  0
  2  3  1  0  0  0  0
  2  4  1  0  0  0  0
  2  5  1  0  0  0  0
  1  2  1  0  0  0  0
 19 20  2  0  0  0  0
 19 21  1  0  0  0  0
 17 18  1  0  0  0  0
 13 14  1  0  0  0  0
 13 15  1  0  0  0  0
 13 16  1  0  0  0  0
 11 12  1  0  0  0  0
 11 13  1  0  0  0  0
 11 17  1  0  0  0  0
  9 10  1  0  0  0  0
  9 11  1  0  0  0  0
  9 19  1  0  0  0  0
  7  8  1  0  0  0  0
  7  9  1  0  0  0  0
 23 24  1  0  0  0  0
 23 25  1  0  0  0  0
 23 26  1  0  0  0  0
 21 22  1  0  0  0  0
 21 23  1  0  0  0  0
M  END
$$$$
default_name
  -OEChem-01062215323D

 26 25  0     1  0  0  0  0  0999 V2000
   -2.8882   -3.2497    1.2537 H   0  0  0  0  0  0  0  0  0  0  0  0
   -2.8032   -2.3157    0.7017 C   0  0  0  0  0  0  0  0  0  0  0  0
   -3.5012   -1.5857    1.1067 H   0  0  0  0  0  0  0  0  0  0  0  0
   -3.0182   -2.4907   -0.3513 H   0  0  0  0  0  0  0  0  0  0  0  0
   -1.3942   -1.7897    0.8407 C   0  0  0  0  0  0  0  0  0  0  0  0
   -0.5672   -2.4077    1.5007 O   0  0  0  0  0  0  0  0  0  0  0  0
   -1.1222   -0.6447    0.2217 N   0  0  0  0  0  0  0  0  0  0  0  0
   -1.8592   -0.1777   -0.2863 H   0  0  0  0  0  0  0  0  0  0  0  0
    0.1838    0.0363    0.2367 C   0  0  1  0  0  0  0  0  0  0  0  0
    0.0555    1.0453   -0.1536 H   0  0  0  0  0  0  0  0  0  0  0  0
    0.7542    0.1513    1.6654 C   0  0  1  0  0  0  0  0  0  0  0  0
    1.7168    0.6590    1.6084 H   0  0  0  0  0  0  0  0  0  0  0  0
   -0.1310    0.9405    2.6280 C   0  0  0  0  0  0  0  0  0  0  0  0
   -1.0595    0.4012    2.8194 H   0  0  0  0  0  0  0  0  0  0  0  0
    0.3935    1.0953    3.5702 H   0  0  0  0  0  0  0  0  0  0  0  0
   -0.3693    1.9120    2.1940 H   0  0  0  0  0  0  0  0  0  0  0  0
    0.9558   -1.1196    2.2323 O   0  0  0  0  0  0  0  0  0  0  0  0
    1.2165   -0.9989    3.1477 H   0  0  0  0  0  0  0  0  0  0  0  0
    1.1855   -0.6825   -0.6755 C   0  0  0  0  0  0  0  0  0  0  0  0
    2.3886   -0.6871   -0.4154 O   0  0  0  0  0  0  0  0  0  0  0  0
    0.6871   -1.3233   -1.7420 N   0  0  0  0  0  0  0  0  0  0  0  0
   -0.3084   -1.2994   -1.8901 H   0  0  0  0  0  0  0  0  0  0  0  0
    1.5049   -2.0559   -2.7075 C   0  0  0  0  0  0  0  0  0  0  0  0
    2.1331   -2.7801   -2.1851 H   0  0  0  0  0  0  0  0  0  0  0  0
    0.8711   -2.5810   -3.4224 H   0  0  0  0  0  0  0  0  0  0  0  0
    2.1532   -1.3594   -3.2434 H   0  0  0  0  0  0  0  0  0  0  0  0
  5  6  2  0  0  0  0
  5  7  1  0  0  0  0
  2  3  1  0  0  0  0
  2  4  1  0  0  0  0
  2  5  1  0  0  0  0
  1  2  1  0  0  0  0
 19 20  2  0  0  0  0
 19 21  1  0  0  0  0
 17 18  1  0  0  0  0
 13 14  1  0  0  0  0
 13 15  1  0  0  0  0
 13 16  1  0  0  0  0
 11 12  1  0  0  0  0
 11 13  1  0  0  0  0
 11 17  1  0  0  0  0
  9 10  1  0  0  0  0
  9 11  1  0  0  0  0
  9 19  1  0  0  0  0
  7  8  1  0  0  0  0
  7  9  1  0  0  0  0
 23 24  1  0  0  0  0
 23 25  1  0  0  0  0
 23 26  1  0  0  0  0
 21 22  1  0  0  0  0
 21 23  1  0  0  0  0
M  END
$$$$
default_name
  -OEChem-01062215323D

 26 25  0     1  0  0  0  0  0999 V2000
   -2.8882   -3.2497    1.2537 H   0  0  0  0  0  0  0  0  0  0  0  0
   -2.8032   -2.3157    0.7017 C   0  0  0  0  0  0  0  0  0  0  0  0
   -3.5012   -1.5857    1.1067 H   0  0  0  0  0  0  0  0  0  0  0  0
   -3.0182   -2.4907   -0.3513 H   0  0  0  0  0  0  0  0  0  0  0  0
   -1.3942   -1.7897    0.8407 C   0  0  0  0  0  0  0  0  0  0  0  0
   -0.5672   -2.4077    1.5007 O   0  0  0  0  0  0  0  0  0  0  0  0
   -1.1222   -0.6447    0.2217 N   0  0  0  0  0  0  0  0  0  0  0  0
   -1.8592   -0.1777   -0.2863 H   0  0  0  0  0  0  0  0  0  0  0  0
    0.1838    0.0363    0.2367 C   0  0  1  0  0  0  0  0  0  0  0  0
    0.0555    1.0453   -0.1536 H   0  0  0  0  0  0  0  0  0  0  0  0
    0.7542    0.1513    1.6654 C   0  0  1  0  0  0  0  0  0  0  0  0
    1.7168    0.6590    1.6084 H   0  0  0  0  0  0  0  0  0  0  0  0
   -0.1310    0.9405    2.6280 C   0  0  0  0  0  0  0  0  0  0  0  0
   -1.0595    0.4012    2.8194 H   0  0  0  0  0  0  0  0  0  0  0  0
    0.3935    1.0953    3.5702 H   0  0  0  0  0  0  0  0  0  0  0  0
   -0.3693    1.9120    2.1940 H   0  0  0  0  0  0  0  0  0  0  0  0
    0.9558   -1.1196    2.2323 O   0  0  0  0  0  0  0  0  0  0  0  0
    1.2165   -0.9989    3.1477 H   0  0  0  0  0  0  0  0  0  0  0  0
    1.1855   -0.6825   -0.6755 C   0  0  0  0  0  0  0  0  0  0  0  0
    2.3295   -0.9262   -0.2919 O   0  0  0  0  0  0  0  0  0  0  0  0
    0.7484   -1.0542   -1.8868 N   0  0  0  0  0  0  0  0  0  0  0  0
   -0.2043   -0.8437   -2.1350 H   0  0  0  0  0  0  0  0  0  0  0  0
    1.5749   -1.7477   -2.8735 C   0  0  0  0  0  0  0  0  0  0  0  0
    2.0167   -2.6393   -2.4239 H   0  0  0  0  0  0  0  0  0  0  0  0
    0.9744   -2.0406   -3.7349 H   0  0  0  0  0  0  0  0  0  0  0  0
    2.3826   -1.0908   -3.2032 H   0  0  0  0  0  0  0  0  0  0  0  0
  5  6  2  0  0  0  0
  5  7  1  0  0  0  0
  2  3  1  0  0  0  0
  2  4  1  0  0  0  0
  2  5  1  0  0  0  0
  1  2  1  0  0  0  0
 19 20  2  0  0  0  0
 19 21  1  0  0  0  0
 17 18  1  0  0  0  0
 13 14  1  0  0  0  0
 13 15  1  0  0  0  0
 13 16  1  0  0  0  0
 11 12  1  0  0  0  0
 11 13  1  0  0  0  0
 11 17  1  0  0  0  0
  9 10  1  0  0  0  0
  9 11  1  0  0  0  0
  9 19  1  0  0  0  0
  7  8  1  0  0  0  0
  7  9  1  0  0  0  0
 23 24  1  0  0  0  0
 23 25  1  0  0  0  0
 23 26  1  0  0  0  0
 21 22  1  0  0  0  0
 21 23  1  0  0  0  0
M  END
$$$$
default_name
  -OEChem-01062215323D

 26 25  0     1  0  0  0  0  0999 V2000
   -2.8882   -3.2497    1.2537 H   0  0  0  0  0  0  0  0  0  0  0  0
   -2.8032   -2.3157    0.7017 C   0  0  0  0  0  0  0  0  0  0  0  0
   -3.5012   -1.5857    1.1067 H   0  0  0  0  0  0  0  0  0  0  0  0
   -3.0182   -2.4907   -0.3513 H   0  0  0  0  0  0  0  0  0  0  0  0
   -1.3942   -1.7897    0.8407 C   0  0  0  0  0  0  0  0  0  0  0  0
   -0.5672   -2.4077    1.5007 O   0  0  0  0  0  0  0  0  0  0  0  0
   -1.1222   -0.6447    0.2217 N   0  0  0  0  0  0  0  0  0  0  0  0
   -1.8592   -0.1777   -0.2863 H   0  0  0  0  0  0  0  0  0  0  0  0
    0.1838    0.0363    0.2367 C   0  0  1  0  0  0  0  0  0  0  0  0
    0.0555    1.0453   -0.1536 H   0  0  0  0  0  0  0  0  0  0  0  0
    0.7542    0.1513    1.6654 C   0  0  1  0  0  0  0  0  0  0  0  0
    1.7168    0.6590    1.6084 H   0  0  0  0  0  0  0  0  0  0  0  0
   -0.1310    0.9405    2.6280 C   0  0  0  0  0  0  0  0  0  0  0  0
   -1.0595    0.4012    2.8194 H   0  0  0  0  0  0  0  0  0  0  0  0
    0.3935    1.0953    3.5702 H   0  0  0  0  0  0  0  0  0  0  0  0
   -0.3693    1.9120    2.1940 H   0  0  0  0  0  0  0  0  0  0  0  0
    0.9558   -1.1196    2.2323 O   0  0  0  0  0  0  0  0  0  0  0  0
    1.2165   -0.9989    3.1477 H   0  0  0  0  0  0  0  0  0  0  0  0
    1.1855   -0.6825   -0.6755 C   0  0  0  0  0  0  0  0  0  0  0  0
    2.2205   -1.1689   -0.2203 O   0  0  0  0  0  0  0  0  0  0  0  0
    0.8665   -0.7792   -1.9737 N   0  0  0  0  0  0  0  0  0  0  0  0
   -0.0039   -0.3781   -2.2818 H   0  0  0  0  0  0  0  0  0  0  0  0
    1.7102   -1.4328   -2.9731 C   0  0  0  0  0  0  0  0  0  0  0  0
    1.9549   -2.4449   -2.6450 H   0  0  0  0  0  0  0  0  0  0  0  0
    1.1952   -1.4817   -3.9328 H   0  0  0  0  0  0  0  0  0  0  0  0
    2.6407   -0.8735   -3.0910 H   0  0  0  0  0  0  0  0  0  0  0  0
  5  6  2  0  0  0  0
  5  7  1  0  0  0  0
  2  3  1  0  0  0  0
  2  4  1  0  0  0  0
  2  5  1  0  0  0  0
  1  2  1  0  0  0  0
 19 20  2  0  0  0  0
 19 21  1  0  0  0  0
 17 18  1  0  0  0  0
 13 14  1  0  0  0  0
 13 15  1  0  0  0  0
 13 16  1  0  0  0  0
 11 12  1  0  0  0  0
 11 13  1  0  0  0  0
 11 17  1  0  0  0  0
  9 10  1  0  0  0  0
  9 11  1  0  0  0  0
  9 19  1  0  0  0  0
  7  8  1  0  0  0  0
  7  9  1  0  0  0  0
 23 24  1  0  0  0  0
 23 25  1  0  0  0  0
 23 26  1  0  0  0  0
 21 22  1  0  0  0  0
 21 23  1  0  0  0  0
M  END
$$$$
default_name
  -OEChem-01062215323D

 26 25  0     1  0  0  0  0  0999 V2000
   -2.8882   -3.2497    1.2537 H   0  0  0  0  0  0  0  0  0  0  0  0
   -2.8032   -2.3157    0.7017 C   0  0  0  0  0  0  0  0  0  0  0  0
   -3.5012   -1.5857    1.1067 H   0  0  0  0  0  0  0  0  0  0  0  0
   -3.0182   -2.4907   -0.3513 H   0  0  0  0  0  0  0  0  0  0  0  0
   -1.3942   -1.7897    0.8407 C   0  0  0  0  0  0  0  0  0  0  0  0
   -0.5672   -2.4077    1.5007 O   0  0  0  0  0  0  0  0  0  0  0  0
   -1.1222   -0.6447    0.2217 N   0  0  0  0  0  0  0  0  0  0  0  0
   -1.8592   -0.1777   -0.2863 H   0  0  0  0  0  0  0  0  0  0  0  0
    0.1838    0.0363    0.2367 C   0  0  1  0  0  0  0  0  0  0  0  0
    0.0555    1.0453   -0.1536 H   0  0  0  0  0  0  0  0  0  0  0  0
    0.7542    0.1513    1.6654 C   0  0  1  0  0  0  0  0  0  0  0  0
    1.7168    0.6590    1.6084 H   0  0  0  0  0  0  0  0  0  0  0  0
   -0.1310    0.9405    2.6280 C   0  0  0  0  0  0  0  0  0  0  0  0
   -1.0595    0.4012    2.8194 H   0  0  0  0  0  0  0  0  0  0  0  0
    0.3935    1.0953    3.5702 H   0  0  0  0  0  0  0  0  0  0  0  0
   -0.3693    1.9120    2.1940 H   0  0  0  0  0  0  0  0  0  0  0  0
    0.9558   -1.1196    2.2323 O   0  0  0  0  0  0  0  0  0  0  0  0
    1.2165   -0.9989    3.1477 H   0  0  0  0  0  0  0  0  0  0  0  0
    1.1855   -0.6825   -0.6755 C   0  0  0  0  0  0  0  0  0  0  0  0
    2.0693   -1.3988   -0.2053 O   0  0  0  0  0  0  0  0  0  0  0  0
    1.0336   -0.5171   -1.9969 N   0  0  0  0  0  0  0  0  0  0  0  0
    0.2791    0.0656   -2.3206 H   0  0  0  0  0  0  0  0  0  0  0  0
    1.9014   -1.1325   -2.9998 C   0  0  0  0  0  0  0  0  0  0  0  0
    1.9519   -2.2103   -2.8331 H   0  0  0  0  0  0  0  0  0  0  0  0
    1.5186   -0.9424   -4.0027 H   0  0  0  0  0  0  0  0  0  0  0  0
    2.9099   -0.7222   -2.9147 H   0  0  0  0  0  0  0  0  0  0  0  0
  5  6  2  0  0  0  0
  5  7  1  0  0  0  0
  2  3  1  0  0  0  0
  2  4  1  0  0  0  0
  2  5  1  0  0  0  0
  1  2  1  0  0  0  0
 19 20  2  0  0  0  0
 19 21  1  0  0  0  0
 17 18  1  0  0  0  0
 13 14  1  0  0  0  0
 13 15  1  0  0  0  0
 13 16  1  0  0  0  0
 11 12  1  0  0  0  0
 11 13  1  0  0  0  0
 11 17  1  0  0  0  0
  9 10  1  0  0  0  0
  9 11  1  0  0  0  0
  9 19  1  0  0  0  0
  7  8  1  0  0  0  0
  7  9  1  0  0  0  0
 23 24  1  0  0  0  0
 23 25  1  0  0  0  0
 23 26  1  0  0  0  0
 21 22  1  0  0  0  0
 21 23  1  0  0  0  0
M  END
$$$$
default_name
  -OEChem-01062215323D

 26 25  0     1  0  0  0  0  0999 V2000
   -2.8882   -3.2497    1.2537 H   0  0  0  0  0  0  0  0  0  0  0  0
   -2.8032   -2.3157    0.7017 C   0  0  0  0  0  0  0  0  0  0  0  0
   -3.5012   -1.5857    1.1067 H   0  0  0  0  0  0  0  0  0  0  0  0
   -3.0182   -2.4907   -0.3513 H   0  0  0  0  0  0  0  0  0  0  0  0
   -1.3942   -1.7897    0.8407 C   0  0  0  0  0  0  0  0  0  0  0  0
   -0.5672   -2.4077    1.5007 O   0  0  0  0  0  0  0  0  0  0  0  0
   -1.1222   -0.6447    0.2217 N   0  0  0  0  0  0  0  0  0  0  0  0
   -1.8592   -0.1777   -0.2863 H   0  0  0  0  0  0  0  0  0  0  0  0
    0.1838    0.0363    0.2367 C   0  0  1  0  0  0  0  0  0  0  0  0
    0.0555    1.0453   -0.1536 H   0  0  0  0  0  0  0  0  0  0  0  0
    0.7542    0.1513    1.6654 C   0  0  1  0  0  0  0  0  0  0  0  0
    1.7168    0.6590    1.6084 H   0  0  0  0  0  0  0  0  0  0  0  0
   -0.1310    0.9405    2.6280 C   0  0  0  0  0  0  0  0  0  0  0  0
   -1.0595    0.4012    2.8194 H   0  0  0  0  0  0  0  0  0  0  0  0
    0.3935    1.0953    3.5702 H   0  0  0  0  0  0  0  0  0  0  0  0
   -0.3693    1.9120    2.1940 H   0  0  0  0  0  0  0  0  0  0  0  0
    0.9558   -1.1196    2.2323 O   0  0  0  0  0  0  0  0  0  0  0  0
    1.2165   -0.9989    3.1477 H   0  0  0  0  0  0  0  0  0  0  0  0
    1.1855   -0.6825   -0.6755 C   0  0  0  0  0  0  0  0  0  0  0  0
    1.8859   -1.6000   -0.2480 O   0  0  0  0  0  0  0  0  0  0  0  0
    1.2381   -0.2857   -1.9547 N   0  0  0  0  0  0  0  0  0  0  0  0
    0.6255    0.4571   -2.2488 H   0  0  0  0  0  0  0  0  0  0  0  0
    2.1355   -0.8674   -2.9516 C   0  0  0  0  0  0  0  0  0  0  0  0
    2.0079   -1.9515   -2.9755 H   0  0  0  0  0  0  0  0  0  0  0  0
    1.9224   -0.4594   -3.9398 H   0  0  0  0  0  0  0  0  0  0  0  0
    3.1717   -0.6474   -2.6861 H   0  0  0  0  0  0  0  0  0  0  0  0
  5  6  2  0  0  0  0
  5  7  1  0  0  0  0
  2  3  1  0  0  0  0
  2  4  1  0  0  0  0
  2  5  1  0  0  0  0
  1  2  1  0  0  0  0
 19 20  2  0  0  0  0
 19 21  1  0  0  0  0
 17 18  1  0  0  0  0
 13 14  1  0  0  0  0
 13 15  1  0  0  0  0
 13 16  1  0  0  0  0
 11 12  1  0  0  0  0
 11 13  1  0  0  0  0
 11 17  1  0  0  0  0
  9 10  1  0  0  0  0
  9 11  1  0  0  0  0
  9 19  1  0  0  0  0
  7  8  1  0  0  0  0
  7  9  1  0  0  0  0
 23 24  1  0  0  0  0
 23 25  1  0  0  0  0
 23 26  1  0  0  0  0
 21 22  1  0  0  0  0
 21 23  1  0  0  0  0
M  END
$$$$
default_name
  -OEChem-01062215323D

 26 25  0     1  0  0  0  0  0999 V2000
   -2.8882   -3.2497    1.2537 H   0  0  0  0  0  0  0  0  0  0  0  0
   -2.8032   -2.3157    0.7017 C   0  0  0  0  0  0  0  0  0  0  0  0
   -3.5012   -1.5857    1.1067 H   0  0  0  0  0  0  0  0  0  0  0  0
   -3.0182   -2.4907   -0.3513 H   0  0  0  0  0  0  0  0  0  0  0  0
   -1.3942   -1.7897    0.8407 C   0  0  0  0  0  0  0  0  0  0  0  0
   -0.5672   -2.4077    1.5007 O   0  0  0  0  0  0  0  0  0  0  0  0
   -1.1222   -0.6447    0.2217 N   0  0  0  0  0  0  0  0  0  0  0  0
   -1.8592   -0.1777   -0.2863 H   0  0  0  0  0  0  0  0  0  0  0  0
    0.1838    0.0363    0.2367 C   0  0  1  0  0  0  0  0  0  0  0  0
    0.0555    1.0453   -0.1536 H   0  0  0  0  0  0  0  0  0  0  0  0
    0.7542    0.1513    1.6654 C   0  0  1  0  0  0  0  0  0  0  0  0
    1.7168    0.6590    1.6084 H   0  0  0  0  0  0  0  0  0  0  0  0
   -0.1310    0.9405    2.6280 C   0  0  0  0  0  0  0  0  0  0  0  0
   -1.0595    0.4012    2.8194 H   0  0  0  0  0  0  0  0  0  0  0  0
    0.3935    1.0953    3.5702 H   0  0  0  0  0  0  0  0  0  0  0  0
   -0.3693    1.9120    2.1940 H   0  0  0  0  0  0  0  0  0  0  0  0
    0.9558   -1.1196    2.2323 O   0  0  0  0  0  0  0  0  0  0  0  0
    1.2165   -0.9989    3.1477 H   0  0  0  0  0  0  0  0  0  0  0  0
    1.1855   -0.6825   -0.6755 C   0  0  0  0  0  0  0  0  0  0  0  0
    1.6831   -1.7590   -0.3455 O   0  0  0  0  0  0  0  0  0  0  0  0
    1.4661   -0.1008   -1.8500 N   0  0  0  0  0  0  0  0  0  0  0  0
    1.0117    0.7699   -2.0712 H   0  0  0  0  0  0  0  0  0  0  0  0
    2.3967   -0.6555   -2.8318 C   0  0  0  0  0  0  0  0  0  0  0  0
    2.1192   -1.6860   -3.0625 H   0  0  0  0  0  0  0  0  0  0  0  0
    2.3792   -0.0657   -3.7485 H   0  0  0  0  0  0  0  0  0  0  0  0
    3.4085   -0.6540   -2.4209 H   0  0  0  0  0  0  0  0  0  0  0  0
  5  6  2  0  0  0  0
  5  7  1  0  0  0  0
  2  3  1  0  0  0  0
  2  4  1  0  0  0  0
  2  5  1  0  0  0  0
  1  2  1  0  0  0  0
 19 20  2  0  0  0  0
 19 21  1  0  0  0  0
 17 18  1  0  0  0  0
 13 14  1  0  0  0  0
 13 15  1  0  0  0  0
 13 16  1  0  0  0  0
 11 12  1  0  0  0  0
 11 13  1  0  0  0  0
 11 17  1  0  0  0  0
  9 10  1  0  0  0  0
  9 11  1  0  0  0  0
  9 19  1  0  0  0  0
  7  8  1  0  0  0  0
  7  9  1  0  0  0  0
 23 24  1  0  0  0  0
 23 25  1  0  0  0  0
 23 26  1  0  0  0  0
 21 22  1  0  0  0  0
 21 23  1  0  0  0  0
M  END
$$$$
default_name
  -OEChem-01062215323D

 26 25  0     1  0  0  0  0  0999 V2000
   -2.8882   -3.2497    1.2537 H   0  0  0  0  0  0  0  0  0  0  0  0
   -2.8032   -2.3157    0.7017 C   0  0  0  0  0  0  0  0  0  0  0  0
   -3.5012   -1.5857    1.1067 H   0  0  0  0  0  0  0  0  0  0  0  0
   -3.0182   -2.4907   -0.3513 H   0  0  0  0  0  0  0  0  0  0  0  0
   -1.3942   -1.7897    0.8407 C   0  0  0  0  0  0  0  0  0  0  0  0
   -0.5672   -2.4077    1.5007 O   0  0  0  0  0  0  0  0  0  0  0  0
   -1.1222   -0.6447    0.2217 N   0  0  0  0  0  0  0  0  0  0  0  0
   -1.8592   -0.1777   -0.2863 H   0  0  0  0  0  0  0  0  0  0  0  0
    0.1838    0.0363    0.2367 C   0  0  1  0  0  0  0  0  0  0  0  0
    0.0555    1.0453   -0.1536 H   0  0  0  0  0  0  0  0  0  0  0  0
    0.7542    0.1513    1.6654 C   0  0  1  0  0  0  0  0  0  0  0  0
    1.7168    0.6590    1.6084 H   0  0  0  0  0  0  0  0  0  0  0  0
   -0.1310    0.9405    2.6280 C   0  0  0  0  0  0  0  0  0  0  0  0
   -1.0595    0.4012    2.8194 H   0  0  0  0  0  0  0  0  0  0  0  0
    0.3935    1.0953    3.5702 H   0  0  0  0  0  0  0  0  0  0  0  0
   -0.3693    1.9120    2.1940 H   0  0  0  0  0  0  0  0  0  0  0  0
    0.9558   -1.1196    2.2323 O   0  0  0  0  0  0  0  0  0  0  0  0
    1.2165   -0.9989    3.1477 H   0  0  0  0  0  0  0  0  0  0  0  0
    1.1855   -0.6825   -0.6755 C   0  0  0  0  0  0  0  0  0  0  0  0
    1.4745   -1.8648   -0.4912 O   0  0  0  0  0  0  0  0  0  0  0  0
    1.7021    0.0250   -1.6899 N   0  0  0  0  0  0  0  0  0  0  0  0
    1.4113    0.9825   -1.7999 H   0  0  0  0  0  0  0  0  0  0  0  0
    2.6670   -0.5113   -2.6486 C   0  0  0  0  0  0  0  0  0  0  0  0
    2.2781   -1.4319   -3.0882 H   0  0  0  0  0  0  0  0  0  0  0  0
    2.8579    0.2119   -3.4416 H   0  0  0  0  0  0  0  0  0  0  0  0
    3.6040   -0.7417   -2.1371 H   0  0  0  0  0  0  0  0  0  0  0  0
  5  6  2  0  0  0  0
  5  7  1  0  0  0  0
  2  3  1  0  0  0  0
  2  4  1  0  0  0  0
  2  5  1  0  0  0  0
  1  2  1  0  0  0  0
 19 20  2  0  0  0  0
 19 21  1  0  0  0  0
 17 18  1  0  0  0  0
 13 14  1  0  0  0  0
 13 15  1  0  0  0  0
 13 16  1  0  0  0  0
 11 12  1  0  0  0  0
 11 13  1  0  0  0  0
 11 17  1  0  0  0  0
  9 10  1  0  0  0  0
  9 11  1  0  0  0  0
  9 19  1  0  0  0  0
  7  8  1  0  0  0  0
  7  9  1  0  0  0  0
 23 24  1  0  0  0  0
 23 25  1  0  0  0  0
 23 26  1  0  0  0  0
 21 22  1  0  0  0  0
 21 23  1  0  0  0  0
M  END
$$$$
default_name
  -OEChem-01062215323D

 26 25  0     1  0  0  0  0  0999 V2000
   -2.8882   -3.2497    1.2537 H   0  0  0  0  0  0  0  0  0  0  0  0
   -2.8032   -2.3157    0.7017 C   0  0  0  0  0  0  0  0  0  0  0  0
   -3.5012   -1.5857    1.1067 H   0  0  0  0  0  0  0  0  0  0  0  0
   -3.0182   -2.4907   -0.3513 H   0  0  0  0  0  0  0  0  0  0  0  0
   -1.3942   -1.7897    0.8407 C   0  0  0  0  0  0  0  0  0  0  0  0
   -0.5672   -2.4077    1.5007 O   0  0  0  0  0  0  0  0  0  0  0  0
   -1.1222   -0.6447    0.2217 N   0  0  0  0  0  0  0  0  0  0  0  0
   -1.8592   -0.1777   -0.2863 H   0  0  0  0  0  0  0  0  0  0  0  0
    0.1838    0.0363    0.2367 C   0  0  1  0  0  0  0  0  0  0  0  0
    0.0555    1.0453   -0.1536 H   0  0  0  0  0  0  0  0  0  0  0  0
    0.7542    0.1513    1.6654 C   0  0  1  0  0  0  0  0  0  0  0  0
    1.7168    0.6590    1.6084 H   0  0  0  0  0  0  0  0  0  0  0  0
   -0.1310    0.9405    2.6280 C   0  0  0  0  0  0  0  0  0  0  0  0
   -1.0595    0.4012    2.8194 H   0  0  0  0  0  0  0  0  0  0  0  0
    0.3935    1.0953    3.5702 H   0  0  0  0  0  0  0  0  0  0  0  0
   -0.3693    1.9120    2.1940 H   0  0  0  0  0  0  0  0  0  0  0  0
    0.9558   -1.1196    2.2323 O   0  0  0  0  0  0  0  0  0  0  0  0
    1.2165   -0.9989    3.1477 H   0  0  0  0  0  0  0  0  0  0  0  0
    1.1855   -0.6825   -0.6755 C   0  0  0  0  0  0  0  0  0  0  0  0
    1.2743   -1.9102   -0.6751 O   0  0  0  0  0  0  0  0  0  0  0  0
    1.9300    0.0831   -1.4854 N   0  0  0  0  0  0  0  0  0  0  0  0
    1.7971    1.0805   -1.4535 H   0  0  0  0  0  0  0  0  0  0  0  0
    2.9281   -0.4446   -2.4145 C   0  0  0  0  0  0  0  0  0  0  0  0
    2.4738   -1.2067   -3.0508 H   0  0  0  0  0  0  0  0  0  0  0  0
    3.3257    0.3546   -3.0403 H   0  0  0  0  0  0  0  0  0  0  0  0
    3.7449   -0.9045   -1.8541 H   0  0  0  0  0  0  0  0  0  0  0  0
  5  6  2  0  0  0  0
  5  7  1  0  0  0  0
  2  3  1  0  0  0  0
  2  4  1  0  0  0  0
  2  5  1  0  0  0  0
  1  2  1  0  0  0  0
 19 20  2  0  0  0  0
 19 21  1  0  0  0  0
 17 18  1  0  0  0  0
 13 14  1  0  0  0  0
 13 15  1  0  0  0  0
 13 16  1  0  0  0  0
 11 12  1  0  0  0  0
 11 13  1  0  0  0  0
 11 17  1  0  0  0  0
  9 10  1  0  0  0  0
  9 11  1  0  0  0  0
  9 19  1  0  0  0  0
  7  8  1  0  0  0  0
  7  9  1  0  0  0  0
 23 24  1  0  0  0  0
 23 25  1  0  0  0  0
 23 26  1  0  0  0  0
 21 22  1  0  0  0  0
 21 23  1  0  0  0  0
M  END
$$$$
default_name
  -OEChem-01062215323D

 26 25  0     1  0  0  0  0  0999 V2000
   -2.8882   -3.2497    1.2537 H   0  0  0  0  0  0  0  0  0  0  0  0
   -2.8032   -2.3157    0.7017 C   0  0  0  0  0  0  0  0  0  0  0  0
   -3.5012   -1.5857    1.1067 H   0  0  0  0  0  0  0  0  0  0  0  0
   -3.0182   -2.4907   -0.3513 H   0  0  0  0  0  0  0  0  0  0  0  0
   -1.3942   -1.7897    0.8407 C   0  0  0  0  0  0  0  0  0  0  0  0
   -0.5672   -2.4077    1.5007 O   0  0  0  0  0  0  0  0  0  0  0  0
   -1.1222   -0.6447    0.2217 N   0  0  0  0  0  0  0  0  0  0  0  0
   -1.8592   -0.1777   -0.2863 H   0  0  0  0  0  0  0  0  0  0  0  0
    0.1838    0.0363    0.2367 C   0  0  1  0  0  0  0  0  0  0  0  0
    0.0555    1.0453   -0.1536 H   0  0  0  0  0  0  0  0  0  0  0  0
    0.7542    0.1513    1.6654 C   0  0  1  0  0  0  0  0  0  0  0  0
    1.7168    0.6590    1.6084 H   0  0  0  0  0  0  0  0  0  0  0  0
   -0.1310    0.9405    2.6280 C   0  0  0  0  0  0  0  0  0  0  0  0
   -1.0595    0.4012    2.8194 H   0  0  0  0  0  0  0  0  0  0  0  0
    0.3935    1.0953    3.5702 H   0  0  0  0  0  0  0  0  0  0  0  0
   -0.3693    1.9120    2.1940 H   0  0  0  0  0  0  0  0  0  0  0  0
    0.9558   -1.1196    2.2323 O   0  0  0  0  0  0  0  0  0  0  0  0
    1.2165   -0.9989    3.1477 H   0  0  0  0  0  0  0  0  0  0  0  0
    1.1855   -0.6825   -0.6755 C   0  0  0  0  0  0  0  0  0  0  0  0
    1.0964   -1.8923   -0.8847 O   0  0  0  0  0  0  0  0  0  0  0  0
    2.1343    0.0695   -1.2504 N   0  0  0  0  0  0  0  0  0  0  0  0
    2.1429    1.0572   -1.0555 H   0  0  0  0  0  0  0  0  0  0  0  0
    3.1622   -0.4599   -2.1454 C   0  0  0  0  0  0  0  0  0  0  0  0
    2.6930   -1.0256   -2.9529 H   0  0  0  0  0  0  0  0  0  0  0  0
    3.7509    0.3525   -2.5718 H   0  0  0  0  0  0  0  0  0  0  0  0
    3.8216   -1.1313   -1.5912 H   0  0  0  0  0  0  0  0  0  0  0  0
  5  6  2  0  0  0  0
  5  7  1  0  0  0  0
  2  3  1  0  0  0  0
  2  4  1  0  0  0  0
  2  5  1  0  0  0  0
  1  2  1  0  0  0  0
 19 20  2  0  0  0  0
 19 21  1  0  0  0  0
 17 18  1  0  0  0  0
 13 14  1  0  0  0  0
 13 15  1  0  0  0  0
 13 16  1  0  0  0  0
 11 12  1  0  0  0  0
 11 13  1  0  0  0  0
 11 17  1  0  0  0  0
  9 10  1  0  0  0  0
  9 11  1  0  0  0  0
  9 19  1  0  0  0  0
  7  8  1  0  0  0  0
  7  9  1  0  0  0  0
 23 24  1  0  0  0  0
 23 25  1  0  0  0  0
 23 26  1  0  0  0  0
 21 22  1  0  0  0  0
 21 23  1  0  0  0  0
M  END
$$$$
default_name
  -OEChem-01062215323D

 26 25  0     1  0  0  0  0  0999 V2000
   -2.8882   -3.2497    1.2537 H   0  0  0  0  0  0  0  0  0  0  0  0
   -2.8032   -2.3157    0.7017 C   0  0  0  0  0  0  0  0  0  0  0  0
   -3.5012   -1.5857    1.1067 H   0  0  0  0  0  0  0  0  0  0  0  0
   -3.0182   -2.4907   -0.3513 H   0  0  0  0  0  0  0  0  0  0  0  0
   -1.3942   -1.7897    0.8407 C   0  0  0  0  0  0  0  0  0  0  0  0
   -0.5672   -2.4077    1.5007 O   0  0  0  0  0  0  0  0  0  0  0  0
   -1.1222   -0.6447    0.2217 N   0  0  0  0  0  0  0  0  0  0  0  0
   -1.8592   -0.1777   -0.2863 H   0  0  0  0  0  0  0  0  0  0  0  0
    0.1838    0.0363    0.2367 C   0  0  1  0  0  0  0  0  0  0  0  0
    0.0555    1.0453   -0.1536 H   0  0  0  0  0  0  0  0  0  0  0  0
    0.7542    0.1513    1.6654 C   0  0  1  0  0  0  0  0  0  0  0  0
    1.7168    0.6590    1.6084 H   0  0  0  0  0  0  0  0  0  0  0  0
   -0.1310    0.9405    2.6280 C   0  0  0  0  0  0  0  0  0  0  0  0
   -1.0595    0.4012    2.8194 H   0  0  0  0  0  0  0  0  0  0  0  0
    0.3935    1.0953    3.5702 H   0  0  0  0  0  0  0  0  0  0  0  0
   -0.3693    1.9120    2.1940 H   0  0  0  0  0  0  0  0  0  0  0  0
    0.9558   -1.1196    2.2323 O   0  0  0  0  0  0  0  0  0  0  0  0
    1.2165   -0.9989    3.1477 H   0  0  0  0  0  0  0  0  0  0  0  0
    1.1855   -0.6825   -0.6755 C   0  0  0  0  0  0  0  0  0  0  0  0
    0.9526   -1.8121   -1.1057 O   0  0  0  0  0  0  0  0  0  0  0  0
    2.3011   -0.0147   -1.0010 N   0  0  0  0  0  0  0  0  0  0  0  0
    2.4250    0.9142   -0.6331 H   0  0  0  0  0  0  0  0  0  0  0  0
    3.3532   -0.5562   -1.8596 C   0  0  0  0  0  0  0  0  0  0  0  0
    2.9207   -0.9009   -2.8010 H   0  0  0  0  0  0  0  0  0  0  0  0
    4.1045    0.2058   -2.0680 H   0  0  0  0  0  0  0  0  0  0  0  0
    3.8289   -1.4065   -1.3663 H   0  0  0  0  0  0  0  0  0  0  0  0
  5  6  2  0  0  0  0
  5  7  1  0  0  0  0
  2  3  1  0  0  0  0
  2  4  1  0  0  0  0
  2  5  1  0  0  0  0
  1  2  1  0  0  0  0
 19 20  2  0  0  0  0
 19 21  1  0  0  0  0
 17 18  1  0  0  0  0
 13 14  1  0  0  0  0
 13 15  1  0  0  0  0
 13 16  1  0  0  0  0
 11 12  1  0  0  0  0
 11 13  1  0  0  0  0
 11 17  1  0  0  0  0
  9 10  1  0  0  0  0
  9 11  1  0  0  0  0
  9 19  1  0  0  0  0
  7  8  1  0  0  0  0
  7  9  1  0  0  0  0
 23 24  1  0  0  0  0
 23 25  1  0  0  0  0
 23 26  1  0  0  0  0
 21 22  1  0  0  0  0
 21 23  1  0  0  0  0
M  END
$$$$
default_name
  -OEChem-01062215323D

 26 25  0     1  0  0  0  0  0999 V2000
   -2.8882   -3.2497    1.2537 H   0  0  0  0  0  0  0  0  0  0  0  0
   -2.8032   -2.3157    0.7017 C   0  0  0  0  0  0  0  0  0  0  0  0
   -3.5012   -1.5857    1.1067 H   0  0  0  0  0  0  0  0  0  0  0  0
   -3.0182   -2.4907   -0.3513 H   0  0  0  0  0  0  0  0  0  0  0  0
   -1.3942   -1.7897    0.8407 C   0  0  0  0  0  0  0  0  0  0  0  0
   -0.5672   -2.4077    1.5007 O   0  0  0  0  0  0  0  0  0  0  0  0
   -1.1222   -0.6447    0.2217 N   0  0  0  0  0  0  0  0  0  0  0  0
   -1.8592   -0.1777   -0.2863 H   0  0  0  0  0  0  0  0  0  0  0  0
    0.1838    0.0363    0.2367 C   0  0  1  0  0  0  0  0  0  0  0  0
    0.0211    1.1056    0.1067 H   0  0  0  0  0  0  0  0  0  0  0  0
    0.9227   -0.1699    1.5751 C   0  0  1  0  0  0  0  0  0  0  0  0
    1.8773    0.3532    1.5217 H   0  0  0  0  0  0  0  0  0  0  0  0
    0.1684    0.3627    2.7918 C   0  0  0  0  0  0  0  0  0  0  0  0
   -0.7365   -0.2215    2.9636 H   0  0  0  0  0  0  0  0  0  0  0  0
    0.8039    0.3060    3.6748 H   0  0  0  0  0  0  0  0  0  0  0  0
   -0.1092    1.4037    2.6241 H   0  0  0  0  0  0  0  0  0  0  0  0
    1.1765   -1.5334    1.8067 O   0  0  0  0  0  0  0  0  0  0  0  0
    1.5464   -1.6216    2.6875 H   0  0  0  0  0  0  0  0  0  0  0  0
    1.0606   -0.4374   -0.9290 C   0  0  0  0  0  0  0  0  0  0  0  0
    0.6416   -1.2605   -1.7428 O   0  0  0  0  0  0  0  0  0  0  0  0
    2.2815    0.1058   -1.0330 N   0  0  0  0  0  0  0  0  0  0  0  0
    2.5593    0.7886   -0.3474 H   0  0  0  0  0  0  0  0  0  0  0  0
    3.2380   -0.2358   -2.0847 C   0  0  0  0  0  0  0  0  0  0  0  0
    2.7690   -0.1168   -3.0634 H   0  0  0  0  0  0  0  0  0  0  0  0
    4.1146    0.4097   -2.0263 H   0  0  0  0  0  0  0  0  0  0  0  0
    3.5486   -1.2770   -1.9749 H   0  0  0  0  0  0  0  0  0  0  0  0
  5  6  2  0  0  0  0
  5  7  1  0  0  0  0
  2  3  1  0  0  0  0
  2  4  1  0  0  0  0
  2  5  1  0  0  0  0
  1  2  1  0  0  0  0
 19 20  2  0  0  0  0
 19 21  1  0  0  0  0
 17 18  1  0  0  0  0
 13 14  1  0  0  0  0
 13 15  1  0  0  0  0
 13 16  1  0  0  0  0
 11 12  1  0  0  0  0
 11 13  1  0  0  0  0
 11 17  1  0  0  0  0
  9 10  1  0  0  0  0
  9 11  1  0  0  0  0
  9 19  1  0  0  0  0
  7  8  1  0  0  0  0
  7  9  1  0  0  0  0
 23 24  1  0  0  0  0
 23 25  1  0  0  0  0
 23 26  1  0  0  0  0
 21 22  1  0  0  0  0
 21 23  1  0  0  0  0
M  END
$$$$
default_name
  -OEChem-01062215323D

 26 25  0     1  0  0  0  0  0999 V2000
   -2.8882   -3.2497    1.2537 H   0  0  0  0  0  0  0  0  0  0  0  0
   -2.8032   -2.3157    0.7017 C   0  0  0  0  0  0  0  0  0  0  0  0
   -3.5012   -1.5857    1.1067 H   0  0  0  0  0  0  0  0  0  0  0  0
   -3.0182   -2.4907   -0.3513 H   0  0  0  0  0  0  0  0  0  0  0  0
   -1.3942   -1.7897    0.8407 C   0  0  0  0  0  0  0  0  0  0  0  0
   -0.5672   -2.4077    1.5007 O   0  0  0  0  0  0  0  0  0  0  0  0
   -1.1222   -0.6447    0.2217 N   0  0  0  0  0  0  0  0  0  0  0  0
   -1.8592   -0.1777   -0.2863 H   0  0  0  0  0  0  0  0  0  0  0  0
    0.1838    0.0363    0.2367 C   0  0  1  0  0  0  0  0  0  0  0  0
    0.0211    1.1056    0.1067 H   0  0  0  0  0  0  0  0  0  0  0  0
    0.9227   -0.1699    1.5751 C   0  0  1  0  0  0  0  0  0  0  0  0
    1.8773    0.3532    1.5217 H   0  0  0  0  0  0  0  0  0  0  0  0
    0.1684    0.3627    2.7918 C   0  0  0  0  0  0  0  0  0  0  0  0
   -0.7365   -0.2215    2.9636 H   0  0  0  0  0  0  0  0  0  0  0  0
    0.8039    0.3060    3.6748 H   0  0  0  0  0  0  0  0  0  0  0  0
   -0.1092    1.4037    2.6241 H   0  0  0  0  0  0  0  0  0  0  0  0
    1.1765   -1.5334    1.8067 O   0  0  0  0  0  0  0  0  0  0  0  0
    1.5464   -1.6216    2.6875 H   0  0  0  0  0  0  0  0  0  0  0  0
    1.0606   -0.4374   -0.9290 C   0  0  0  0  0  0  0  0  0  0  0  0
    0.5713   -1.0363   -1.8867 O   0  0  0  0  0  0  0  0  0  0  0  0
    2.3669   -0.1439   -0.8672 N   0  0  0  0  0  0  0  0  0  0  0  0
    2.7036    0.3655   -0.0669 H   0  0  0  0  0  0  0  0  0  0  0  0
    3.3360   -0.5218   -1.8947 C   0  0  0  0  0  0  0  0  0  0  0  0
    2.9932   -0.1743   -2.8714 H   0  0  0  0  0  0  0  0  0  0  0  0
    4.3101   -0.0821   -1.6795 H   0  0  0  0  0  0  0  0  0  0  0  0
    3.4305   -1.6092   -1.9287 H   0  0  0  0  0  0  0  0  0  0  0  0
  5  6  2  0  0  0  0
  5  7  1  0  0  0  0
  2  3  1  0  0  0  0
  2  4  1  0  0  0  0
  2  5  1  0  0  0  0
  1  2  1  0  0  0  0
 19 20  2  0  0  0  0
 19 21  1  0  0  0  0
 17 18  1  0  0  0  0
 13 14  1  0  0  0  0
 13 15  1  0  0  0  0
 13 16  1  0  0  0  0
 11 12  1  0  0  0  0
 11 13  1  0  0  0  0
 11 17  1  0  0  0  0
  9 10  1  0  0  0  0
  9 11  1  0  0  0  0
  9 19  1  0  0  0  0
  7  8  1  0  0  0  0
  7  9  1  0  0  0  0
 23 24  1  0  0  0  0
 23 25  1  0  0  0  0
 23 26  1  0  0  0  0
 21 22  1  0  0  0  0
 21 23  1  0  0  0  0
M  END
$$$$
default_name
  -OEChem-01062215323D

 26 25  0     1  0  0  0  0  0999 V2000
   -2.8882   -3.2497    1.2537 H   0  0  0  0  0  0  0  0  0  0  0  0
   -2.8032   -2.3157    0.7017 C   0  0  0  0  0  0  0  0  0  0  0  0
   -3.5012   -1.5857    1.1067 H   0  0  0  0  0  0  0  0  0  0  0  0
   -3.0182   -2.4907   -0.3513 H   0  0  0  0  0  0  0  0  0  0  0  0
   -1.3942   -1.7897    0.8407 C   0  0  0  0  0  0  0  0  0  0  0  0
   -0.5672   -2.4077    1.5007 O   0  0  0  0  0  0  0  0  0  0  0  0
   -1.1222   -0.6447    0.2217 N   0  0  0  0  0  0  0  0  0  0  0  0
   -1.8592   -0.1777   -0.2863 H   0  0  0  0  0  0  0  0  0  0  0  0
    0.1838    0.0363    0.2367 C   0  0  1  0  0  0  0  0  0  0  0  0
    0.0211    1.1056    0.1067 H   0  0  0  0  0  0  0  0  0  0  0  0
    0.9227   -0.1699    1.5751 C   0  0  1  0  0  0  0  0  0  0  0  0
    1.8773    0.3532    1.5217 H   0  0  0  0  0  0  0  0  0  0  0  0
    0.1684    0.3627    2.7918 C   0  0  0  0  0  0  0  0  0  0  0  0
   -0.7365   -0.2215    2.9636 H   0  0  0  0  0  0  0  0  0  0  0  0
    0.8039    0.3060    3.6748 H   0  0  0  0  0  0  0  0  0  0  0  0
   -0.1092    1.4037    2.6241 H   0  0  0  0  0  0  0  0  0  0  0  0
    1.1765   -1.5334    1.8067 O   0  0  0  0  0  0  0  0  0  0  0  0
    1.5464   -1.6216    2.6875 H   0  0  0  0  0  0  0  0  0  0  0  0
    1.0606   -0.4374   -0.9290 C   0  0  0  0  0  0  0  0  0  0  0  0
    0.5591   -0.7846   -1.9982 O   0  0  0  0  0  0  0  0  0  0  0  0
    2.3871   -0.4265   -0.7373 N   0  0  0  0  0  0  0  0  0  0  0  0
    2.7374   -0.1130    0.1530 H   0  0  0  0  0  0  0  0  0  0  0  0
    3.3593   -0.8453   -1.7458 C   0  0  0  0  0  0  0  0  0  0  0  0
    3.1831   -0.3024   -2.6765 H   0  0  0  0  0  0  0  0  0  0  0  0
    4.3744   -0.6468   -1.4016 H   0  0  0  0  0  0  0  0  0  0  0  0
    3.2474   -1.9137   -1.9427 H   0  0  0  0  0  0  0  0  0  0  0  0
  5  6  2  0  0  0  0
  5  7  1  0  0  0  0
  2  3  1  0  0  0  0
  2  4  1  0  0  0  0
  2  5  1  0  0  0  0
  1  2  1  0  0  0  0
 19 20  2  0  0  0  0
 19 21  1  0  0  0  0
 17 18  1  0  0  0  0
 13 14  1  0  0  0  0
 13 15  1  0  0  0  0
 13 16  1  0  0  0  0
 11 12  1  0  0  0  0
 11 13  1  0  0  0  0
 11 17  1  0  0  0  0
  9 10  1  0  0  0  0
  9 11  1  0  0  0  0
  9 19  1  0  0  0  0
  7  8  1  0  0  0  0
  7  9  1  0  0  0  0
 23 24  1  0  0  0  0
 23 25  1  0  0  0  0
 23 26  1  0  0  0  0
 21 22  1  0  0  0  0
 21 23  1  0  0  0  0
M  END
$$$$
default_name
  -OEChem-01062215323D

 26 25  0     1  0  0  0  0  0999 V2000
   -2.8882   -3.2497    1.2537 H   0  0  0  0  0  0  0  0  0  0  0  0
   -2.8032   -2.3157    0.7017 C   0  0  0  0  0  0  0  0  0  0  0  0
   -3.5012   -1.5857    1.1067 H   0  0  0  0  0  0  0  0  0  0  0  0
   -3.0182   -2.4907   -0.3513 H   0  0  0  0  0  0  0  0  0  0  0  0
   -1.3942   -1.7897    0.8407 C   0  0  0  0  0  0  0  0  0  0  0  0
   -0.5672   -2.4077    1.5007 O   0  0  0  0  0  0  0  0  0  0  0  0
   -1.1222   -0.6447    0.2217 N   0  0  0  0  0  0  0  0  0  0  0  0
   -1.8592   -0.1777   -0.2863 H   0  0  0  0  0  0  0  0  0  0  0  0
    0.1838    0.0363    0.2367 C   0  0  1  0  0  0  0  0  0  0  0  0
    0.0211    1.1056    0.1067 H   0  0  0  0  0  0  0  0  0  0  0  0
    0.9227   -0.1699    1.5751 C   0  0  1  0  0  0  0  0  0  0  0  0
    1.8773    0.3532    1.5217 H   0  0  0  0  0  0  0  0  0  0  0  0
    0.1684    0.3627    2.7918 C   0  0  0  0  0  0  0  0  0  0  0  0
   -0.7365   -0.2215    2.9636 H   0  0  0  0  0  0  0  0  0  0  0  0
    0.8039    0.3060    3.6748 H   0  0  0  0  0  0  0  0  0  0  0  0
   -0.1092    1.4037    2.6241 H   0  0  0  0  0  0  0  0  0  0  0  0
    1.1765   -1.5334    1.8067 O   0  0  0  0  0  0  0  0  0  0  0  0
    1.5464   -1.6216    2.6875 H   0  0  0  0  0  0  0  0  0  0  0  0
    1.0606   -0.4374   -0.9290 C   0  0  0  0  0  0  0  0  0  0  0  0
    0.6057   -0.5225   -2.0697 O   0  0  0  0  0  0  0  0  0  0  0  0
    2.3406   -0.7226   -0.6519 N   0  0  0  0  0  0  0  0  0  0  0  0
    2.6583   -0.6144    0.2972 H   0  0  0  0  0  0  0  0  0  0  0  0
    3.3061   -1.1845   -1.6479 C   0  0  0  0  0  0  0  0  0  0  0  0
    3.3257   -0.4923   -2.4920 H   0  0  0  0  0  0  0  0  0  0  0  0
    4.3033   -1.2461   -1.2116 H   0  0  0  0  0  0  0  0  0  0  0  0
    3.0118   -2.1697   -2.0159 H   0  0  0  0  0  0  0  0  0  0  0  0
  5  6  2  0  0  0  0
  5  7  1  0  0  0  0
  2  3  1  0  0  0  0
  2  4  1  0  0  0  0
  2  5  1  0  0  0  0
  1  2  1  0  0  0  0
 19 20  2  0  0  0  0
 19 21  1  0  0  0  0
 17 18  1  0  0  0  0
 13 14  1  0  0  0  0
 13 15  1  0  0  0  0
 13 16  1  0  0  0  0
 11 12  1  0  0  0  0
 11 13  1  0  0  0  0
 11 17  1  0  0  0  0
  9 10  1  0  0  0  0
  9 11  1  0  0  0  0
  9 19  1  0  0  0  0
  7  8  1  0  0  0  0
  7  9  1  0  0  0  0
 23 24  1  0  0  0  0
 23 25  1  0  0  0  0
 23 26  1  0  0  0  0
 21 22  1  0  0  0  0
 21 23  1  0  0  0  0
M  END
$$$$
default_name
  -OEChem-01062215323D

 26 25  0     1  0  0  0  0  0999 V2000
   -2.8882   -3.2497    1.2537 H   0  0  0  0  0  0  0  0  0  0  0  0
   -2.8032   -2.3157    0.7017 C   0  0  0  0  0  0  0  0  0  0  0  0
   -3.5012   -1.5857    1.1067 H   0  0  0  0  0  0  0  0  0  0  0  0
   -3.0182   -2.4907   -0.3513 H   0  0  0  0  0  0  0  0  0  0  0  0
   -1.3942   -1.7897    0.8407 C   0  0  0  0  0  0  0  0  0  0  0  0
   -0.5672   -2.4077    1.5007 O   0  0  0  0  0  0  0  0  0  0  0  0
   -1.1222   -0.6447    0.2217 N   0  0  0  0  0  0  0  0  0  0  0  0
   -1.8592   -0.1777   -0.2863 H   0  0  0  0  0  0  0  0  0  0  0  0
    0.1838    0.0363    0.2367 C   0  0  1  0  0  0  0  0  0  0  0  0
    0.0211    1.1056    0.1067 H   0  0  0  0  0  0  0  0  0  0  0  0
    0.9227   -0.1699    1.5751 C   0  0  1  0  0  0  0  0  0  0  0  0
    1.8773    0.3532    1.5217 H   0  0  0  0  0  0  0  0  0  0  0  0
    0.1684    0.3627    2.7918 C   0  0  0  0  0  0  0  0  0  0  0  0
   -0.7365   -0.2215    2.9636 H   0  0  0  0  0  0  0  0  0  0  0  0
    0.8039    0.3060    3.6748 H   0  0  0  0  0  0  0  0  0  0  0  0
   -0.1092    1.4037    2.6241 H   0  0  0  0  0  0  0  0  0  0  0  0
    1.1765   -1.5334    1.8067 O   0  0  0  0  0  0  0  0  0  0  0  0
    1.5464   -1.6216    2.6875 H   0  0  0  0  0  0  0  0  0  0  0  0
    1.0606   -0.4374   -0.9290 C   0  0  0  0  0  0  0  0  0  0  0  0
    0.7080   -0.2680   -2.0961 O   0  0  0  0  0  0  0  0  0  0  0  0
    2.2306   -1.0121   -0.6170 N   0  0  0  0  0  0  0  0  0  0  0  0
    2.4717   -1.1045    0.3561 H   0  0  0  0  0  0  0  0  0  0  0  0
    3.1803   -1.5161   -1.6078 C   0  0  0  0  0  0  0  0  0  0  0  0
    3.4114   -0.7311   -2.3305 H   0  0  0  0  0  0  0  0  0  0  0  0
    4.1014   -1.8391   -1.1224 H   0  0  0  0  0  0  0  0  0  0  0  0
    2.7396   -2.3598   -2.1433 H   0  0  0  0  0  0  0  0  0  0  0  0
  5  6  2  0  0  0  0
  5  7  1  0  0  0  0
  2  3  1  0  0  0  0
  2  4  1  0  0  0  0
  2  5  1  0  0  0  0
  1  2  1  0  0  0  0
 19 20  2  0  0  0  0
 19 21  1  0  0  0  0
 17 18  1  0  0  0  0
 13 14  1  0  0  0  0
 13 15  1  0  0  0  0
 13 16  1  0  0  0  0
 11 12  1  0  0  0  0
 11 13  1  0  0  0  0
 11 17  1  0  0  0  0
  9 10  1  0  0  0  0
  9 11  1  0  0  0  0
  9 19  1  0  0  0  0
  7  8  1  0  0  0  0
  7  9  1  0  0  0  0
 23 24  1  0  0  0  0
 23 25  1  0  0  0  0
 23 26  1  0  0  0  0
 21 22  1  0  0  0  0
 21 23  1  0  0  0  0
M  END
$$$$
default_name
  -OEChem-01062215323D

 26 25  0     1  0  0  0  0  0999 V2000
   -2.8882   -3.2497    1.2537 H   0  0  0  0  0  0  0  0  0  0  0  0
   -2.8032   -2.3157    0.7017 C   0  0  0  0  0  0  0  0  0  0  0  0
   -3.5012   -1.5857    1.1067 H   0  0  0  0  0  0  0  0  0  0  0  0
   -3.0182   -2.4907   -0.3513 H   0  0  0  0  0  0  0  0  0  0  0  0
   -1.3942   -1.7897    0.8407 C   0  0  0  0  0  0  0  0  0  0  0  0
   -0.5672   -2.4077    1.5007 O   0  0  0  0  0  0  0  0  0  0  0  0
   -1.1222   -0.6447    0.2217 N   0  0  0  0  0  0  0  0  0  0  0  0
   -1.8592   -0.1777   -0.2863 H   0  0  0  0  0  0  0  0  0  0  0  0
    0.1838    0.0363    0.2367 C   0  0  1  0  0  0  0  0  0  0  0  0
    0.0211    1.1056    0.1067 H   0  0  0  0  0  0  0  0  0  0  0  0
    0.9227   -0.1699    1.5751 C   0  0  1  0  0  0  0  0  0  0  0  0
    1.8773    0.3532    1.5217 H   0  0  0  0  0  0  0  0  0  0  0  0
    0.1684    0.3627    2.7918 C   0  0  0  0  0  0  0  0  0  0  0  0
   -0.7365   -0.2215    2.9636 H   0  0  0  0  0  0  0  0  0  0  0  0
    0.8039    0.3060    3.6748 H   0  0  0  0  0  0  0  0  0  0  0  0
   -0.1092    1.4037    2.6241 H   0  0  0  0  0  0  0  0  0  0  0  0
    1.1765   -1.5334    1.8067 O   0  0  0  0  0  0  0  0  0  0  0  0
    1.5464   -1.6216    2.6875 H   0  0  0  0  0  0  0  0  0  0  0  0
    1.0606   -0.4374   -0.9290 C   0  0  0  0  0  0  0  0  0  0  0  0
    0.8590   -0.0384   -2.0759 O   0  0  0  0  0  0  0  0  0  0  0  0
    2.0646   -1.2753   -0.6349 N   0  0  0  0  0  0  0  0  0  0  0  0
    2.1903   -1.5499    0.3255 H   0  0  0  0  0  0  0  0  0  0  0  0
    2.9902   -1.8177   -1.6282 C   0  0  0  0  0  0  0  0  0  0  0  0
    3.4343   -1.0025   -2.2031 H   0  0  0  0  0  0  0  0  0  0  0  0
    3.7827   -2.3853   -1.1401 H   0  0  0  0  0  0  0  0  0  0  0  0
    2.4496   -2.4710   -2.3163 H   0  0  0  0  0  0  0  0  0  0  0  0
  5  6  2  0  0  0  0
  5  7  1  0  0  0  0
  2  3  1  0  0  0  0
  2  4  1  0  0  0  0
  2  5  1  0  0  0  0
  1  2  1  0  0  0  0
 19 20  2  0  0  0  0
 19 21  1  0  0  0  0
 17 18  1  0  0  0  0
 13 14  1  0  0  0  0
 13 15  1  0  0  0  0
 13 16  1  0  0  0  0
 11 12  1  0  0  0  0
 11 13  1  0  0  0  0
 11 17  1  0  0  0  0
  9 10  1  0  0  0  0
  9 11  1  0  0  0  0
  9 19  1  0  0  0  0
  7  8  1  0  0  0  0
  7  9  1  0  0  0  0
 23 24  1  0  0  0  0
 23 25  1  0  0  0  0
 23 26  1  0  0  0  0
 21 22  1  0  0  0  0
 21 23  1  0  0  0  0
M  END
$$$$
default_name
  -OEChem-01062215323D

 26 25  0     1  0  0  0  0  0999 V2000
   -2.8882   -3.2497    1.2537 H   0  0  0  0  0  0  0  0  0  0  0  0
   -2.8032   -2.3157    0.7017 C   0  0  0  0  0  0  0  0  0  0  0  0
   -3.5012   -1.5857    1.1067 H   0  0  0  0  0  0  0  0  0  0  0  0
   -3.0182   -2.4907   -0.3513 H   0  0  0  0  0  0  0  0  0  0  0  0
   -1.3942   -1.7897    0.8407 C   0  0  0  0  0  0  0  0  0  0  0  0
   -0.5672   -2.4077    1.5007 O   0  0  0  0  0  0  0  0  0  0  0  0
   -1.1222   -0.6447    0.2217 N   0  0  0  0  0  0  0  0  0  0  0  0
   -1.8592   -0.1777   -0.2863 H   0  0  0  0  0  0  0  0  0  0  0  0
    0.1838    0.0363    0.2367 C   0  0  1  0  0  0  0  0  0  0  0  0
    0.0211    1.1056    0.1067 H   0  0  0  0  0  0  0  0  0  0  0  0
    0.9227   -0.1699    1.5751 C   0  0  1  0  0  0  0  0  0  0  0  0
    1.8773    0.3532    1.5217 H   0  0  0  0  0  0  0  0  0  0  0  0
    0.1684    0.3627    2.7918 C   0  0  0  0  0  0  0  0  0  0  0  0
   -0.7365   -0.2215    2.9636 H   0  0  0  0  0  0  0  0  0  0  0  0
    0.8039    0.3060    3.6748 H   0  0  0  0  0  0  0  0  0  0  0  0
   -0.1092    1.4037    2.6241 H   0  0  0  0  0  0  0  0  0  0  0  0
    1.1765   -1.5334    1.8067 O   0  0  0  0  0  0  0  0  0  0  0  0
    1.5464   -1.6216    2.6875 H   0  0  0  0  0  0  0  0  0  0  0  0
    1.0606   -0.4374   -0.9290 C   0  0  0  0  0  0  0  0  0  0  0  0
    1.0484    0.1507   -2.0103 O   0  0  0  0  0  0  0  0  0  0  0  0
    1.8539   -1.4942   -0.7044 N   0  0  0  0  0  0  0  0  0  0  0  0
    1.8334   -1.9202    0.2075 H   0  0  0  0  0  0  0  0  0  0  0  0
    2.7490   -2.0685   -1.7077 C   0  0  0  0  0  0  0  0  0  0  0  0
    3.3928   -1.2881   -2.1182 H   0  0  0  0  0  0  0  0  0  0  0  0
    3.3688   -2.8476   -1.2636 H   0  0  0  0  0  0  0  0  0  0  0  0
    2.1613   -2.4958   -2.5230 H   0  0  0  0  0  0  0  0  0  0  0  0
  5  6  2  0  0  0  0
  5  7  1  0  0  0  0
  2  3  1  0  0  0  0
  2  4  1  0  0  0  0
  2  5  1  0  0  0  0
  1  2  1  0  0  0  0
 19 20  2  0  0  0  0
 19 21  1  0  0  0  0
 17 18  1  0  0  0  0
 13 14  1  0  0  0  0
 13 15  1  0  0  0  0
 13 16  1  0  0  0  0
 11 12  1  0  0  0  0
 11 13  1  0  0  0  0
 11 17  1  0  0  0  0
  9 10  1  0  0  0  0
  9 11  1  0  0  0  0
  9 19  1  0  0  0  0
  7  8  1  0  0  0  0
  7  9  1  0  0  0  0
 23 24  1  0  0  0  0
 23 25  1  0  0  0  0
 23 26  1  0  0  0  0
 21 22  1  0  0  0  0
 21 23  1  0  0  0  0
M  END
$$$$
default_name
  -OEChem-01062215323D

 26 25  0     1  0  0  0  0  0999 V2000
   -2.8882   -3.2497    1.2537 H   0  0  0  0  0  0  0  0  0  0  0  0
   -2.8032   -2.3157    0.7017 C   0  0  0  0  0  0  0  0  0  0  0  0
   -3.5012   -1.5857    1.1067 H   0  0  0  0  0  0  0  0  0  0  0  0
   -3.0182   -2.4907   -0.3513 H   0  0  0  0  0  0  0  0  0  0  0  0
   -1.3942   -1.7897    0.8407 C   0  0  0  0  0  0  0  0  0  0  0  0
   -0.5672   -2.4077    1.5007 O   0  0  0  0  0  0  0  0  0  0  0  0
   -1.1222   -0.6447    0.2217 N   0  0  0  0  0  0  0  0  0  0  0  0
   -1.8592   -0.1777   -0.2863 H   0  0  0  0  0  0  0  0  0  0  0  0
    0.1838    0.0363    0.2367 C   0  0  1  0  0  0  0  0  0  0  0  0
    0.0211    1.1056    0.1067 H   0  0  0  0  0  0  0  0  0  0  0  0
    0.9227   -0.1699    1.5751 C   0  0  1  0  0  0  0  0  0  0  0  0
    1.8773    0.3532    1.5217 H   0  0  0  0  0  0  0  0  0  0  0  0
    0.1684    0.3627    2.7918 C   0  0  0  0  0  0  0  0  0  0  0  0
   -0.7365   -0.2215    2.9636 H   0  0  0  0  0  0  0  0  0  0  0  0
    0.8039    0.3060    3.6748 H   0  0  0  0  0  0  0  0  0  0  0  0
   -0.1092    1.4037    2.6241 H   0  0  0  0  0  0  0  0  0  0  0  0
    1.1765   -1.5334    1.8067 O   0  0  0  0  0  0  0  0  0  0  0  0
    1.5464   -1.6216    2.6875 H   0  0  0  0  0  0  0  0  0  0  0  0
    1.0606   -0.4374   -0.9290 C   0  0  0  0  0  0  0  0  0  0  0  0
    1.2633    0.2864   -1.9038 O   0  0  0  0  0  0  0  0  0  0  0  0
    1.6129   -1.6539   -0.8208 N   0  0  0  0  0  0  0  0  0  0  0  0
    1.4252   -2.1903    0.0102 H   0  0  0  0  0  0  0  0  0  0  0  0
    2.4730   -2.2516   -1.8409 C   0  0  0  0  0  0  0  0  0  0  0  0
    3.2897   -1.5682   -2.0819 H   0  0  0  0  0  0  0  0  0  0  0  0
    2.8879   -3.1945   -1.4843 H   0  0  0  0  0  0  0  0  0  0  0  0
    1.8946   -2.4324   -2.7494 H   0  0  0  0  0  0  0  0  0  0  0  0
  5  6  2  0  0  0  0
  5  7  1  0  0  0  0
  2  3  1  0  0  0  0
  2  4  1  0  0  0  0
  2  5  1  0  0  0  0
  1  2  1  0  0  0  0
 19 20  2  0  0  0  0
 19 21  1  0  0  0  0
 17 18  1  0  0  0  0
 13 14  1  0  0  0  0
 13 15  1  0  0  0  0
 13 16  1  0  0  0  0
 11 12  1  0  0  0  0
 11 13  1  0  0  0  0
 11 17  1  0  0  0  0
  9 10  1  0  0  0  0
  9 11  1  0  0  0  0
  9 19  1  0  0  0  0
  7  8  1  0  0  0  0
  7  9  1  0  0  0  0
 23 24  1  0  0  0  0
 23 25  1  0  0  0  0
 23 26  1  0  0  0  0
 21 22  1  0  0  0  0
 21 23  1  0  0  0  0
M  END
$$$$
default_name
  -OEChem-01062215323D

 26 25  0     1  0  0  0  0  0999 V2000
   -2.8882   -3.2497    1.2537 H   0  0  0  0  0  0  0  0  0  0  0  0
   -2.8032   -2.3157    0.7017 C   0  0  0  0  0  0  0  0  0  0  0  0
   -3.5012   -1.5857    1.1067 H   0  0  0  0  0  0  0  0  0  0  0  0
   -3.0182   -2.4907   -0.3513 H   0  0  0  0  0  0  0  0  0  0  0  0
   -1.3942   -1.7897    0.8407 C   0  0  0  0  0  0  0  0  0  0  0  0
   -0.5672   -2.4077    1.5007 O   0  0  0  0  0  0  0  0  0  0  0  0
   -1.1222   -0.6447    0.2217 N   0  0  0  0  0  0  0  0  0  0  0  0
   -1.8592   -0.1777   -0.2863 H   0  0  0  0  0  0  0  0  0  0  0  0
    0.1838    0.0363    0.2367 C   0  0  1  0  0  0  0  0  0  0  0  0
    0.0211    1.1056    0.1067 H   0  0  0  0  0  0  0  0  0  0  0  0
    0.9227   -0.1699    1.5751 C   0  0  1  0  0  0  0  0  0  0  0  0
    1.8773    0.3532    1.5217 H   0  0  0  0  0  0  0  0  0  0  0  0
    0.1684    0.3627    2.7918 C   0  0  0  0  0  0  0  0  0  0  0  0
   -0.7365   -0.2215    2.9636 H   0  0  0  0  0  0  0  0  0  0  0  0
    0.8039    0.3060    3.6748 H   0  0  0  0  0  0  0  0  0  0  0  0
   -0.1092    1.4037    2.6241 H   0  0  0  0  0  0  0  0  0  0  0  0
    1.1765   -1.5334    1.8067 O   0  0  0  0  0  0  0  0  0  0  0  0
    1.5464   -1.6216    2.6875 H   0  0  0  0  0  0  0  0  0  0  0  0
    1.0606   -0.4374   -0.9290 C   0  0  0  0  0  0  0  0  0  0  0  0
    1.4890    0.3594   -1.7637 O   0  0  0  0  0  0  0  0  0  0  0  0
    1.3579   -1.7435   -0.9761 N   0  0  0  0  0  0  0  0  0  0  0  0
    0.9935   -2.3416   -0.2529 H   0  0  0  0  0  0  0  0  0  0  0  0
    2.1810   -2.3544   -2.0187 C   0  0  0  0  0  0  0  0  0  0  0  0
    3.1322   -1.8240   -2.0964 H   0  0  0  0  0  0  0  0  0  0  0  0
    2.3728   -3.4023   -1.7873 H   0  0  0  0  0  0  0  0  0  0  0  0
    1.6675   -2.2852   -2.9800 H   0  0  0  0  0  0  0  0  0  0  0  0
  5  6  2  0  0  0  0
  5  7  1  0  0  0  0
  2  3  1  0  0  0  0
  2  4  1  0  0  0  0
  2  5  1  0  0  0  0
  1  2  1  0  0  0  0
 19 20  2  0  0  0  0
 19 21  1  0  0  0  0
 17 18  1  0  0  0  0
 13 14  1  0  0  0  0
 13 15  1  0  0  0  0
 13 16  1  0  0  0  0
 11 12  1  0  0  0  0
 11 13  1  0  0  0  0
 11 17  1  0  0  0  0
  9 10  1  0  0  0  0
  9 11  1  0  0  0  0
  9 19  1  0  0  0  0
  7  8  1  0  0  0  0
  7  9  1  0  0  0  0
 23 24  1  0  0  0  0
 23 25  1  0  0  0  0
 23 26  1  0  0  0  0
 21 22  1  0  0  0  0
 21 23  1  0  0  0  0
M  END
$$$$
default_name
  -OEChem-01062215323D

 26 25  0     1  0  0  0  0  0999 V2000
   -2.8882   -3.2497    1.2537 H   0  0  0  0  0  0  0  0  0  0  0  0
   -2.8032   -2.3157    0.7017 C   0  0  0  0  0  0  0  0  0  0  0  0
   -3.5012   -1.5857    1.1067 H   0  0  0  0  0  0  0  0  0  0  0  0
   -3.0182   -2.4907   -0.3513 H   0  0  0  0  0  0  0  0  0  0  0  0
   -1.3942   -1.7897    0.8407 C   0  0  0  0  0  0  0  0  0  0  0  0
   -0.5672   -2.4077    1.5007 O   0  0  0  0  0  0  0  0  0  0  0  0
   -1.1222   -0.6447    0.2217 N   0  0  0  0  0  0  0  0  0  0  0  0
   -1.8592   -0.1777   -0.2863 H   0  0  0  0  0  0  0  0  0  0  0  0
    0.1838    0.0363    0.2367 C   0  0  1  0  0  0  0  0  0  0  0  0
    0.0211    1.1056    0.1067 H   0  0  0  0  0  0  0  0  0  0  0  0
    0.9227   -0.1699    1.5751 C   0  0  1  0  0  0  0  0  0  0  0  0
    1.8773    0.3532    1.5217 H   0  0  0  0  0  0  0  0  0  0  0  0
    0.1684    0.3627    2.7918 C   0  0  0  0  0  0  0  0  0  0  0  0
   -0.7365   -0.2215    2.9636 H   0  0  0  0  0  0  0  0  0  0  0  0
    0.8039    0.3060    3.6748 H   0  0  0  0  0  0  0  0  0  0  0  0
   -0.1092    1.4037    2.6241 H   0  0  0  0  0  0  0  0  0  0  0  0
    1.1765   -1.5334    1.8067 O   0  0  0  0  0  0  0  0  0  0  0  0
    1.5464   -1.6216    2.6875 H   0  0  0  0  0  0  0  0  0  0  0  0
    1.0606   -0.4374   -0.9290 C   0  0  0  0  0  0  0  0  0  0  0  0
    1.7102    0.3648   -1.5995 O   0  0  0  0  0  0  0  0  0  0  0  0
    1.1065   -1.7570   -1.1597 N   0  0  0  0  0  0  0  0  0  0  0  0
    0.5678   -2.3640   -0.5640 H   0  0  0  0  0  0  0  0  0  0  0  0
    1.8930   -2.3699   -2.2290 C   0  0  0  0  0  0  0  0  0  0  0  0
    2.9309   -2.0379   -2.1609 H   0  0  0  0  0  0  0  0  0  0  0  0
    1.8586   -3.4568   -2.1518 H   0  0  0  0  0  0  0  0  0  0  0  0
    1.4955   -2.0642   -3.1991 H   0  0  0  0  0  0  0  0  0  0  0  0
  5  6  2  0  0  0  0
  5  7  1  0  0  0  0
  2  3  1  0  0  0  0
  2  4  1  0  0  0  0
  2  5  1  0  0  0  0
  1  2  1  0  0  0  0
 19 20  2  0  0  0  0
 19 21  1  0  0  0  0
 17 18  1  0  0  0  0
 13 14  1  0  0  0  0
 13 15  1  0  0  0  0
 13 16  1  0  0  0  0
 11 12  1  0  0  0  0
 11 13  1  0  0  0  0
 11 17  1  0  0  0  0
  9 10  1  0  0  0  0
  9 11  1  0  0  0  0
  9 19  1  0  0  0  0
  7  8  1  0  0  0  0
  7  9  1  0  0  0  0
 23 24  1  0  0  0  0
 23 25  1  0  0  0  0
 23 26  1  0  0  0  0
 21 22  1  0  0  0  0
 21 23  1  0  0  0  0
M  END
$$$$
default_name
  -OEChem-01062215323D

 26 25  0     1  0  0  0  0  0999 V2000
   -2.8882   -3.2497    1.2537 H   0  0  0  0  0  0  0  0  0  0  0  0
   -2.8032   -2.3157    0.7017 C   0  0  0  0  0  0  0  0  0  0  0  0
   -3.5012   -1.5857    1.1067 H   0  0  0  0  0  0  0  0  0  0  0  0
   -3.0182   -2.4907   -0.3513 H   0  0  0  0  0  0  0  0  0  0  0  0
   -1.3942   -1.7897    0.8407 C   0  0  0  0  0  0  0  0  0  0  0  0
   -0.5672   -2.4077    1.5007 O   0  0  0  0  0  0  0  0  0  0  0  0
   -1.1222   -0.6447    0.2217 N   0  0  0  0  0  0  0  0  0  0  0  0
   -1.8592   -0.1777   -0.2863 H   0  0  0  0  0  0  0  0  0  0  0  0
    0.1838    0.0363    0.2367 C   0  0  1  0  0  0  0  0  0  0  0  0
    0.0211    1.1056    0.1067 H   0  0  0  0  0  0  0  0  0  0  0  0
    0.9227   -0.1699    1.5751 C   0  0  1  0  0  0  0  0  0  0  0  0
    1.8773    0.3532    1.5217 H   0  0  0  0  0  0  0  0  0  0  0  0
    0.1684    0.3627    2.7918 C   0  0  0  0  0  0  0  0  0  0  0  0
   -0.7365   -0.2215    2.9636 H   0  0  0  0  0  0  0  0  0  0  0  0
    0.8039    0.3060    3.6748 H   0  0  0  0  0  0  0  0  0  0  0  0
   -0.1092    1.4037    2.6241 H   0  0  0  0  0  0  0  0  0  0  0  0
    1.1765   -1.5334    1.8067 O   0  0  0  0  0  0  0  0  0  0  0  0
    1.5464   -1.6216    2.6875 H   0  0  0  0  0  0  0  0  0  0  0  0
    1.0606   -0.4374   -0.9290 C   0  0  0  0  0  0  0  0  0  0  0  0
    1.9119    0.3022   -1.4224 O   0  0  0  0  0  0  0  0  0  0  0  0
    0.8756   -1.6933   -1.3592 N   0  0  0  0  0  0  0  0  0  0  0  0
    0.1771   -2.2558   -0.9018 H   0  0  0  0  0  0  0  0  0  0  0  0
    1.6285   -2.2972   -2.4575 C   0  0  0  0  0  0  0  0  0  0  0  0
    2.6995   -2.1953   -2.2710 H   0  0  0  0  0  0  0  0  0  0  0  0
    1.3803   -3.3544   -2.5532 H   0  0  0  0  0  0  0  0  0  0  0  0
    1.3904   -1.7846   -3.3919 H   0  0  0  0  0  0  0  0  0  0  0  0
  5  6  2  0  0  0  0
  5  7  1  0  0  0  0
  2  3  1  0  0  0  0
  2  4  1  0  0  0  0
  2  5  1  0  0  0  0
  1  2  1  0  0  0  0
 19 20  2  0  0  0  0
 19 21  1  0  0  0  0
 17 18  1  0  0  0  0
 13 14  1  0  0  0  0
 13 15  1  0  0  0  0
 13 16  1  0  0  0  0
 11 12  1  0  0  0  0
 11 13  1  0  0  0  0
 11 17  1  0  0  0  0
  9 10  1  0  0  0  0
  9 11  1  0  0  0  0
  9 19  1  0  0  0  0
  7  8  1  0  0  0  0
  7  9  1  0  0  0  0
 23 24  1  0  0  0  0
 23 25  1  0  0  0  0
 23 26  1  0  0  0  0
 21 22  1  0  0  0  0
 21 23  1  0  0  0  0
M  END
$$$$
default_name
  -OEChem-01062215323D

 26 25  0     1  0  0  0  0  0999 V2000
   -2.8882   -3.2497    1.2537 H   0  0  0  0  0  0  0  0  0  0  0  0
   -2.8032   -2.3157    0.7017 C   0  0  0  0  0  0  0  0  0  0  0  0
   -3.5012   -1.5857    1.1067 H   0  0  0  0  0  0  0  0  0  0  0  0
   -3.0182   -2.4907   -0.3513 H   0  0  0  0  0  0  0  0  0  0  0  0
   -1.3942   -1.7897    0.8407 C   0  0  0  0  0  0  0  0  0  0  0  0
   -0.5672   -2.4077    1.5007 O   0  0  0  0  0  0  0  0  0  0  0  0
   -1.1222   -0.6447    0.2217 N   0  0  0  0  0  0  0  0  0  0  0  0
   -1.8592   -0.1777   -0.2863 H   0  0  0  0  0  0  0  0  0  0  0  0
    0.1838    0.0363    0.2367 C   0  0  1  0  0  0  0  0  0  0  0  0
    0.0211    1.1056    0.1067 H   0  0  0  0  0  0  0  0  0  0  0  0
    0.9227   -0.1699    1.5751 C   0  0  1  0  0  0  0  0  0  0  0  0
    1.8773    0.3532    1.5217 H   0  0  0  0  0  0  0  0  0  0  0  0
    0.1684    0.3627    2.7918 C   0  0  0  0  0  0  0  0  0  0  0  0
   -0.7365   -0.2215    2.9636 H   0  0  0  0  0  0  0  0  0  0  0  0
    0.8039    0.3060    3.6748 H   0  0  0  0  0  0  0  0  0  0  0  0
   -0.1092    1.4037    2.6241 H   0  0  0  0  0  0  0  0  0  0  0  0
    1.1765   -1.5334    1.8067 O   0  0  0  0  0  0  0  0  0  0  0  0
    1.5464   -1.6216    2.6875 H   0  0  0  0  0  0  0  0  0  0  0  0
    1.0606   -0.4374   -0.9290 C   0  0  0  0  0  0  0  0  0  0  0  0
    2.0802    0.1759   -1.2445 O   0  0  0  0  0  0  0  0  0  0  0  0
    0.6811   -1.5569   -1.5610 N   0  0  0  0  0  0  0  0  0  0  0  0
   -0.1520   -2.0244   -1.2434 H   0  0  0  0  0  0  0  0  0  0  0  0
    1.4056   -2.1411   -2.6885 C   0  0  0  0  0  0  0  0  0  0  0  0
    2.4538   -2.2856   -2.4191 H   0  0  0  0  0  0  0  0  0  0  0  0
    0.9706   -3.1020   -2.9639 H   0  0  0  0  0  0  0  0  0  0  0  0
    1.3593   -1.4652   -3.5450 H   0  0  0  0  0  0  0  0  0  0  0  0
  5  6  2  0  0  0  0
  5  7  1  0  0  0  0
  2  3  1  0  0  0  0
  2  4  1  0  0  0  0
  2  5  1  0  0  0  0
  1  2  1  0  0  0  0
 19 20  2  0  0  0  0
 19 21  1  0  0  0  0
 17 18  1  0  0  0  0
 13 14  1  0  0  0  0
 13 15  1  0  0  0  0
 13 16  1  0  0  0  0
 11 12  1  0  0  0  0
 11 13  1  0  0  0  0
 11 17  1  0  0  0  0
  9 10  1  0  0  0  0
  9 11  1  0  0  0  0
  9 19  1  0  0  0  0
  7  8  1  0  0  0  0
  7  9  1  0  0  0  0
 23 24  1  0  0  0  0
 23 25  1  0  0  0  0
 23 26  1  0  0  0  0
 21 22  1  0  0  0  0
 21 23  1  0  0  0  0
M  END
$$$$
default_name
  -OEChem-01062215323D

 26 25  0     1  0  0  0  0  0999 V2000
   -2.8882   -3.2497    1.2537 H   0  0  0  0  0  0  0  0  0  0  0  0
   -2.8032   -2.3157    0.7017 C   0  0  0  0  0  0  0  0  0  0  0  0
   -3.5012   -1.5857    1.1067 H   0  0  0  0  0  0  0  0  0  0  0  0
   -3.0182   -2.4907   -0.3513 H   0  0  0  0  0  0  0  0  0  0  0  0
   -1.3942   -1.7897    0.8407 C   0  0  0  0  0  0  0  0  0  0  0  0
   -0.5672   -2.4077    1.5007 O   0  0  0  0  0  0  0  0  0  0  0  0
   -1.1222   -0.6447    0.2217 N   0  0  0  0  0  0  0  0  0  0  0  0
   -1.8592   -0.1777   -0.2863 H   0  0  0  0  0  0  0  0  0  0  0  0
    0.1838    0.0363    0.2367 C   0  0  1  0  0  0  0  0  0  0  0  0
    0.0211    1.1056    0.1067 H   0  0  0  0  0  0  0  0  0  0  0  0
    0.9227   -0.1699    1.5751 C   0  0  1  0  0  0  0  0  0  0  0  0
    1.8773    0.3532    1.5217 H   0  0  0  0  0  0  0  0  0  0  0  0
    0.1684    0.3627    2.7918 C   0  0  0  0  0  0  0  0  0  0  0  0
   -0.7365   -0.2215    2.9636 H   0  0  0  0  0  0  0  0  0  0  0  0
    0.8039    0.3060    3.6748 H   0  0  0  0  0  0  0  0  0  0  0  0
   -0.1092    1.4037    2.6241 H   0  0  0  0  0  0  0  0  0  0  0  0
    1.1765   -1.5334    1.8067 O   0  0  0  0  0  0  0  0  0  0  0  0
    1.5464   -1.6216    2.6875 H   0  0  0  0  0  0  0  0  0  0  0  0
    1.0606   -0.4374   -0.9290 C   0  0  0  0  0  0  0  0  0  0  0  0
    2.2036   -0.0056   -1.0779 O   0  0  0  0  0  0  0  0  0  0  0  0
    0.5362   -1.3570   -1.7512 N   0  0  0  0  0  0  0  0  0  0  0  0
   -0.3970   -1.6857   -1.5653 H   0  0  0  0  0  0  0  0  0  0  0  0
    1.2395   -1.9123   -2.9064 C   0  0  0  0  0  0  0  0  0  0  0  0
    2.2105   -2.3025   -2.5951 H   0  0  0  0  0  0  0  0  0  0  0  0
    0.6573   -2.7168   -3.3561 H   0  0  0  0  0  0  0  0  0  0  0  0
    1.4043   -1.1279   -3.6482 H   0  0  0  0  0  0  0  0  0  0  0  0
  5  6  2  0  0  0  0
  5  7  1  0  0  0  0
  2  3  1  0  0  0  0
  2  4  1  0  0  0  0
  2  5  1  0  0  0  0
  1  2  1  0  0  0  0
 19 20  2  0  0  0  0
 19 21  1  0  0  0  0
 17 18  1  0  0  0  0
 13 14  1  0  0  0  0
 13 15  1  0  0  0  0
 13 16  1  0  0  0  0
 11 12  1  0  0  0  0
 11 13  1  0  0  0  0
 11 17  1  0  0  0  0
  9 10  1  0  0  0  0
  9 11  1  0  0  0  0
  9 19  1  0  0  0  0
  7  8  1  0  0  0  0
  7  9  1  0  0  0  0
 23 24  1  0  0  0  0
 23 25  1  0  0  0  0
 23 26  1  0  0  0  0
 21 22  1  0  0  0  0
 21 23  1  0  0  0  0
M  END
$$$$
default_name
  -OEChem-01062215323D

 26 25  0     1  0  0  0  0  0999 V2000
   -2.8882   -3.2497    1.2537 H   0  0  0  0  0  0  0  0  0  0  0  0
   -2.8032   -2.3157    0.7017 C   0  0  0  0  0  0  0  0  0  0  0  0
   -3.5012   -1.5857    1.1067 H   0  0  0  0  0  0  0  0  0  0  0  0
   -3.0182   -2.4907   -0.3513 H   0  0  0  0  0  0  0  0  0  0  0  0
   -1.3942   -1.7897    0.8407 C   0  0  0  0  0  0  0  0  0  0  0  0
   -0.5672   -2.4077    1.5007 O   0  0  0  0  0  0  0  0  0  0  0  0
   -1.1222   -0.6447    0.2217 N   0  0  0  0  0  0  0  0  0  0  0  0
   -1.8592   -0.1777   -0.2863 H   0  0  0  0  0  0  0  0  0  0  0  0
    0.1838    0.0363    0.2367 C   0  0  1  0  0  0  0  0  0  0  0  0
    0.0211    1.1056    0.1067 H   0  0  0  0  0  0  0  0  0  0  0  0
    0.9227   -0.1699    1.5751 C   0  0  1  0  0  0  0  0  0  0  0  0
    1.8773    0.3532    1.5217 H   0  0  0  0  0  0  0  0  0  0  0  0
    0.1684    0.3627    2.7918 C   0  0  0  0  0  0  0  0  0  0  0  0
   -0.7365   -0.2215    2.9636 H   0  0  0  0  0  0  0  0  0  0  0  0
    0.8039    0.3060    3.6748 H   0  0  0  0  0  0  0  0  0  0  0  0
   -0.1092    1.4037    2.6241 H   0  0  0  0  0  0  0  0  0  0  0  0
    1.1765   -1.5334    1.8067 O   0  0  0  0  0  0  0  0  0  0  0  0
    1.5464   -1.6216    2.6875 H   0  0  0  0  0  0  0  0  0  0  0  0
    1.0606   -0.4374   -0.9290 C   0  0  0  0  0  0  0  0  0  0  0  0
    2.2739   -0.2298   -0.9340 O   0  0  0  0  0  0  0  0  0  0  0  0
    0.4508   -1.1073   -1.9169 N   0  0  0  0  0  0  0  0  0  0  0  0
   -0.5414   -1.2626   -1.8458 H   0  0  0  0  0  0  0  0  0  0  0  0
    1.1415   -1.6263   -3.0964 C   0  0  0  0  0  0  0  0  0  0  0  0
    1.9863   -2.2450   -2.7871 H   0  0  0  0  0  0  0  0  0  0  0  0
    0.4618   -2.2251   -3.7029 H   0  0  0  0  0  0  0  0  0  0  0  0
    1.5224   -0.7957   -3.6944 H   0  0  0  0  0  0  0  0  0  0  0  0
  5  6  2  0  0  0  0
  5  7  1  0  0  0  0
  2  3  1  0  0  0  0
  2  4  1  0  0  0  0
  2  5  1  0  0  0  0
  1  2  1  0  0  0  0
 19 20  2  0  0  0  0
 19 21  1  0  0  0  0
 17 18  1  0  0  0  0
 13 14  1  0  0  0  0
 13 15  1  0  0  0  0
 13 16  1  0  0  0  0
 11 12  1  0  0  0  0
 11 13  1  0  0  0  0
 11 17  1  0  0  0  0
  9 10  1  0  0  0  0
  9 11  1  0  0  0  0
  9 19  1  0  0  0  0
  7  8  1  0  0  0  0
  7  9  1  0  0  0  0
 23 24  1  0  0  0  0
 23 25  1  0  0  0  0
 23 26  1  0  0  0  0
 21 22  1  0  0  0  0
 21 23  1  0  0  0  0
M  END
$$$$
default_name
  -OEChem-01062215323D

 26 25  0     1  0  0  0  0  0999 V2000
   -2.8882   -3.2497    1.2537 H   0  0  0  0  0  0  0  0  0  0  0  0
   -2.8032   -2.3157    0.7017 C   0  0  0  0  0  0  0  0  0  0  0  0
   -3.5012   -1.5857    1.1067 H   0  0  0  0  0  0  0  0  0  0  0  0
   -3.0182   -2.4907   -0.3513 H   0  0  0  0  0  0  0  0  0  0  0  0
   -1.3942   -1.7897    0.8407 C   0  0  0  0  0  0  0  0  0  0  0  0
   -0.5672   -2.4077    1.5007 O   0  0  0  0  0  0  0  0  0  0  0  0
   -1.1222   -0.6447    0.2217 N   0  0  0  0  0  0  0  0  0  0  0  0
   -1.8592   -0.1777   -0.2863 H   0  0  0  0  0  0  0  0  0  0  0  0
    0.1838    0.0363    0.2367 C   0  0  1  0  0  0  0  0  0  0  0  0
    0.0211    1.1056    0.1067 H   0  0  0  0  0  0  0  0  0  0  0  0
    0.9227   -0.1699    1.5751 C   0  0  1  0  0  0  0  0  0  0  0  0
    1.8773    0.3532    1.5217 H   0  0  0  0  0  0  0  0  0  0  0  0
    0.1684    0.3627    2.7918 C   0  0  0  0  0  0  0  0  0  0  0  0
   -0.7365   -0.2215    2.9636 H   0  0  0  0  0  0  0  0  0  0  0  0
    0.8039    0.3060    3.6748 H   0  0  0  0  0  0  0  0  0  0  0  0
   -0.1092    1.4037    2.6241 H   0  0  0  0  0  0  0  0  0  0  0  0
    1.1765   -1.5334    1.8067 O   0  0  0  0  0  0  0  0  0  0  0  0
    1.5464   -1.6216    2.6875 H   0  0  0  0  0  0  0  0  0  0  0  0
    1.0606   -0.4374   -0.9290 C   0  0  0  0  0  0  0  0  0  0  0  0
    2.2861   -0.4815   -0.8225 O   0  0  0  0  0  0  0  0  0  0  0  0
    0.4306   -0.8247   -2.0469 N   0  0  0  0  0  0  0  0  0  0  0  0
   -0.5751   -0.7841   -2.0657 H   0  0  0  0  0  0  0  0  0  0  0  0
    1.1183   -1.3028   -3.2453 C   0  0  0  0  0  0  0  0  0  0  0  0
    1.7964   -2.1169   -2.9820 H   0  0  0  0  0  0  0  0  0  0  0  0
    0.3974   -1.6603   -3.9808 H   0  0  0  0  0  0  0  0  0  0  0  0
    1.7055   -0.4913   -3.6804 H   0  0  0  0  0  0  0  0  0  0  0  0
  5  6  2  0  0  0  0
  5  7  1  0  0  0  0
  2  3  1  0  0  0  0
  2  4  1  0  0  0  0
  2  5  1  0  0  0  0
  1  2  1  0  0  0  0
 19 20  2  0  0  0  0
 19 21  1  0  0  0  0
 17 18  1  0  0  0  0
 13 14  1  0  0  0  0
 13 15  1  0  0  0  0
 13 16  1  0  0  0  0
 11 12  1  0  0  0  0
 11 13  1  0  0  0  0
 11 17  1  0  0  0  0
  9 10  1  0  0  0  0
  9 11  1  0  0  0  0
  9 19  1  0  0  0  0
  7  8  1  0  0  0  0
  7  9  1  0  0  0  0
 23 24  1  0  0  0  0
 23 25  1  0  0  0  0
 23 26  1  0  0  0  0
 21 22  1  0  0  0  0
 21 23  1  0  0  0  0
M  END
$$$$
default_name
  -OEChem-01062215323D

 26 25  0     1  0  0  0  0  0999 V2000
   -2.8882   -3.2497    1.2537 H   0  0  0  0  0  0  0  0  0  0  0  0
   -2.8032   -2.3157    0.7017 C   0  0  0  0  0  0  0  0  0  0  0  0
   -3.5012   -1.5857    1.1067 H   0  0  0  0  0  0  0  0  0  0  0  0
   -3.0182   -2.4907   -0.3513 H   0  0  0  0  0  0  0  0  0  0  0  0
   -1.3942   -1.7897    0.8407 C   0  0  0  0  0  0  0  0  0  0  0  0
   -0.5672   -2.4077    1.5007 O   0  0  0  0  0  0  0  0  0  0  0  0
   -1.1222   -0.6447    0.2217 N   0  0  0  0  0  0  0  0  0  0  0  0
   -1.8592   -0.1777   -0.2863 H   0  0  0  0  0  0  0  0  0  0  0  0
    0.1838    0.0363    0.2367 C   0  0  1  0  0  0  0  0  0  0  0  0
    0.0211    1.1056    0.1067 H   0  0  0  0  0  0  0  0  0  0  0  0
    0.9227   -0.1699    1.5751 C   0  0  1  0  0  0  0  0  0  0  0  0
    1.8773    0.3532    1.5217 H   0  0  0  0  0  0  0  0  0  0  0  0
    0.1684    0.3627    2.7918 C   0  0  0  0  0  0  0  0  0  0  0  0
   -0.7365   -0.2215    2.9636 H   0  0  0  0  0  0  0  0  0  0  0  0
    0.8039    0.3060    3.6748 H   0  0  0  0  0  0  0  0  0  0  0  0
   -0.1092    1.4037    2.6241 H   0  0  0  0  0  0  0  0  0  0  0  0
    1.1765   -1.5334    1.8067 O   0  0  0  0  0  0  0  0  0  0  0  0
    1.5464   -1.6216    2.6875 H   0  0  0  0  0  0  0  0  0  0  0  0
    1.0606   -0.4374   -0.9290 C   0  0  0  0  0  0  0  0  0  0  0  0
    2.2395   -0.7435   -0.7511 O   0  0  0  0  0  0  0  0  0  0  0  0
    0.4771   -0.5286   -2.1323 N   0  0  0  0  0  0  0  0  0  0  0  0
   -0.4960   -0.2827   -2.2099 H   0  0  0  0  0  0  0  0  0  0  0  0
    1.1714   -0.9636   -3.3432 C   0  0  0  0  0  0  0  0  0  0  0  0
    1.6538   -1.9270   -3.1665 H   0  0  0  0  0  0  0  0  0  0  0  0
    0.4686   -1.0611   -4.1708 H   0  0  0  0  0  0  0  0  0  0  0  0
    1.9411   -0.2353   -3.6072 H   0  0  0  0  0  0  0  0  0  0  0  0
  5  6  2  0  0  0  0
  5  7  1  0  0  0  0
  2  3  1  0  0  0  0
  2  4  1  0  0  0  0
  2  5  1  0  0  0  0
  1  2  1  0  0  0  0
 19 20  2  0  0  0  0
 19 21  1  0  0  0  0
 17 18  1  0  0  0  0
 13 14  1  0  0  0  0
 13 15  1  0  0  0  0
 13 16  1  0  0  0  0
 11 12  1  0  0  0  0
 11 13  1  0  0  0  0
 11 17  1  0  0  0  0
  9 10  1  0  0  0  0
  9 11  1  0  0  0  0
  9 19  1  0  0  0  0
  7  8  1  0  0  0  0
  7  9  1  0  0  0  0
 23 24  1  0  0  0  0
 23 25  1  0  0  0  0
 23 26  1  0  0  0  0
 21 22  1  0  0  0  0
 21 23  1  0  0  0  0
M  END
$$$$
default_name
  -OEChem-01062215323D

 26 25  0     1  0  0  0  0  0999 V2000
   -2.8882   -3.2497    1.2537 H   0  0  0  0  0  0  0  0  0  0  0  0
   -2.8032   -2.3157    0.7017 C   0  0  0  0  0  0  0  0  0  0  0  0
   -3.5012   -1.5857    1.1067 H   0  0  0  0  0  0  0  0  0  0  0  0
   -3.0182   -2.4907   -0.3513 H   0  0  0  0  0  0  0  0  0  0  0  0
   -1.3942   -1.7897    0.8407 C   0  0  0  0  0  0  0  0  0  0  0  0
   -0.5672   -2.4077    1.5007 O   0  0  0  0  0  0  0  0  0  0  0  0
   -1.1222   -0.6447    0.2217 N   0  0  0  0  0  0  0  0  0  0  0  0
   -1.8592   -0.1777   -0.2863 H   0  0  0  0  0  0  0  0  0  0  0  0
    0.1838    0.0363    0.2367 C   0  0  1  0  0  0  0  0  0  0  0  0
    0.0211    1.1056    0.1067 H   0  0  0  0  0  0  0  0  0  0  0  0
    0.9227   -0.1699    1.5751 C   0  0  1  0  0  0  0  0  0  0  0  0
    1.8773    0.3532    1.5217 H   0  0  0  0  0  0  0  0  0  0  0  0
    0.1684    0.3627    2.7918 C   0  0  0  0  0  0  0  0  0  0  0  0
   -0.7365   -0.2215    2.9636 H   0  0  0  0  0  0  0  0  0  0  0  0
    0.8039    0.3060    3.6748 H   0  0  0  0  0  0  0  0  0  0  0  0
   -0.1092    1.4037    2.6241 H   0  0  0  0  0  0  0  0  0  0  0  0
    1.1765   -1.5334    1.8067 O   0  0  0  0  0  0  0  0  0  0  0  0
    1.5464   -1.6216    2.6875 H   0  0  0  0  0  0  0  0  0  0  0  0
    1.0606   -0.4374   -0.9290 C   0  0  0  0  0  0  0  0  0  0  0  0
    2.1372   -0.9980   -0.7246 O   0  0  0  0  0  0  0  0  0  0  0  0
    0.5871   -0.2391   -2.1672 N   0  0  0  0  0  0  0  0  0  0  0  0
   -0.3094    0.2074   -2.2688 H   0  0  0  0  0  0  0  0  0  0  0  0
    1.2973   -0.6320   -3.3833 C   0  0  0  0  0  0  0  0  0  0  0  0
    1.5681   -1.6882   -3.3279 H   0  0  0  0  0  0  0  0  0  0  0  0
    0.6704   -0.4681   -4.2600 H   0  0  0  0  0  0  0  0  0  0  0  0
    2.2133   -0.0452   -3.4798 H   0  0  0  0  0  0  0  0  0  0  0  0
  5  6  2  0  0  0  0
  5  7  1  0  0  0  0
  2  3  1  0  0  0  0
  2  4  1  0  0  0  0
  2  5  1  0  0  0  0
  1  2  1  0  0  0  0
 19 20  2  0  0  0  0
 19 21  1  0  0  0  0
 17 18  1  0  0  0  0
 13 14  1  0  0  0  0
 13 15  1  0  0  0  0
 13 16  1  0  0  0  0
 11 12  1  0  0  0  0
 11 13  1  0  0  0  0
 11 17  1  0  0  0  0
  9 10  1  0  0  0  0
  9 11  1  0  0  0  0
  9 19  1  0  0  0  0
  7  8  1  0  0  0  0
  7  9  1  0  0  0  0
 23 24  1  0  0  0  0
 23 25  1  0  0  0  0
 23 26  1  0  0  0  0
 21 22  1  0  0  0  0
 21 23  1  0  0  0  0
M  END
$$$$
default_name
  -OEChem-01062215323D

 26 25  0     1  0  0  0  0  0999 V2000
   -2.8882   -3.2497    1.2537 H   0  0  0  0  0  0  0  0  0  0  0  0
   -2.8032   -2.3157    0.7017 C   0  0  0  0  0  0  0  0  0  0  0  0
   -3.5012   -1.5857    1.1067 H   0  0  0  0  0  0  0  0  0  0  0  0
   -3.0182   -2.4907   -0.3513 H   0  0  0  0  0  0  0  0  0  0  0  0
   -1.3942   -1.7897    0.8407 C   0  0  0  0  0  0  0  0  0  0  0  0
   -0.5672   -2.4077    1.5007 O   0  0  0  0  0  0  0  0  0  0  0  0
   -1.1222   -0.6447    0.2217 N   0  0  0  0  0  0  0  0  0  0  0  0
   -1.8592   -0.1777   -0.2863 H   0  0  0  0  0  0  0  0  0  0  0  0
    0.1838    0.0363    0.2367 C   0  0  1  0  0  0  0  0  0  0  0  0
    0.0211    1.1056    0.1067 H   0  0  0  0  0  0  0  0  0  0  0  0
    0.9227   -0.1699    1.5751 C   0  0  1  0  0  0  0  0  0  0  0  0
    1.8773    0.3532    1.5217 H   0  0  0  0  0  0  0  0  0  0  0  0
    0.1684    0.3627    2.7918 C   0  0  0  0  0  0  0  0  0  0  0  0
   -0.7365   -0.2215    2.9636 H   0  0  0  0  0  0  0  0  0  0  0  0
    0.8039    0.3060    3.6748 H   0  0  0  0  0  0  0  0  0  0  0  0
   -0.1092    1.4037    2.6241 H   0  0  0  0  0  0  0  0  0  0  0  0
    1.1765   -1.5334    1.8067 O   0  0  0  0  0  0  0  0  0  0  0  0
    1.5464   -1.6216    2.6875 H   0  0  0  0  0  0  0  0  0  0  0  0
    1.0606   -0.4374   -0.9290 C   0  0  0  0  0  0  0  0  0  0  0  0
    1.9862   -1.2277   -0.7448 O   0  0  0  0  0  0  0  0  0  0  0  0
    0.7531    0.0241   -2.1493 N   0  0  0  0  0  0  0  0  0  0  0  0
   -0.0280    0.6528   -2.2381 H   0  0  0  0  0  0  0  0  0  0  0  0
    1.4873   -0.3305   -3.3629 C   0  0  0  0  0  0  0  0  0  0  0  0
    1.5453   -1.4168   -3.4554 H   0  0  0  0  0  0  0  0  0  0  0  0
    0.9892    0.0782   -4.2423 H   0  0  0  0  0  0  0  0  0  0  0  0
    2.5033    0.0660   -3.3068 H   0  0  0  0  0  0  0  0  0  0  0  0
  5  6  2  0  0  0  0
  5  7  1  0  0  0  0
  2  3  1  0  0  0  0
  2  4  1  0  0  0  0
  2  5  1  0  0  0  0
  1  2  1  0  0  0  0
 19 20  2  0  0  0  0
 19 21  1  0  0  0  0
 17 18  1  0  0  0  0
 13 14  1  0  0  0  0
 13 15  1  0  0  0  0
 13 16  1  0  0  0  0
 11 12  1  0  0  0  0
 11 13  1  0  0  0  0
 11 17  1  0  0  0  0
  9 10  1  0  0  0  0
  9 11  1  0  0  0  0
  9 19  1  0  0  0  0
  7  8  1  0  0  0  0
  7  9  1  0  0  0  0
 23 24  1  0  0  0  0
 23 25  1  0  0  0  0
 23 26  1  0  0  0  0
 21 22  1  0  0  0  0
 21 23  1  0  0  0  0
M  END
$$$$
default_name
  -OEChem-01062215323D

 26 25  0     1  0  0  0  0  0999 V2000
   -2.8882   -3.2497    1.2537 H   0  0  0  0  0  0  0  0  0  0  0  0
   -2.8032   -2.3157    0.7017 C   0  0  0  0  0  0  0  0  0  0  0  0
   -3.5012   -1.5857    1.1067 H   0  0  0  0  0  0  0  0  0  0  0  0
   -3.0182   -2.4907   -0.3513 H   0  0  0  0  0  0  0  0  0  0  0  0
   -1.3942   -1.7897    0.8407 C   0  0  0  0  0  0  0  0  0  0  0  0
   -0.5672   -2.4077    1.5007 O   0  0  0  0  0  0  0  0  0  0  0  0
   -1.1222   -0.6447    0.2217 N   0  0  0  0  0  0  0  0  0  0  0  0
   -1.8592   -0.1777   -0.2863 H   0  0  0  0  0  0  0  0  0  0  0  0
    0.1838    0.0363    0.2367 C   0  0  1  0  0  0  0  0  0  0  0  0
    0.0211    1.1056    0.1067 H   0  0  0  0  0  0  0  0  0  0  0  0
    0.9227   -0.1699    1.5751 C   0  0  1  0  0  0  0  0  0  0  0  0
    1.8773    0.3532    1.5217 H   0  0  0  0  0  0  0  0  0  0  0  0
    0.1684    0.3627    2.7918 C   0  0  0  0  0  0  0  0  0  0  0  0
   -0.7365   -0.2215    2.9636 H   0  0  0  0  0  0  0  0  0  0  0  0
    0.8039    0.3060    3.6748 H   0  0  0  0  0  0  0  0  0  0  0  0
   -0.1092    1.4037    2.6241 H   0  0  0  0  0  0  0  0  0  0  0  0
    1.1765   -1.5334    1.8067 O   0  0  0  0  0  0  0  0  0  0  0  0
    1.5464   -1.6216    2.6875 H   0  0  0  0  0  0  0  0  0  0  0  0
    1.0606   -0.4374   -0.9290 C   0  0  0  0  0  0  0  0  0  0  0  0
    1.7968   -1.4168   -0.8104 O   0  0  0  0  0  0  0  0  0  0  0  0
    0.9638    0.2430   -2.0798 N   0  0  0  0  0  0  0  0  0  0  0  0
    0.3289    1.0232   -2.1202 H   0  0  0  0  0  0  0  0  0  0  0  0
    1.7286   -0.0796   -3.2834 C   0  0  0  0  0  0  0  0  0  0  0  0
    1.5868   -1.1313   -3.5403 H   0  0  0  0  0  0  0  0  0  0  0  0
    1.4031    0.5405   -4.1189 H   0  0  0  0  0  0  0  0  0  0  0  0
    2.7916    0.0908   -3.1001 H   0  0  0  0  0  0  0  0  0  0  0  0
  5  6  2  0  0  0  0
  5  7  1  0  0  0  0
  2  3  1  0  0  0  0
  2  4  1  0  0  0  0
  2  5  1  0  0  0  0
  1  2  1  0  0  0  0
 19 20  2  0  0  0  0
 19 21  1  0  0  0  0
 17 18  1  0  0  0  0
 13 14  1  0  0  0  0
 13 15  1  0  0  0  0
 13 16  1  0  0  0  0
 11 12  1  0  0  0  0
 11 13  1  0  0  0  0
 11 17  1  0  0  0  0
  9 10  1  0  0  0  0
  9 11  1  0  0  0  0
  9 19  1  0  0  0  0
  7  8  1  0  0  0  0
  7  9  1  0  0  0  0
 23 24  1  0  0  0  0
 23 25  1  0  0  0  0
 23 26  1  0  0  0  0
 21 22  1  0  0  0  0
 21 23  1  0  0  0  0
M  END
$$$$
default_name
  -OEChem-01062215323D

 26 25  0     1  0  0  0  0  0999 V2000
   -2.8882   -3.2497    1.2537 H   0  0  0  0  0  0  0  0  0  0  0  0
   -2.8032   -2.3157    0.7017 C   0  0  0  0  0  0  0  0  0  0  0  0
   -3.5012   -1.5857    1.1067 H   0  0  0  0  0  0  0  0  0  0  0  0
   -3.0182   -2.4907   -0.3513 H   0  0  0  0  0  0  0  0  0  0  0  0
   -1.3942   -1.7897    0.8407 C   0  0  0  0  0  0  0  0  0  0  0  0
   -0.5672   -2.4077    1.5007 O   0  0  0  0  0  0  0  0  0  0  0  0
   -1.1222   -0.6447    0.2217 N   0  0  0  0  0  0  0  0  0  0  0  0
   -1.8592   -0.1777   -0.2863 H   0  0  0  0  0  0  0  0  0  0  0  0
    0.1838    0.0363    0.2367 C   0  0  1  0  0  0  0  0  0  0  0  0
    0.0211    1.1056    0.1067 H   0  0  0  0  0  0  0  0  0  0  0  0
    0.9227   -0.1699    1.5751 C   0  0  1  0  0  0  0  0  0  0  0  0
    1.8773    0.3532    1.5217 H   0  0  0  0  0  0  0  0  0  0  0  0
    0.1684    0.3627    2.7918 C   0  0  0  0  0  0  0  0  0  0  0  0
   -0.7365   -0.2215    2.9636 H   0  0  0  0  0  0  0  0  0  0  0  0
    0.8039    0.3060    3.6748 H   0  0  0  0  0  0  0  0  0  0  0  0
   -0.1092    1.4037    2.6241 H   0  0  0  0  0  0  0  0  0  0  0  0
    1.1765   -1.5334    1.8067 O   0  0  0  0  0  0  0  0  0  0  0  0
    1.5464   -1.6216    2.6875 H   0  0  0  0  0  0  0  0  0  0  0  0
    1.0606   -0.4374   -0.9290 C   0  0  0  0  0  0  0  0  0  0  0  0
    1.5819   -1.5524   -0.9169 O   0  0  0  0  0  0  0  0  0  0  0  0
    1.2049    0.4027   -1.9634 N   0  0  0  0  0  0  0  0  0  0  0  0
    0.7371    1.2932   -1.9229 H   0  0  0  0  0  0  0  0  0  0  0  0
    2.0046    0.1034   -3.1502 C   0  0  0  0  0  0  0  0  0  0  0  0
    1.6898   -0.8511   -3.5766 H   0  0  0  0  0  0  0  0  0  0  0  0
    1.8840    0.8874   -3.8981 H   0  0  0  0  0  0  0  0  0  0  0  0
    3.0583    0.0275   -2.8737 H   0  0  0  0  0  0  0  0  0  0  0  0
  5  6  2  0  0  0  0
  5  7  1  0  0  0  0
  2  3  1  0  0  0  0
  2  4  1  0  0  0  0
  2  5  1  0  0  0  0
  1  2  1  0  0  0  0
 19 20  2  0  0  0  0
 19 21  1  0  0  0  0
 17 18  1  0  0  0  0
 13 14  1  0  0  0  0
 13 15  1  0  0  0  0
 13 16  1  0  0  0  0
 11 12  1  0  0  0  0
 11 13  1  0  0  0  0
 11 17  1  0  0  0  0
  9 10  1  0  0  0  0
  9 11  1  0  0  0  0
  9 19  1  0  0  0  0
  7  8  1  0  0  0  0
  7  9  1  0  0  0  0
 23 24  1  0  0  0  0
 23 25  1  0  0  0  0
 23 26  1  0  0  0  0
 21 22  1  0  0  0  0
 21 23  1  0  0  0  0
M  END
$$$$
default_name
  -OEChem-01062215323D

 26 25  0     1  0  0  0  0  0999 V2000
   -2.8882   -3.2497    1.2537 H   0  0  0  0  0  0  0  0  0  0  0  0
   -2.8032   -2.3157    0.7017 C   0  0  0  0  0  0  0  0  0  0  0  0
   -3.5012   -1.5857    1.1067 H   0  0  0  0  0  0  0  0  0  0  0  0
   -3.0182   -2.4907   -0.3513 H   0  0  0  0  0  0  0  0  0  0  0  0
   -1.3942   -1.7897    0.8407 C   0  0  0  0  0  0  0  0  0  0  0  0
   -0.5672   -2.4077    1.5007 O   0  0  0  0  0  0  0  0  0  0  0  0
   -1.1222   -0.6447    0.2217 N   0  0  0  0  0  0  0  0  0  0  0  0
   -1.8592   -0.1777   -0.2863 H   0  0  0  0  0  0  0  0  0  0  0  0
    0.1838    0.0363    0.2367 C   0  0  1  0  0  0  0  0  0  0  0  0
    0.0211    1.1056    0.1067 H   0  0  0  0  0  0  0  0  0  0  0  0
    0.9227   -0.1699    1.5751 C   0  0  1  0  0  0  0  0  0  0  0  0
    1.8773    0.3532    1.5217 H   0  0  0  0  0  0  0  0  0  0  0  0
    0.1684    0.3627    2.7918 C   0  0  0  0  0  0  0  0  0  0  0  0
   -0.7365   -0.2215    2.9636 H   0  0  0  0  0  0  0  0  0  0  0  0
    0.8039    0.3060    3.6748 H   0  0  0  0  0  0  0  0  0  0  0  0
   -0.1092    1.4037    2.6241 H   0  0  0  0  0  0  0  0  0  0  0  0
    1.1765   -1.5334    1.8067 O   0  0  0  0  0  0  0  0  0  0  0  0
    1.5464   -1.6216    2.6875 H   0  0  0  0  0  0  0  0  0  0  0  0
    1.0606   -0.4374   -0.9290 C   0  0  0  0  0  0  0  0  0  0  0  0
    1.3562   -1.6255   -1.0570 O   0  0  0  0  0  0  0  0  0  0  0  0
    1.4598    0.4923   -1.8081 N   0  0  0  0  0  0  0  0  0  0  0  0
    1.1688    1.4446   -1.6598 H   0  0  0  0  0  0  0  0  0  0  0  0
    2.2965    0.2063   -2.9724 C   0  0  0  0  0  0  0  0  0  0  0  0
    1.8473   -0.5953   -3.5621 H   0  0  0  0  0  0  0  0  0  0  0  0
    2.3991    1.0952   -3.5952 H   0  0  0  0  0  0  0  0  0  0  0  0
    3.2854   -0.1197   -2.6431 H   0  0  0  0  0  0  0  0  0  0  0  0
  5  6  2  0  0  0  0
  5  7  1  0  0  0  0
  2  3  1  0  0  0  0
  2  4  1  0  0  0  0
  2  5  1  0  0  0  0
  1  2  1  0  0  0  0
 19 20  2  0  0  0  0
 19 21  1  0  0  0  0
 17 18  1  0  0  0  0
 13 14  1  0  0  0  0
 13 15  1  0  0  0  0
 13 16  1  0  0  0  0
 11 12  1  0  0  0  0
 11 13  1  0  0  0  0
 11 17  1  0  0  0  0
  9 10  1  0  0  0  0
  9 11  1  0  0  0  0
  9 19  1  0  0  0  0
  7  8  1  0  0  0  0
  7  9  1  0  0  0  0
 23 24  1  0  0  0  0
 23 25  1  0  0  0  0
 23 26  1  0  0  0  0
 21 22  1  0  0  0  0
 21 23  1  0  0  0  0
M  END
$$$$
default_name
  -OEChem-01062215323D

 26 25  0     1  0  0  0  0  0999 V2000
   -2.8882   -3.2497    1.2537 H   0  0  0  0  0  0  0  0  0  0  0  0
   -2.8032   -2.3157    0.7017 C   0  0  0  0  0  0  0  0  0  0  0  0
   -3.5012   -1.5857    1.1067 H   0  0  0  0  0  0  0  0  0  0  0  0
   -3.0182   -2.4907   -0.3513 H   0  0  0  0  0  0  0  0  0  0  0  0
   -1.3942   -1.7897    0.8407 C   0  0  0  0  0  0  0  0  0  0  0  0
   -0.5672   -2.4077    1.5007 O   0  0  0  0  0  0  0  0  0  0  0  0
   -1.1222   -0.6447    0.2217 N   0  0  0  0  0  0  0  0  0  0  0  0
   -1.8592   -0.1777   -0.2863 H   0  0  0  0  0  0  0  0  0  0  0  0
    0.1838    0.0363    0.2367 C   0  0  1  0  0  0  0  0  0  0  0  0
    0.0211    1.1056    0.1067 H   0  0  0  0  0  0  0  0  0  0  0  0
    0.9227   -0.1699    1.5751 C   0  0  1  0  0  0  0  0  0  0  0  0
    1.8773    0.3532    1.5217 H   0  0  0  0  0  0  0  0  0  0  0  0
    0.1684    0.3627    2.7918 C   0  0  0  0  0  0  0  0  0  0  0  0
   -0.7365   -0.2215    2.9636 H   0  0  0  0  0  0  0  0  0  0  0  0
    0.8039    0.3060    3.6748 H   0  0  0  0  0  0  0  0  0  0  0  0
   -0.1092    1.4037    2.6241 H   0  0  0  0  0  0  0  0  0  0  0  0
    1.1765   -1.5334    1.8067 O   0  0  0  0  0  0  0  0  0  0  0  0
    1.5464   -1.6216    2.6875 H   0  0  0  0  0  0  0  0  0  0  0  0
    1.0606   -0.4374   -0.9290 C   0  0  0  0  0  0  0  0  0  0  0  0
    1.1349   -1.6309   -1.2212 O   0  0  0  0  0  0  0  0  0  0  0  0
    1.7112    0.5057   -1.6244 N   0  0  0  0  0  0  0  0  0  0  0  0
    1.5944    1.4669   -1.3487 H   0  0  0  0  0  0  0  0  0  0  0  0
    2.5846    0.2218   -2.7621 C   0  0  0  0  0  0  0  0  0  0  0  0
    2.0487   -0.3815   -3.4976 H   0  0  0  0  0  0  0  0  0  0  0  0
    2.9133    1.1497   -3.2306 H   0  0  0  0  0  0  0  0  0  0  0  0
    3.4574   -0.3407   -2.4240 H   0  0  0  0  0  0  0  0  0  0  0  0
  5  6  2  0  0  0  0
  5  7  1  0  0  0  0
  2  3  1  0  0  0  0
  2  4  1  0  0  0  0
  2  5  1  0  0  0  0
  1  2  1  0  0  0  0
 19 20  2  0  0  0  0
 19 21  1  0  0  0  0
 17 18  1  0  0  0  0
 13 14  1  0  0  0  0
 13 15  1  0  0  0  0
 13 16  1  0  0  0  0
 11 12  1  0  0  0  0
 11 13  1  0  0  0  0
 11 17  1  0  0  0  0
  9 10  1  0  0  0  0
  9 11  1  0  0  0  0
  9 19  1  0  0  0  0
  7  8  1  0  0  0  0
  7  9  1  0  0  0  0
 23 24  1  0  0  0  0
 23 25  1  0  0  0  0
 23 26  1  0  0  0  0
 21 22  1  0  0  0  0
 21 23  1  0  0  0  0
M  END
$$$$
default_name
  -OEChem-01062215323D

 26 25  0     1  0  0  0  0  0999 V2000
   -2.8882   -3.2497    1.2537 H   0  0  0  0  0  0  0  0  0  0  0  0
   -2.8032   -2.3157    0.7017 C   0  0  0  0  0  0  0  0  0  0  0  0
   -3.5012   -1.5857    1.1067 H   0  0  0  0  0  0  0  0  0  0  0  0
   -3.0182   -2.4907   -0.3513 H   0  0  0  0  0  0  0  0  0  0  0  0
   -1.3942   -1.7897    0.8407 C   0  0  0  0  0  0  0  0  0  0  0  0
   -0.5672   -2.4077    1.5007 O   0  0  0  0  0  0  0  0  0  0  0  0
   -1.1222   -0.6447    0.2217 N   0  0  0  0  0  0  0  0  0  0  0  0
   -1.8592   -0.1777   -0.2863 H   0  0  0  0  0  0  0  0  0  0  0  0
    0.1838    0.0363    0.2367 C   0  0  1  0  0  0  0  0  0  0  0  0
    0.0211    1.1056    0.1067 H   0  0  0  0  0  0  0  0  0  0  0  0
    0.9227   -0.1699    1.5751 C   0  0  1  0  0  0  0  0  0  0  0  0
    1.8773    0.3532    1.5217 H   0  0  0  0  0  0  0  0  0  0  0  0
    0.1684    0.3627    2.7918 C   0  0  0  0  0  0  0  0  0  0  0  0
   -0.7365   -0.2215    2.9636 H   0  0  0  0  0  0  0  0  0  0  0  0
    0.8039    0.3060    3.6748 H   0  0  0  0  0  0  0  0  0  0  0  0
   -0.1092    1.4037    2.6241 H   0  0  0  0  0  0  0  0  0  0  0  0
    1.1765   -1.5334    1.8067 O   0  0  0  0  0  0  0  0  0  0  0  0
    1.5464   -1.6216    2.6875 H   0  0  0  0  0  0  0  0  0  0  0  0
    1.0606   -0.4374   -0.9290 C   0  0  0  0  0  0  0  0  0  0  0  0
    0.9333   -1.5683   -1.3983 O   0  0  0  0  0  0  0  0  0  0  0  0
    1.9421    0.4421   -1.4249 N   0  0  0  0  0  0  0  0  0  0  0  0
    1.9851    1.3587   -1.0109 H   0  0  0  0  0  0  0  0  0  0  0  0
    2.8490    0.1491   -2.5336 C   0  0  0  0  0  0  0  0  0  0  0  0
    2.2801   -0.2240   -3.3875 H   0  0  0  0  0  0  0  0  0  0  0  0
    3.3916    1.0473   -2.8292 H   0  0  0  0  0  0  0  0  0  0  0  0
    3.5625   -0.6204   -2.2312 H   0  0  0  0  0  0  0  0  0  0  0  0
  5  6  2  0  0  0  0
  5  7  1  0  0  0  0
  2  3  1  0  0  0  0
  2  4  1  0  0  0  0
  2  5  1  0  0  0  0
  1  2  1  0  0  0  0
 19 20  2  0  0  0  0
 19 21  1  0  0  0  0
 17 18  1  0  0  0  0
 13 14  1  0  0  0  0
 13 15  1  0  0  0  0
 13 16  1  0  0  0  0
 11 12  1  0  0  0  0
 11 13  1  0  0  0  0
 11 17  1  0  0  0  0
  9 10  1  0  0  0  0
  9 11  1  0  0  0  0
  9 19  1  0  0  0  0
  7  8  1  0  0  0  0
  7  9  1  0  0  0  0
 23 24  1  0  0  0  0
 23 25  1  0  0  0  0
 23 26  1  0  0  0  0
 21 22  1  0  0  0  0
 21 23  1  0  0  0  0
M  END
$$$$
default_name
  -OEChem-01062215323D

 26 25  0     1  0  0  0  0  0999 V2000
   -2.8882   -3.2497    1.2537 H   0  0  0  0  0  0  0  0  0  0  0  0
   -2.8032   -2.3157    0.7017 C   0  0  0  0  0  0  0  0  0  0  0  0
   -3.5012   -1.5857    1.1067 H   0  0  0  0  0  0  0  0  0  0  0  0
   -3.0182   -2.4907   -0.3513 H   0  0  0  0  0  0  0  0  0  0  0  0
   -1.3942   -1.7897    0.8407 C   0  0  0  0  0  0  0  0  0  0  0  0
   -0.5672   -2.4077    1.5007 O   0  0  0  0  0  0  0  0  0  0  0  0
   -1.1222   -0.6447    0.2217 N   0  0  0  0  0  0  0  0  0  0  0  0
   -1.8592   -0.1777   -0.2863 H   0  0  0  0  0  0  0  0  0  0  0  0
    0.1838    0.0363    0.2367 C   0  0  1  0  0  0  0  0  0  0  0  0
    0.0211    1.1056    0.1067 H   0  0  0  0  0  0  0  0  0  0  0  0
    0.9227   -0.1699    1.5751 C   0  0  1  0  0  0  0  0  0  0  0  0
    1.8773    0.3532    1.5217 H   0  0  0  0  0  0  0  0  0  0  0  0
    0.1684    0.3627    2.7918 C   0  0  0  0  0  0  0  0  0  0  0  0
   -0.7365   -0.2215    2.9636 H   0  0  0  0  0  0  0  0  0  0  0  0
    0.8039    0.3060    3.6748 H   0  0  0  0  0  0  0  0  0  0  0  0
   -0.1092    1.4037    2.6241 H   0  0  0  0  0  0  0  0  0  0  0  0
    1.1765   -1.5334    1.8067 O   0  0  0  0  0  0  0  0  0  0  0  0
    1.5464   -1.6216    2.6875 H   0  0  0  0  0  0  0  0  0  0  0  0
    1.0606   -0.4374   -0.9290 C   0  0  0  0  0  0  0  0  0  0  0  0
    0.7650   -1.4419   -1.5762 O   0  0  0  0  0  0  0  0  0  0  0  0
    2.1366    0.3057   -1.2232 N   0  0  0  0  0  0  0  0  0  0  0  0
    2.3142    1.1273   -0.6693 H   0  0  0  0  0  0  0  0  0  0  0  0
    3.0719   -0.0070   -2.3026 C   0  0  0  0  0  0  0  0  0  0  0  0
    2.5257   -0.1338   -3.2394 H   0  0  0  0  0  0  0  0  0  0  0  0
    3.8013    0.7949   -2.4185 H   0  0  0  0  0  0  0  0  0  0  0  0
    3.5937   -0.9398   -2.0781 H   0  0  0  0  0  0  0  0  0  0  0  0
  5  6  2  0  0  0  0
  5  7  1  0  0  0  0
  2  3  1  0  0  0  0
  2  4  1  0  0  0  0
  2  5  1  0  0  0  0
  1  2  1  0  0  0  0
 19 20  2  0  0  0  0
 19 21  1  0  0  0  0
 17 18  1  0  0  0  0
 13 14  1  0  0  0  0
 13 15  1  0  0  0  0
 13 16  1  0  0  0  0
 11 12  1  0  0  0  0
 11 13  1  0  0  0  0
 11 17  1  0  0  0  0
  9 10  1  0  0  0  0
  9 11  1  0  0  0  0
  9 19  1  0  0  0  0
  7  8  1  0  0  0  0
  7  9  1  0  0  0  0
 23 24  1  0  0  0  0
 23 25  1  0  0  0  0
 23 26  1  0  0  0  0
 21 22  1  0  0  0  0
 21 23  1  0  0  0  0
M  END
$$$$
default_name
  -OEChem-01062215323D

 26 25  0     1  0  0  0  0  0999 V2000
   -2.8882   -3.2497    1.2537 H   0  0  0  0  0  0  0  0  0  0  0  0
   -2.8032   -2.3157    0.7017 C   0  0  0  0  0  0  0  0  0  0  0  0
   -3.5012   -1.5857    1.1067 H   0  0  0  0  0  0  0  0  0  0  0  0
   -3.0182   -2.4907   -0.3513 H   0  0  0  0  0  0  0  0  0  0  0  0
   -1.3942   -1.7897    0.8407 C   0  0  0  0  0  0  0  0  0  0  0  0
   -0.5672   -2.4077    1.5007 O   0  0  0  0  0  0  0  0  0  0  0  0
   -1.1222   -0.6447    0.2217 N   0  0  0  0  0  0  0  0  0  0  0  0
   -1.8592   -0.1777   -0.2863 H   0  0  0  0  0  0  0  0  0  0  0  0
    0.1838    0.0363    0.2367 C   0  0  1  0  0  0  0  0  0  0  0  0
    0.0188    1.1041    0.3762 H   0  0  0  0  0  0  0  0  0  0  0  0
    1.0755   -0.4590    1.3939 C   0  0  1  0  0  0  0  0  0  0  0  0
    2.0227    0.0782    1.3486 H   0  0  0  0  0  0  0  0  0  0  0  0
    0.4788   -0.2322    2.7815 C   0  0  0  0  0  0  0  0  0  0  0  0
   -0.4056   -0.8552    2.9213 H   0  0  0  0  0  0  0  0  0  0  0  0
    1.2149   -0.4794    3.5455 H   0  0  0  0  0  0  0  0  0  0  0  0
    0.1948    0.8147    2.8917 H   0  0  0  0  0  0  0  0  0  0  0  0
    1.3398   -1.8349    1.2742 O   0  0  0  0  0  0  0  0  0  0  0  0
    1.8117   -2.1166    2.0607 H   0  0  0  0  0  0  0  0  0  0  0  0
    0.9090   -0.1429   -1.1027 C   0  0  0  0  0  0  0  0  0  0  0  0
    0.3861   -0.7642   -2.0278 O   0  0  0  0  0  0  0  0  0  0  0  0
    2.1147    0.4299   -1.2241 N   0  0  0  0  0  0  0  0  0  0  0  0
    2.4804    0.9418   -0.4382 H   0  0  0  0  0  0  0  0  0  0  0  0
    2.9342    0.3545   -2.4326 C   0  0  0  0  0  0  0  0  0  0  0  0
    2.3525    0.6870   -3.2946 H   0  0  0  0  0  0  0  0  0  0  0  0
    3.8187    0.9839   -2.3326 H   0  0  0  0  0  0  0  0  0  0  0  0
    3.2439   -0.6788   -2.6027 H   0  0  0  0  0  0  0  0  0  0  0  0
  5  6  2  0  0  0  0
  5  7  1  0  0  0  0
  2  3  1  0  0  0  0
  2  4  1  0  0  0  0
  2  5  1  0  0  0  0
  1  2  1  0  0  0  0
 19 20  2  0  0  0  0
 19 21  1  0  0  0  0
 17 18  1  0  0  0  0
 13 14  1  0  0  0  0
 13 15  1  0  0  0  0
 13 16  1  0  0  0  0
 11 12  1  0  0  0  0
 11 13  1  0  0  0  0
 11 17  1  0  0  0  0
  9 10  1  0  0  0  0
  9 11  1  0  0  0  0
  9 19  1  0  0  0  0
  7  8  1  0  0  0  0
  7  9  1  0  0  0  0
 23 24  1  0  0  0  0
 23 25  1  0  0  0  0
 23 26  1  0  0  0  0
 21 22  1  0  0  0  0
 21 23  1  0  0  0  0
M  END
$$$$
default_name
  -OEChem-01062215323D

 26 25  0     1  0  0  0  0  0999 V2000
   -2.8882   -3.2497    1.2537 H   0  0  0  0  0  0  0  0  0  0  0  0
   -2.8032   -2.3157    0.7017 C   0  0  0  0  0  0  0  0  0  0  0  0
   -3.5012   -1.5857    1.1067 H   0  0  0  0  0  0  0  0  0  0  0  0
   -3.0182   -2.4907   -0.3513 H   0  0  0  0  0  0  0  0  0  0  0  0
   -1.3942   -1.7897    0.8407 C   0  0  0  0  0  0  0  0  0  0  0  0
   -0.5672   -2.4077    1.5007 O   0  0  0  0  0  0  0  0  0  0  0  0
   -1.1222   -0.6447    0.2217 N   0  0  0  0  0  0  0  0  0  0  0  0
   -1.8592   -0.1777   -0.2863 H   0  0  0  0  0  0  0  0  0  0  0  0
    0.1838    0.0363    0.2367 C   0  0  1  0  0  0  0  0  0  0  0  0
    0.0188    1.1041    0.3762 H   0  0  0  0  0  0  0  0  0  0  0  0
    1.0755   -0.4590    1.3939 C   0  0  1  0  0  0  0  0  0  0  0  0
    2.0227    0.0782    1.3486 H   0  0  0  0  0  0  0  0  0  0  0  0
    0.4788   -0.2322    2.7815 C   0  0  0  0  0  0  0  0  0  0  0  0
   -0.4056   -0.8552    2.9213 H   0  0  0  0  0  0  0  0  0  0  0  0
    1.2149   -0.4794    3.5455 H   0  0  0  0  0  0  0  0  0  0  0  0
    0.1948    0.8147    2.8917 H   0  0  0  0  0  0  0  0  0  0  0  0
    1.3398   -1.8349    1.2742 O   0  0  0  0  0  0  0  0  0  0  0  0
    1.8117   -2.1166    2.0607 H   0  0  0  0  0  0  0  0  0  0  0  0
    0.9090   -0.1429   -1.1027 C   0  0  0  0  0  0  0  0  0  0  0  0
    0.3016   -0.5141   -2.1070 O   0  0  0  0  0  0  0  0  0  0  0  0
    2.2166    0.1503   -1.1316 N   0  0  0  0  0  0  0  0  0  0  0  0
    2.6526    0.4682   -0.2817 H   0  0  0  0  0  0  0  0  0  0  0  0
    3.0510    0.0343   -2.3265 C   0  0  0  0  0  0  0  0  0  0  0  0
    2.5974    0.5907   -3.1492 H   0  0  0  0  0  0  0  0  0  0  0  0
    4.0488    0.4291   -2.1339 H   0  0  0  0  0  0  0  0  0  0  0  0
    3.1284   -1.0146   -2.6203 H   0  0  0  0  0  0  0  0  0  0  0  0
  5  6  2  0  0  0  0
  5  7  1  0  0  0  0
  2  3  1  0  0  0  0
  2  4  1  0  0  0  0
  2  5  1  0  0  0  0
  1  2  1  0  0  0  0
 19 20  2  0  0  0  0
 19 21  1  0  0  0  0
 17 18  1  0  0  0  0
 13 14  1  0  0  0  0
 13 15  1  0  0  0  0
 13 16  1  0  0  0  0
 11 12  1  0  0  0  0
 11 13  1  0  0  0  0
 11 17  1  0  0  0  0
  9 10  1  0  0  0  0
  9 11  1  0  0  0  0
  9 19  1  0  0  0  0
  7  8  1  0  0  0  0
  7  9  1  0  0  0  0
 23 24  1  0  0  0  0
 23 25  1  0  0  0  0
 23 26  1  0  0  0  0
 21 22  1  0  0  0  0
 21 23  1  0  0  0  0
M  END
$$$$
default_name
  -OEChem-01062215323D

 26 25  0     1  0  0  0  0  0999 V2000
   -2.8882   -3.2497    1.2537 H   0  0  0  0  0  0  0  0  0  0  0  0
   -2.8032   -2.3157    0.7017 C   0  0  0  0  0  0  0  0  0  0  0  0
   -3.5012   -1.5857    1.1067 H   0  0  0  0  0  0  0  0  0  0  0  0
   -3.0182   -2.4907   -0.3513 H   0  0  0  0  0  0  0  0  0  0  0  0
   -1.3942   -1.7897    0.8407 C   0  0  0  0  0  0  0  0  0  0  0  0
   -0.5672   -2.4077    1.5007 O   0  0  0  0  0  0  0  0  0  0  0  0
   -1.1222   -0.6447    0.2217 N   0  0  0  0  0  0  0  0  0  0  0  0
   -1.8592   -0.1777   -0.2863 H   0  0  0  0  0  0  0  0  0  0  0  0
    0.1838    0.0363    0.2367 C   0  0  1  0  0  0  0  0  0  0  0  0
    0.0188    1.1041    0.3762 H   0  0  0  0  0  0  0  0  0  0  0  0
    1.0755   -0.4590    1.3939 C   0  0  1  0  0  0  0  0  0  0  0  0
    2.0227    0.0782    1.3486 H   0  0  0  0  0  0  0  0  0  0  0  0
    0.4788   -0.2322    2.7815 C   0  0  0  0  0  0  0  0  0  0  0  0
   -0.4056   -0.8552    2.9213 H   0  0  0  0  0  0  0  0  0  0  0  0
    1.2149   -0.4794    3.5455 H   0  0  0  0  0  0  0  0  0  0  0  0
    0.1948    0.8147    2.8917 H   0  0  0  0  0  0  0  0  0  0  0  0
    1.3398   -1.8349    1.2742 O   0  0  0  0  0  0  0  0  0  0  0  0
    1.8117   -2.1166    2.0607 H   0  0  0  0  0  0  0  0  0  0  0  0
    0.9090   -0.1429   -1.1027 C   0  0  0  0  0  0  0  0  0  0  0  0
    0.2789   -0.2438   -2.1554 O   0  0  0  0  0  0  0  0  0  0  0  0
    2.2489   -0.1542   -1.0733 N   0  0  0  0  0  0  0  0  0  0  0  0
    2.7070   -0.0474   -0.1832 H   0  0  0  0  0  0  0  0  0  0  0  0
    3.0883   -0.3144   -2.2597 C   0  0  0  0  0  0  0  0  0  0  0  0
    2.8079    0.4245   -3.0130 H   0  0  0  0  0  0  0  0  0  0  0  0
    4.1396   -0.1832   -2.0028 H   0  0  0  0  0  0  0  0  0  0  0  0
    2.9415   -1.3108   -2.6819 H   0  0  0  0  0  0  0  0  0  0  0  0
  5  6  2  0  0  0  0
  5  7  1  0  0  0  0
  2  3  1  0  0  0  0
  2  4  1  0  0  0  0
  2  5  1  0  0  0  0
  1  2  1  0  0  0  0
 19 20  2  0  0  0  0
 19 21  1  0  0  0  0
 17 18  1  0  0  0  0
 13 14  1  0  0  0  0
 13 15  1  0  0  0  0
 13 16  1  0  0  0  0
 11 12  1  0  0  0  0
 11 13  1  0  0  0  0
 11 17  1  0  0  0  0
  9 10  1  0  0  0  0
  9 11  1  0  0  0  0
  9 19  1  0  0  0  0
  7  8  1  0  0  0  0
  7  9  1  0  0  0  0
 23 24  1  0  0  0  0
 23 25  1  0  0  0  0
 23 26  1  0  0  0  0
 21 22  1  0  0  0  0
 21 23  1  0  0  0  0
M  END
$$$$
default_name
  -OEChem-01062215323D

 26 25  0     1  0  0  0  0  0999 V2000
   -2.8882   -3.2497    1.2537 H   0  0  0  0  0  0  0  0  0  0  0  0
   -2.8032   -2.3157    0.7017 C   0  0  0  0  0  0  0  0  0  0  0  0
   -3.5012   -1.5857    1.1067 H   0  0  0  0  0  0  0  0  0  0  0  0
   -3.0182   -2.4907   -0.3513 H   0  0  0  0  0  0  0  0  0  0  0  0
   -1.3942   -1.7897    0.8407 C   0  0  0  0  0  0  0  0  0  0  0  0
   -0.5672   -2.4077    1.5007 O   0  0  0  0  0  0  0  0  0  0  0  0
   -1.1222   -0.6447    0.2217 N   0  0  0  0  0  0  0  0  0  0  0  0
   -1.8592   -0.1777   -0.2863 H   0  0  0  0  0  0  0  0  0  0  0  0
    0.1838    0.0363    0.2367 C   0  0  1  0  0  0  0  0  0  0  0  0
    0.0188    1.1041    0.3762 H   0  0  0  0  0  0  0  0  0  0  0  0
    1.0755   -0.4590    1.3939 C   0  0  1  0  0  0  0  0  0  0  0  0
    2.0227    0.0782    1.3486 H   0  0  0  0  0  0  0  0  0  0  0  0
    0.4788   -0.2322    2.7815 C   0  0  0  0  0  0  0  0  0  0  0  0
   -0.4056   -0.8552    2.9213 H   0  0  0  0  0  0  0  0  0  0  0  0
    1.2149   -0.4794    3.5455 H   0  0  0  0  0  0  0  0  0  0  0  0
    0.1948    0.8147    2.8917 H   0  0  0  0  0  0  0  0  0  0  0  0
    1.3398   -1.8349    1.2742 O   0  0  0  0  0  0  0  0  0  0  0  0
    1.8117   -2.1166    2.0607 H   0  0  0  0  0  0  0  0  0  0  0  0
    0.9090   -0.1429   -1.1027 C   0  0  0  0  0  0  0  0  0  0  0  0
    0.3196    0.0283   -2.1698 O   0  0  0  0  0  0  0  0  0  0  0  0
    2.2097   -0.4627   -1.0533 N   0  0  0  0  0  0  0  0  0  0  0  0
    2.6401   -0.5698   -0.1496 H   0  0  0  0  0  0  0  0  0  0  0  0
    3.0435   -0.6678   -2.2367 C   0  0  0  0  0  0  0  0  0  0  0  0
    2.9695    0.1998   -2.8955 H   0  0  0  0  0  0  0  0  0  0  0  0
    4.0850   -0.8112   -1.9484 H   0  0  0  0  0  0  0  0  0  0  0  0
    2.6959   -1.5471   -2.7832 H   0  0  0  0  0  0  0  0  0  0  0  0
  5  6  2  0  0  0  0
  5  7  1  0  0  0  0
  2  3  1  0  0  0  0
  2  4  1  0  0  0  0
  2  5  1  0  0  0  0
  1  2  1  0  0  0  0
 19 20  2  0  0  0  0
 19 21  1  0  0  0  0
 17 18  1  0  0  0  0
 13 14  1  0  0  0  0
 13 15  1  0  0  0  0
 13 16  1  0  0  0  0
 11 12  1  0  0  0  0
 11 13  1  0  0  0  0
 11 17  1  0  0  0  0
  9 10  1  0  0  0  0
  9 11  1  0  0  0  0
  9 19  1  0  0  0  0
  7  8  1  0  0  0  0
  7  9  1  0  0  0  0
 23 24  1  0  0  0  0
 23 25  1  0  0  0  0
 23 26  1  0  0  0  0
 21 22  1  0  0  0  0
 21 23  1  0  0  0  0
M  END
$$$$
default_name
  -OEChem-01062215323D

 26 25  0     1  0  0  0  0  0999 V2000
   -2.8882   -3.2497    1.2537 H   0  0  0  0  0  0  0  0  0  0  0  0
   -2.8032   -2.3157    0.7017 C   0  0  0  0  0  0  0  0  0  0  0  0
   -3.5012   -1.5857    1.1067 H   0  0  0  0  0  0  0  0  0  0  0  0
   -3.0182   -2.4907   -0.3513 H   0  0  0  0  0  0  0  0  0  0  0  0
   -1.3942   -1.7897    0.8407 C   0  0  0  0  0  0  0  0  0  0  0  0
   -0.5672   -2.4077    1.5007 O   0  0  0  0  0  0  0  0  0  0  0  0
   -1.1222   -0.6447    0.2217 N   0  0  0  0  0  0  0  0  0  0  0  0
   -1.8592   -0.1777   -0.2863 H   0  0  0  0  0  0  0  0  0  0  0  0
    0.1838    0.0363    0.2367 C   0  0  1  0  0  0  0  0  0  0  0  0
    0.0188    1.1041    0.3762 H   0  0  0  0  0  0  0  0  0  0  0  0
    1.0755   -0.4590    1.3939 C   0  0  1  0  0  0  0  0  0  0  0  0
    2.0227    0.0782    1.3486 H   0  0  0  0  0  0  0  0  0  0  0  0
    0.4788   -0.2322    2.7815 C   0  0  0  0  0  0  0  0  0  0  0  0
   -0.4056   -0.8552    2.9213 H   0  0  0  0  0  0  0  0  0  0  0  0
    1.2149   -0.4794    3.5455 H   0  0  0  0  0  0  0  0  0  0  0  0
    0.1948    0.8147    2.8917 H   0  0  0  0  0  0  0  0  0  0  0  0
    1.3398   -1.8349    1.2742 O   0  0  0  0  0  0  0  0  0  0  0  0
    1.8117   -2.1166    2.0607 H   0  0  0  0  0  0  0  0  0  0  0  0
    0.9090   -0.1429   -1.1027 C   0  0  0  0  0  0  0  0  0  0  0  0
    0.4208    0.2838   -2.1491 O   0  0  0  0  0  0  0  0  0  0  0  0
    2.1014   -0.7543   -1.0730 N   0  0  0  0  0  0  0  0  0  0  0  0
    2.4564   -1.0633   -0.1830 H   0  0  0  0  0  0  0  0  0  0  0  0
    2.9196   -1.0018   -2.2591 C   0  0  0  0  0  0  0  0  0  0  0  0
    3.0712   -0.0682   -2.8045 H   0  0  0  0  0  0  0  0  0  0  0  0
    3.8886   -1.4121   -1.9743 H   0  0  0  0  0  0  0  0  0  0  0  0
    2.4083   -1.7073   -2.9175 H   0  0  0  0  0  0  0  0  0  0  0  0
  5  6  2  0  0  0  0
  5  7  1  0  0  0  0
  2  3  1  0  0  0  0
  2  4  1  0  0  0  0
  2  5  1  0  0  0  0
  1  2  1  0  0  0  0
 19 20  2  0  0  0  0
 19 21  1  0  0  0  0
 17 18  1  0  0  0  0
 13 14  1  0  0  0  0
 13 15  1  0  0  0  0
 13 16  1  0  0  0  0
 11 12  1  0  0  0  0
 11 13  1  0  0  0  0
 11 17  1  0  0  0  0
  9 10  1  0  0  0  0
  9 11  1  0  0  0  0
  9 19  1  0  0  0  0
  7  8  1  0  0  0  0
  7  9  1  0  0  0  0
 23 24  1  0  0  0  0
 23 25  1  0  0  0  0
 23 26  1  0  0  0  0
 21 22  1  0  0  0  0
 21 23  1  0  0  0  0
M  END
$$$$
default_name
  -OEChem-01062215323D

 26 25  0     1  0  0  0  0  0999 V2000
   -2.8882   -3.2497    1.2537 H   0  0  0  0  0  0  0  0  0  0  0  0
   -2.8032   -2.3157    0.7017 C   0  0  0  0  0  0  0  0  0  0  0  0
   -3.5012   -1.5857    1.1067 H   0  0  0  0  0  0  0  0  0  0  0  0
   -3.0182   -2.4907   -0.3513 H   0  0  0  0  0  0  0  0  0  0  0  0
   -1.3942   -1.7897    0.8407 C   0  0  0  0  0  0  0  0  0  0  0  0
   -0.5672   -2.4077    1.5007 O   0  0  0  0  0  0  0  0  0  0  0  0
   -1.1222   -0.6447    0.2217 N   0  0  0  0  0  0  0  0  0  0  0  0
   -1.8592   -0.1777   -0.2863 H   0  0  0  0  0  0  0  0  0  0  0  0
    0.1838    0.0363    0.2367 C   0  0  1  0  0  0  0  0  0  0  0  0
    0.0188    1.1041    0.3762 H   0  0  0  0  0  0  0  0  0  0  0  0
    1.0755   -0.4590    1.3939 C   0  0  1  0  0  0  0  0  0  0  0  0
    2.0227    0.0782    1.3486 H   0  0  0  0  0  0  0  0  0  0  0  0
    0.4788   -0.2322    2.7815 C   0  0  0  0  0  0  0  0  0  0  0  0
   -0.4056   -0.8552    2.9213 H   0  0  0  0  0  0  0  0  0  0  0  0
    1.2149   -0.4794    3.5455 H   0  0  0  0  0  0  0  0  0  0  0  0
    0.1948    0.8147    2.8917 H   0  0  0  0  0  0  0  0  0  0  0  0
    1.3398   -1.8349    1.2742 O   0  0  0  0  0  0  0  0  0  0  0  0
    1.8117   -2.1166    2.0607 H   0  0  0  0  0  0  0  0  0  0  0  0
    0.9090   -0.1429   -1.1027 C   0  0  0  0  0  0  0  0  0  0  0  0
    0.5758    0.5051   -2.0949 O   0  0  0  0  0  0  0  0  0  0  0  0
    1.9314   -1.0091   -1.1309 N   0  0  0  0  0  0  0  0  0  0  0  0
    2.1684   -1.4944   -0.2813 H   0  0  0  0  0  0  0  0  0  0  0  0
    2.7251   -1.2937   -2.3253 C   0  0  0  0  0  0  0  0  0  0  0  0
    3.1061   -0.3612   -2.7464 H   0  0  0  0  0  0  0  0  0  0  0  0
    3.5639   -1.9449   -2.0789 H   0  0  0  0  0  0  0  0  0  0  0  0
    2.0984   -1.7807   -3.0755 H   0  0  0  0  0  0  0  0  0  0  0  0
  5  6  2  0  0  0  0
  5  7  1  0  0  0  0
  2  3  1  0  0  0  0
  2  4  1  0  0  0  0
  2  5  1  0  0  0  0
  1  2  1  0  0  0  0
 19 20  2  0  0  0  0
 19 21  1  0  0  0  0
 17 18  1  0  0  0  0
 13 14  1  0  0  0  0
 13 15  1  0  0  0  0
 13 16  1  0  0  0  0
 11 12  1  0  0  0  0
 11 13  1  0  0  0  0
 11 17  1  0  0  0  0
  9 10  1  0  0  0  0
  9 11  1  0  0  0  0
  9 19  1  0  0  0  0
  7  8  1  0  0  0  0
  7  9  1  0  0  0  0
 23 24  1  0  0  0  0
 23 25  1  0  0  0  0
 23 26  1  0  0  0  0
 21 22  1  0  0  0  0
 21 23  1  0  0  0  0
M  END
$$$$
default_name
  -OEChem-01062215323D

 26 25  0     1  0  0  0  0  0999 V2000
   -2.8882   -3.2497    1.2537 H   0  0  0  0  0  0  0  0  0  0  0  0
   -2.8032   -2.3157    0.7017 C   0  0  0  0  0  0  0  0  0  0  0  0
   -3.5012   -1.5857    1.1067 H   0  0  0  0  0  0  0  0  0  0  0  0
   -3.0182   -2.4907   -0.3513 H   0  0  0  0  0  0  0  0  0  0  0  0
   -1.3942   -1.7897    0.8407 C   0  0  0  0  0  0  0  0  0  0  0  0
   -0.5672   -2.4077    1.5007 O   0  0  0  0  0  0  0  0  0  0  0  0
   -1.1222   -0.6447    0.2217 N   0  0  0  0  0  0  0  0  0  0  0  0
   -1.8592   -0.1777   -0.2863 H   0  0  0  0  0  0  0  0  0  0  0  0
    0.1838    0.0363    0.2367 C   0  0  1  0  0  0  0  0  0  0  0  0
    0.0188    1.1041    0.3762 H   0  0  0  0  0  0  0  0  0  0  0  0
    1.0755   -0.4590    1.3939 C   0  0  1  0  0  0  0  0  0  0  0  0
    2.0227    0.0782    1.3486 H   0  0  0  0  0  0  0  0  0  0  0  0
    0.4788   -0.2322    2.7815 C   0  0  0  0  0  0  0  0  0  0  0  0
   -0.4056   -0.8552    2.9213 H   0  0  0  0  0  0  0  0  0  0  0  0
    1.2149   -0.4794    3.5455 H   0  0  0  0  0  0  0  0  0  0  0  0
    0.1948    0.8147    2.8917 H   0  0  0  0  0  0  0  0  0  0  0  0
    1.3398   -1.8349    1.2742 O   0  0  0  0  0  0  0  0  0  0  0  0
    1.8117   -2.1166    2.0607 H   0  0  0  0  0  0  0  0  0  0  0  0
    0.9090   -0.1429   -1.1027 C   0  0  0  0  0  0  0  0  0  0  0  0
    0.7738    0.6773   -2.0107 O   0  0  0  0  0  0  0  0  0  0  0  0
    1.7115   -1.2097   -1.2231 N   0  0  0  0  0  0  0  0  0  0  0  0
    1.7957   -1.8337   -0.4377 H   0  0  0  0  0  0  0  0  0  0  0  0
    2.4732   -1.5236   -2.4310 C   0  0  0  0  0  0  0  0  0  0  0  0
    3.0719   -0.6592   -2.7251 H   0  0  0  0  0  0  0  0  0  0  0  0
    3.1329   -2.3734   -2.2548 H   0  0  0  0  0  0  0  0  0  0  0  0
    1.7872   -1.7622   -3.2465 H   0  0  0  0  0  0  0  0  0  0  0  0
  5  6  2  0  0  0  0
  5  7  1  0  0  0  0
  2  3  1  0  0  0  0
  2  4  1  0  0  0  0
  2  5  1  0  0  0  0
  1  2  1  0  0  0  0
 19 20  2  0  0  0  0
 19 21  1  0  0  0  0
 17 18  1  0  0  0  0
 13 14  1  0  0  0  0
 13 15  1  0  0  0  0
 13 16  1  0  0  0  0
 11 12  1  0  0  0  0
 11 13  1  0  0  0  0
 11 17  1  0  0  0  0
  9 10  1  0  0  0  0
  9 11  1  0  0  0  0
  9 19  1  0  0  0  0
  7  8  1  0  0  0  0
  7  9  1  0  0  0  0
 23 24  1  0  0  0  0
 23 25  1  0  0  0  0
 23 26  1  0  0  0  0
 21 22  1  0  0  0  0
 21 23  1  0  0  0  0
M  END
$$$$
default_name
  -OEChem-01062215323D

 26 25  0     1  0  0  0  0  0999 V2000
   -2.8882   -3.2497    1.2537 H   0  0  0  0  0  0  0  0  0  0  0  0
   -2.8032   -2.3157    0.7017 C   0  0  0  0  0  0  0  0  0  0  0  0
   -3.5012   -1.5857    1.1067 H   0  0  0  0  0  0  0  0  0  0  0  0
   -3.0182   -2.4907   -0.3513 H   0  0  0  0  0  0  0  0  0  0  0  0
   -1.3942   -1.7897    0.8407 C   0  0  0  0  0  0  0  0  0  0  0  0
   -0.5672   -2.4077    1.5007 O   0  0  0  0  0  0  0  0  0  0  0  0
   -1.1222   -0.6447    0.2217 N   0  0  0  0  0  0  0  0  0  0  0  0
   -1.8592   -0.1777   -0.2863 H   0  0  0  0  0  0  0  0  0  0  0  0
    0.1838    0.0363    0.2367 C   0  0  1  0  0  0  0  0  0  0  0  0
    0.0188    1.1041    0.3762 H   0  0  0  0  0  0  0  0  0  0  0  0
    1.0755   -0.4590    1.3939 C   0  0  1  0  0  0  0  0  0  0  0  0
    2.0227    0.0782    1.3486 H   0  0  0  0  0  0  0  0  0  0  0  0
    0.4788   -0.2322    2.7815 C   0  0  0  0  0  0  0  0  0  0  0  0
   -0.4056   -0.8552    2.9213 H   0  0  0  0  0  0  0  0  0  0  0  0
    1.2149   -0.4794    3.5455 H   0  0  0  0  0  0  0  0  0  0  0  0
    0.1948    0.8147    2.8917 H   0  0  0  0  0  0  0  0  0  0  0  0
    1.3398   -1.8349    1.2742 O   0  0  0  0  0  0  0  0  0  0  0  0
    1.8117   -2.1166    2.0607 H   0  0  0  0  0  0  0  0  0  0  0  0
    0.9090   -0.1429   -1.1027 C   0  0  0  0  0  0  0  0  0  0  0  0
    1.0014    0.7885   -1.9023 O   0  0  0  0  0  0  0  0  0  0  0  0
    1.4564   -1.3424   -1.3434 N   0  0  0  0  0  0  0  0  0  0  0  0
    1.3637   -2.0581   -0.6415 H   0  0  0  0  0  0  0  0  0  0  0  0
    2.1811   -1.6758   -2.5687 C   0  0  0  0  0  0  0  0  0  0  0  0
    2.9708   -0.9420   -2.7420 H   0  0  0  0  0  0  0  0  0  0  0  0
    2.6251   -2.6684   -2.4903 H   0  0  0  0  0  0  0  0  0  0  0  0
    1.4959   -1.6531   -3.4187 H   0  0  0  0  0  0  0  0  0  0  0  0
  5  6  2  0  0  0  0
  5  7  1  0  0  0  0
  2  3  1  0  0  0  0
  2  4  1  0  0  0  0
  2  5  1  0  0  0  0
  1  2  1  0  0  0  0
 19 20  2  0  0  0  0
 19 21  1  0  0  0  0
 17 18  1  0  0  0  0
 13 14  1  0  0  0  0
 13 15  1  0  0  0  0
 13 16  1  0  0  0  0
 11 12  1  0  0  0  0
 11 13  1  0  0  0  0
 11 17  1  0  0  0  0
  9 10  1  0  0  0  0
  9 11  1  0  0  0  0
  9 19  1  0  0  0  0
  7  8  1  0  0  0  0
  7  9  1  0  0  0  0
 23 24  1  0  0  0  0
 23 25  1  0  0  0  0
 23 26  1  0  0  0  0
 21 22  1  0  0  0  0
 21 23  1  0  0  0  0
M  END
$$$$
default_name
  -OEChem-01062215323D

 26 25  0     1  0  0  0  0  0999 V2000
   -2.8882   -3.2497    1.2537 H   0  0  0  0  0  0  0  0  0  0  0  0
   -2.8032   -2.3157    0.7017 C   0  0  0  0  0  0  0  0  0  0  0  0
   -3.5012   -1.5857    1.1067 H   0  0  0  0  0  0  0  0  0  0  0  0
   -3.0182   -2.4907   -0.3513 H   0  0  0  0  0  0  0  0  0  0  0  0
   -1.3942   -1.7897    0.8407 C   0  0  0  0  0  0  0  0  0  0  0  0
   -0.5672   -2.4077    1.5007 O   0  0  0  0  0  0  0  0  0  0  0  0
   -1.1222   -0.6447    0.2217 N   0  0  0  0  0  0  0  0  0  0  0  0
   -1.8592   -0.1777   -0.2863 H   0  0  0  0  0  0  0  0  0  0  0  0
    0.1838    0.0363    0.2367 C   0  0  1  0  0  0  0  0  0  0  0  0
    0.0188    1.1041    0.3762 H   0  0  0  0  0  0  0  0  0  0  0  0
    1.0755   -0.4590    1.3939 C   0  0  1  0  0  0  0  0  0  0  0  0
    2.0227    0.0782    1.3486 H   0  0  0  0  0  0  0  0  0  0  0  0
    0.4788   -0.2322    2.7815 C   0  0  0  0  0  0  0  0  0  0  0  0
   -0.4056   -0.8552    2.9213 H   0  0  0  0  0  0  0  0  0  0  0  0
    1.2149   -0.4794    3.5455 H   0  0  0  0  0  0  0  0  0  0  0  0
    0.1948    0.8147    2.8917 H   0  0  0  0  0  0  0  0  0  0  0  0
    1.3398   -1.8349    1.2742 O   0  0  0  0  0  0  0  0  0  0  0  0
    1.8117   -2.1166    2.0607 H   0  0  0  0  0  0  0  0  0  0  0  0
    0.9090   -0.1429   -1.1027 C   0  0  0  0  0  0  0  0  0  0  0  0
    1.2432    0.8312   -1.7771 O   0  0  0  0  0  0  0  0  0  0  0  0
    1.1837   -1.3982   -1.4836 N   0  0  0  0  0  0  0  0  0  0  0  0
    0.9019   -2.1522   -0.8789 H   0  0  0  0  0  0  0  0  0  0  0  0
    1.8688   -1.7400   -2.7292 C   0  0  0  0  0  0  0  0  0  0  0  0
    2.8097   -1.1901   -2.7960 H   0  0  0  0  0  0  0  0  0  0  0  0
    2.0750   -2.8097   -2.7692 H   0  0  0  0  0  0  0  0  0  0  0  0
    1.2444   -1.4607   -3.5806 H   0  0  0  0  0  0  0  0  0  0  0  0
  5  6  2  0  0  0  0
  5  7  1  0  0  0  0
  2  3  1  0  0  0  0
  2  4  1  0  0  0  0
  2  5  1  0  0  0  0
  1  2  1  0  0  0  0
 19 20  2  0  0  0  0
 19 21  1  0  0  0  0
 17 18  1  0  0  0  0
 13 14  1  0  0  0  0
 13 15  1  0  0  0  0
 13 16  1  0  0  0  0
 11 12  1  0  0  0  0
 11 13  1  0  0  0  0
 11 17  1  0  0  0  0
  9 10  1  0  0  0  0
  9 11  1  0  0  0  0
  9 19  1  0  0  0  0
  7  8  1  0  0  0  0
  7  9  1  0  0  0  0
 23 24  1  0  0  0  0
 23 25  1  0  0  0  0
 23 26  1  0  0  0  0
 21 22  1  0  0  0  0
 21 23  1  0  0  0  0
M  END
$$$$
default_name
  -OEChem-01062215323D

 26 25  0     1  0  0  0  0  0999 V2000
   -2.8882   -3.2497    1.2537 H   0  0  0  0  0  0  0  0  0  0  0  0
   -2.8032   -2.3157    0.7017 C   0  0  0  0  0  0  0  0  0  0  0  0
   -3.5012   -1.5857    1.1067 H   0  0  0  0  0  0  0  0  0  0  0  0
   -3.0182   -2.4907   -0.3513 H   0  0  0  0  0  0  0  0  0  0  0  0
   -1.3942   -1.7897    0.8407 C   0  0  0  0  0  0  0  0  0  0  0  0
   -0.5672   -2.4077    1.5007 O   0  0  0  0  0  0  0  0  0  0  0  0
   -1.1222   -0.6447    0.2217 N   0  0  0  0  0  0  0  0  0  0  0  0
   -1.8592   -0.1777   -0.2863 H   0  0  0  0  0  0  0  0  0  0  0  0
    0.1838    0.0363    0.2367 C   0  0  1  0  0  0  0  0  0  0  0  0
    0.0188    1.1041    0.3762 H   0  0  0  0  0  0  0  0  0  0  0  0
    1.0755   -0.4590    1.3939 C   0  0  1  0  0  0  0  0  0  0  0  0
    2.0227    0.0782    1.3486 H   0  0  0  0  0  0  0  0  0  0  0  0
    0.4788   -0.2322    2.7815 C   0  0  0  0  0  0  0  0  0  0  0  0
   -0.4056   -0.8552    2.9213 H   0  0  0  0  0  0  0  0  0  0  0  0
    1.2149   -0.4794    3.5455 H   0  0  0  0  0  0  0  0  0  0  0  0
    0.1948    0.8147    2.8917 H   0  0  0  0  0  0  0  0  0  0  0  0
    1.3398   -1.8349    1.2742 O   0  0  0  0  0  0  0  0  0  0  0  0
    1.8117   -2.1166    2.0607 H   0  0  0  0  0  0  0  0  0  0  0  0
    0.9090   -0.1429   -1.1027 C   0  0  0  0  0  0  0  0  0  0  0  0
    1.4826    0.8024   -1.6437 O   0  0  0  0  0  0  0  0  0  0  0  0
    0.9119   -1.3734   -1.6341 N   0  0  0  0  0  0  0  0  0  0  0  0
    0.4418   -2.1097   -1.1338 H   0  0  0  0  0  0  0  0  0  0  0  0
    1.5575   -1.7117   -2.9016 C   0  0  0  0  0  0  0  0  0  0  0  0
    2.5997   -1.3868   -2.8834 H   0  0  0  0  0  0  0  0  0  0  0  0
    1.5202   -2.7877   -3.0725 H   0  0  0  0  0  0  0  0  0  0  0  0
    1.0499   -1.1983   -3.7210 H   0  0  0  0  0  0  0  0  0  0  0  0
  5  6  2  0  0  0  0
  5  7  1  0  0  0  0
  2  3  1  0  0  0  0
  2  4  1  0  0  0  0
  2  5  1  0  0  0  0
  1  2  1  0  0  0  0
 19 20  2  0  0  0  0
 19 21  1  0  0  0  0
 17 18  1  0  0  0  0
 13 14  1  0  0  0  0
 13 15  1  0  0  0  0
 13 16  1  0  0  0  0
 11 12  1  0  0  0  0
 11 13  1  0  0  0  0
 11 17  1  0  0  0  0
  9 10  1  0  0  0  0
  9 11  1  0  0  0  0
  9 19  1  0  0  0  0
  7  8  1  0  0  0  0
  7  9  1  0  0  0  0
 23 24  1  0  0  0  0
 23 25  1  0  0  0  0
 23 26  1  0  0  0  0
 21 22  1  0  0  0  0
 21 23  1  0  0  0  0
M  END
$$$$
default_name
  -OEChem-01062215323D

 26 25  0     1  0  0  0  0  0999 V2000
   -2.8882   -3.2497    1.2537 H   0  0  0  0  0  0  0  0  0  0  0  0
   -2.8032   -2.3157    0.7017 C   0  0  0  0  0  0  0  0  0  0  0  0
   -3.5012   -1.5857    1.1067 H   0  0  0  0  0  0  0  0  0  0  0  0
   -3.0182   -2.4907   -0.3513 H   0  0  0  0  0  0  0  0  0  0  0  0
   -1.3942   -1.7897    0.8407 C   0  0  0  0  0  0  0  0  0  0  0  0
   -0.5672   -2.4077    1.5007 O   0  0  0  0  0  0  0  0  0  0  0  0
   -1.1222   -0.6447    0.2217 N   0  0  0  0  0  0  0  0  0  0  0  0
   -1.8592   -0.1777   -0.2863 H   0  0  0  0  0  0  0  0  0  0  0  0
    0.1838    0.0363    0.2367 C   0  0  1  0  0  0  0  0  0  0  0  0
    0.0188    1.1041    0.3762 H   0  0  0  0  0  0  0  0  0  0  0  0
    1.0755   -0.4590    1.3939 C   0  0  1  0  0  0  0  0  0  0  0  0
    2.0227    0.0782    1.3486 H   0  0  0  0  0  0  0  0  0  0  0  0
    0.4788   -0.2322    2.7815 C   0  0  0  0  0  0  0  0  0  0  0  0
   -0.4056   -0.8552    2.9213 H   0  0  0  0  0  0  0  0  0  0  0  0
    1.2149   -0.4794    3.5455 H   0  0  0  0  0  0  0  0  0  0  0  0
    0.1948    0.8147    2.8917 H   0  0  0  0  0  0  0  0  0  0  0  0
    1.3398   -1.8349    1.2742 O   0  0  0  0  0  0  0  0  0  0  0  0
    1.8117   -2.1166    2.0607 H   0  0  0  0  0  0  0  0  0  0  0  0
    0.9090   -0.1429   -1.1027 C   0  0  0  0  0  0  0  0  0  0  0  0
    1.7032    0.7042   -1.5111 O   0  0  0  0  0  0  0  0  0  0  0  0
    0.6595   -1.2695   -1.7846 N   0  0  0  0  0  0  0  0  0  0  0  0
    0.0146   -1.9334   -1.3886 H   0  0  0  0  0  0  0  0  0  0  0  0
    1.2683   -1.5929   -3.0740 C   0  0  0  0  0  0  0  0  0  0  0  0
    2.3550   -1.5187   -2.9983 H   0  0  0  0  0  0  0  0  0  0  0  0
    0.9985   -2.6039   -3.3796 H   0  0  0  0  0  0  0  0  0  0  0  0
    0.9256   -0.8836   -3.8304 H   0  0  0  0  0  0  0  0  0  0  0  0
  5  6  2  0  0  0  0
  5  7  1  0  0  0  0
  2  3  1  0  0  0  0
  2  4  1  0  0  0  0
  2  5  1  0  0  0  0
  1  2  1  0  0  0  0
 19 20  2  0  0  0  0
 19 21  1  0  0  0  0
 17 18  1  0  0  0  0
 13 14  1  0  0  0  0
 13 15  1  0  0  0  0
 13 16  1  0  0  0  0
 11 12  1  0  0  0  0
 11 13  1  0  0  0  0
 11 17  1  0  0  0  0
  9 10  1  0  0  0  0
  9 11  1  0  0  0  0
  9 19  1  0  0  0  0
  7  8  1  0  0  0  0
  7  9  1  0  0  0  0
 23 24  1  0  0  0  0
 23 25  1  0  0  0  0
 23 26  1  0  0  0  0
 21 22  1  0  0  0  0
 21 23  1  0  0  0  0
M  END
$$$$
default_name
  -OEChem-01062215323D

 26 25  0     1  0  0  0  0  0999 V2000
   -2.8882   -3.2497    1.2537 H   0  0  0  0  0  0  0  0  0  0  0  0
   -2.8032   -2.3157    0.7017 C   0  0  0  0  0  0  0  0  0  0  0  0
   -3.5012   -1.5857    1.1067 H   0  0  0  0  0  0  0  0  0  0  0  0
   -3.0182   -2.4907   -0.3513 H   0  0  0  0  0  0  0  0  0  0  0  0
   -1.3942   -1.7897    0.8407 C   0  0  0  0  0  0  0  0  0  0  0  0
   -0.5672   -2.4077    1.5007 O   0  0  0  0  0  0  0  0  0  0  0  0
   -1.1222   -0.6447    0.2217 N   0  0  0  0  0  0  0  0  0  0  0  0
   -1.8592   -0.1777   -0.2863 H   0  0  0  0  0  0  0  0  0  0  0  0
    0.1838    0.0363    0.2367 C   0  0  1  0  0  0  0  0  0  0  0  0
    0.0188    1.1041    0.3762 H   0  0  0  0  0  0  0  0  0  0  0  0
    1.0755   -0.4590    1.3939 C   0  0  1  0  0  0  0  0  0  0  0  0
    2.0227    0.0782    1.3486 H   0  0  0  0  0  0  0  0  0  0  0  0
    0.4788   -0.2322    2.7815 C   0  0  0  0  0  0  0  0  0  0  0  0
   -0.4056   -0.8552    2.9213 H   0  0  0  0  0  0  0  0  0  0  0  0
    1.2149   -0.4794    3.5455 H   0  0  0  0  0  0  0  0  0  0  0  0
    0.1948    0.8147    2.8917 H   0  0  0  0  0  0  0  0  0  0  0  0
    1.3398   -1.8349    1.2742 O   0  0  0  0  0  0  0  0  0  0  0  0
    1.8117   -2.1166    2.0607 H   0  0  0  0  0  0  0  0  0  0  0  0
    0.9090   -0.1429   -1.1027 C   0  0  0  0  0  0  0  0  0  0  0  0
    1.8902    0.5433   -1.3883 O   0  0  0  0  0  0  0  0  0  0  0  0
    0.4438   -1.0937   -1.9249 N   0  0  0  0  0  0  0  0  0  0  0  0
   -0.3504   -1.6354   -1.6261 H   0  0  0  0  0  0  0  0  0  0  0  0
    1.0211   -1.3917   -3.2347 C   0  0  0  0  0  0  0  0  0  0  0  0
    2.0923   -1.5766   -3.1327 H   0  0  0  0  0  0  0  0  0  0  0  0
    0.5453   -2.2709   -3.6695 H   0  0  0  0  0  0  0  0  0  0  0  0
    0.8800   -0.5382   -3.9013 H   0  0  0  0  0  0  0  0  0  0  0  0
  5  6  2  0  0  0  0
  5  7  1  0  0  0  0
  2  3  1  0  0  0  0
  2  4  1  0  0  0  0
  2  5  1  0  0  0  0
  1  2  1  0  0  0  0
 19 20  2  0  0  0  0
 19 21  1  0  0  0  0
 17 18  1  0  0  0  0
 13 14  1  0  0  0  0
 13 15  1  0  0  0  0
 13 16  1  0  0  0  0
 11 12  1  0  0  0  0
 11 13  1  0  0  0  0
 11 17  1  0  0  0  0
  9 10  1  0  0  0  0
  9 11  1  0  0  0  0
  9 19  1  0  0  0  0
  7  8  1  0  0  0  0
  7  9  1  0  0  0  0
 23 24  1  0  0  0  0
 23 25  1  0  0  0  0
 23 26  1  0  0  0  0
 21 22  1  0  0  0  0
 21 23  1  0  0  0  0
M  END
$$$$
default_name
  -OEChem-01062215323D

 26 25  0     1  0  0  0  0  0999 V2000
   -2.8882   -3.2497    1.2537 H   0  0  0  0  0  0  0  0  0  0  0  0
   -2.8032   -2.3157    0.7017 C   0  0  0  0  0  0  0  0  0  0  0  0
   -3.5012   -1.5857    1.1067 H   0  0  0  0  0  0  0  0  0  0  0  0
   -3.0182   -2.4907   -0.3513 H   0  0  0  0  0  0  0  0  0  0  0  0
   -1.3942   -1.7897    0.8407 C   0  0  0  0  0  0  0  0  0  0  0  0
   -0.5672   -2.4077    1.5007 O   0  0  0  0  0  0  0  0  0  0  0  0
   -1.1222   -0.6447    0.2217 N   0  0  0  0  0  0  0  0  0  0  0  0
   -1.8592   -0.1777   -0.2863 H   0  0  0  0  0  0  0  0  0  0  0  0
    0.1838    0.0363    0.2367 C   0  0  1  0  0  0  0  0  0  0  0  0
    0.0188    1.1041    0.3762 H   0  0  0  0  0  0  0  0  0  0  0  0
    1.0755   -0.4590    1.3939 C   0  0  1  0  0  0  0  0  0  0  0  0
    2.0227    0.0782    1.3486 H   0  0  0  0  0  0  0  0  0  0  0  0
    0.4788   -0.2322    2.7815 C   0  0  0  0  0  0  0  0  0  0  0  0
   -0.4056   -0.8552    2.9213 H   0  0  0  0  0  0  0  0  0  0  0  0
    1.2149   -0.4794    3.5455 H   0  0  0  0  0  0  0  0  0  0  0  0
    0.1948    0.8147    2.8917 H   0  0  0  0  0  0  0  0  0  0  0  0
    1.3398   -1.8349    1.2742 O   0  0  0  0  0  0  0  0  0  0  0  0
    1.8117   -2.1166    2.0607 H   0  0  0  0  0  0  0  0  0  0  0  0
    0.9090   -0.1429   -1.1027 C   0  0  0  0  0  0  0  0  0  0  0  0
    2.0307    0.3305   -1.2838 O   0  0  0  0  0  0  0  0  0  0  0  0
    0.2794   -0.8580   -2.0455 N   0  0  0  0  0  0  0  0  0  0  0  0
   -0.6285   -1.2359   -1.8300 H   0  0  0  0  0  0  0  0  0  0  0  0
    0.8327   -1.1218   -3.3728 C   0  0  0  0  0  0  0  0  0  0  0  0
    1.8295   -1.5568   -3.2776 H   0  0  0  0  0  0  0  0  0  0  0  0
    0.1916   -1.8113   -3.9224 H   0  0  0  0  0  0  0  0  0  0  0  0
    0.9161   -0.1856   -3.9289 H   0  0  0  0  0  0  0  0  0  0  0  0
  5  6  2  0  0  0  0
  5  7  1  0  0  0  0
  2  3  1  0  0  0  0
  2  4  1  0  0  0  0
  2  5  1  0  0  0  0
  1  2  1  0  0  0  0
 19 20  2  0  0  0  0
 19 21  1  0  0  0  0
 17 18  1  0  0  0  0
 13 14  1  0  0  0  0
 13 15  1  0  0  0  0
 13 16  1  0  0  0  0
 11 12  1  0  0  0  0
 11 13  1  0  0  0  0
 11 17  1  0  0  0  0
  9 10  1  0  0  0  0
  9 11  1  0  0  0  0
  9 19  1  0  0  0  0
  7  8  1  0  0  0  0
  7  9  1  0  0  0  0
 23 24  1  0  0  0  0
 23 25  1  0  0  0  0
 23 26  1  0  0  0  0
 21 22  1  0  0  0  0
 21 23  1  0  0  0  0
M  END
$$$$
default_name
  -OEChem-01062215323D

 26 25  0     1  0  0  0  0  0999 V2000
   -2.8882   -3.2497    1.2537 H   0  0  0  0  0  0  0  0  0  0  0  0
   -2.8032   -2.3157    0.7017 C   0  0  0  0  0  0  0  0  0  0  0  0
   -3.5012   -1.5857    1.1067 H   0  0  0  0  0  0  0  0  0  0  0  0
   -3.0182   -2.4907   -0.3513 H   0  0  0  0  0  0  0  0  0  0  0  0
   -1.3942   -1.7897    0.8407 C   0  0  0  0  0  0  0  0  0  0  0  0
   -0.5672   -2.4077    1.5007 O   0  0  0  0  0  0  0  0  0  0  0  0
   -1.1222   -0.6447    0.2217 N   0  0  0  0  0  0  0  0  0  0  0  0
   -1.8592   -0.1777   -0.2863 H   0  0  0  0  0  0  0  0  0  0  0  0
    0.1838    0.0363    0.2367 C   0  0  1  0  0  0  0  0  0  0  0  0
    0.0188    1.1041    0.3762 H   0  0  0  0  0  0  0  0  0  0  0  0
    1.0755   -0.4590    1.3939 C   0  0  1  0  0  0  0  0  0  0  0  0
    2.0227    0.0782    1.3486 H   0  0  0  0  0  0  0  0  0  0  0  0
    0.4788   -0.2322    2.7815 C   0  0  0  0  0  0  0  0  0  0  0  0
   -0.4056   -0.8552    2.9213 H   0  0  0  0  0  0  0  0  0  0  0  0
    1.2149   -0.4794    3.5455 H   0  0  0  0  0  0  0  0  0  0  0  0
    0.1948    0.8147    2.8917 H   0  0  0  0  0  0  0  0  0  0  0  0
    1.3398   -1.8349    1.2742 O   0  0  0  0  0  0  0  0  0  0  0  0
    1.8117   -2.1166    2.0607 H   0  0  0  0  0  0  0  0  0  0  0  0
    0.9090   -0.1429   -1.1027 C   0  0  0  0  0  0  0  0  0  0  0  0
    2.1152    0.0805   -1.2046 O   0  0  0  0  0  0  0  0  0  0  0  0
    0.1775   -0.5783   -2.1380 N   0  0  0  0  0  0  0  0  0  0  0  0
   -0.8006   -0.7623   -1.9866 H   0  0  0  0  0  0  0  0  0  0  0  0
    0.7158   -0.8016   -3.4789 C   0  0  0  0  0  0  0  0  0  0  0  0
    1.5846   -1.4605   -3.4231 H   0  0  0  0  0  0  0  0  0  0  0  0
   -0.0385   -1.2564   -4.1212 H   0  0  0  0  0  0  0  0  0  0  0  0
    1.0316    0.1503   -3.9113 H   0  0  0  0  0  0  0  0  0  0  0  0
  5  6  2  0  0  0  0
  5  7  1  0  0  0  0
  2  3  1  0  0  0  0
  2  4  1  0  0  0  0
  2  5  1  0  0  0  0
  1  2  1  0  0  0  0
 19 20  2  0  0  0  0
 19 21  1  0  0  0  0
 17 18  1  0  0  0  0
 13 14  1  0  0  0  0
 13 15  1  0  0  0  0
 13 16  1  0  0  0  0
 11 12  1  0  0  0  0
 11 13  1  0  0  0  0
 11 17  1  0  0  0  0
  9 10  1  0  0  0  0
  9 11  1  0  0  0  0
  9 19  1  0  0  0  0
  7  8  1  0  0  0  0
  7  9  1  0  0  0  0
 23 24  1  0  0  0  0
 23 25  1  0  0  0  0
 23 26  1  0  0  0  0
 21 22  1  0  0  0  0
 21 23  1  0  0  0  0
M  END
$$$$
default_name
  -OEChem-01062215323D

 26 25  0     1  0  0  0  0  0999 V2000
   -2.8882   -3.2497    1.2537 H   0  0  0  0  0  0  0  0  0  0  0  0
   -2.8032   -2.3157    0.7017 C   0  0  0  0  0  0  0  0  0  0  0  0
   -3.5012   -1.5857    1.1067 H   0  0  0  0  0  0  0  0  0  0  0  0
   -3.0182   -2.4907   -0.3513 H   0  0  0  0  0  0  0  0  0  0  0  0
   -1.3942   -1.7897    0.8407 C   0  0  0  0  0  0  0  0  0  0  0  0
   -0.5672   -2.4077    1.5007 O   0  0  0  0  0  0  0  0  0  0  0  0
   -1.1222   -0.6447    0.2217 N   0  0  0  0  0  0  0  0  0  0  0  0
   -1.8592   -0.1777   -0.2863 H   0  0  0  0  0  0  0  0  0  0  0  0
    0.1838    0.0363    0.2367 C   0  0  1  0  0  0  0  0  0  0  0  0
    0.0188    1.1041    0.3762 H   0  0  0  0  0  0  0  0  0  0  0  0
    1.0755   -0.4590    1.3939 C   0  0  1  0  0  0  0  0  0  0  0  0
    2.0227    0.0782    1.3486 H   0  0  0  0  0  0  0  0  0  0  0  0
    0.4788   -0.2322    2.7815 C   0  0  0  0  0  0  0  0  0  0  0  0
   -0.4056   -0.8552    2.9213 H   0  0  0  0  0  0  0  0  0  0  0  0
    1.2149   -0.4794    3.5455 H   0  0  0  0  0  0  0  0  0  0  0  0
    0.1948    0.8147    2.8917 H   0  0  0  0  0  0  0  0  0  0  0  0
    1.3398   -1.8349    1.2742 O   0  0  0  0  0  0  0  0  0  0  0  0
    1.8117   -2.1166    2.0607 H   0  0  0  0  0  0  0  0  0  0  0  0
    0.9090   -0.1429   -1.1027 C   0  0  0  0  0  0  0  0  0  0  0  0
    2.1378   -0.1898   -1.1562 O   0  0  0  0  0  0  0  0  0  0  0  0
    0.1451   -0.2739   -2.1963 N   0  0  0  0  0  0  0  0  0  0  0  0
   -0.8551   -0.2467   -2.0850 H   0  0  0  0  0  0  0  0  0  0  0  0
    0.6786   -0.4529   -3.5457 C   0  0  0  0  0  0  0  0  0  0  0  0
    1.3742   -1.2943   -3.5593 H   0  0  0  0  0  0  0  0  0  0  0  0
   -0.1293   -0.6442   -4.2523 H   0  0  0  0  0  0  0  0  0  0  0  0
    1.2185    0.4464   -3.8497 H   0  0  0  0  0  0  0  0  0  0  0  0
  5  6  2  0  0  0  0
  5  7  1  0  0  0  0
  2  3  1  0  0  0  0
  2  4  1  0  0  0  0
  2  5  1  0  0  0  0
  1  2  1  0  0  0  0
 19 20  2  0  0  0  0
 19 21  1  0  0  0  0
 17 18  1  0  0  0  0
 13 14  1  0  0  0  0
 13 15  1  0  0  0  0
 13 16  1  0  0  0  0
 11 12  1  0  0  0  0
 11 13  1  0  0  0  0
 11 17  1  0  0  0  0
  9 10  1  0  0  0  0
  9 11  1  0  0  0  0
  9 19  1  0  0  0  0
  7  8  1  0  0  0  0
  7  9  1  0  0  0  0
 23 24  1  0  0  0  0
 23 25  1  0  0  0  0
 23 26  1  0  0  0  0
 21 22  1  0  0  0  0
 21 23  1  0  0  0  0
M  END
$$$$
default_name
  -OEChem-01062215323D

 26 25  0     1  0  0  0  0  0999 V2000
   -2.8882   -3.2497    1.2537 H   0  0  0  0  0  0  0  0  0  0  0  0
   -2.8032   -2.3157    0.7017 C   0  0  0  0  0  0  0  0  0  0  0  0
   -3.5012   -1.5857    1.1067 H   0  0  0  0  0  0  0  0  0  0  0  0
   -3.0182   -2.4907   -0.3513 H   0  0  0  0  0  0  0  0  0  0  0  0
   -1.3942   -1.7897    0.8407 C   0  0  0  0  0  0  0  0  0  0  0  0
   -0.5672   -2.4077    1.5007 O   0  0  0  0  0  0  0  0  0  0  0  0
   -1.1222   -0.6447    0.2217 N   0  0  0  0  0  0  0  0  0  0  0  0
   -1.8592   -0.1777   -0.2863 H   0  0  0  0  0  0  0  0  0  0  0  0
    0.1838    0.0363    0.2367 C   0  0  1  0  0  0  0  0  0  0  0  0
    0.0188    1.1041    0.3762 H   0  0  0  0  0  0  0  0  0  0  0  0
    1.0755   -0.4590    1.3939 C   0  0  1  0  0  0  0  0  0  0  0  0
    2.0227    0.0782    1.3486 H   0  0  0  0  0  0  0  0  0  0  0  0
    0.4788   -0.2322    2.7815 C   0  0  0  0  0  0  0  0  0  0  0  0
   -0.4056   -0.8552    2.9213 H   0  0  0  0  0  0  0  0  0  0  0  0
    1.2149   -0.4794    3.5455 H   0  0  0  0  0  0  0  0  0  0  0  0
    0.1948    0.8147    2.8917 H   0  0  0  0  0  0  0  0  0  0  0  0
    1.3398   -1.8349    1.2742 O   0  0  0  0  0  0  0  0  0  0  0  0
    1.8117   -2.1166    2.0607 H   0  0  0  0  0  0  0  0  0  0  0  0
    0.9090   -0.1429   -1.1027 C   0  0  0  0  0  0  0  0  0  0  0  0
    2.0972   -0.4620   -1.1418 O   0  0  0  0  0  0  0  0  0  0  0  0
    0.1844    0.0347   -2.2163 N   0  0  0  0  0  0  0  0  0  0  0  0
   -0.7882    0.2757   -2.1187 H   0  0  0  0  0  0  0  0  0  0  0  0
    0.7234   -0.0995   -3.5687 C   0  0  0  0  0  0  0  0  0  0  0  0
    1.2126   -1.0696   -3.6768 H   0  0  0  0  0  0  0  0  0  0  0  0
   -0.0747   -0.0162   -4.3067 H   0  0  0  0  0  0  0  0  0  0  0  0
    1.4641    0.6827   -3.7484 H   0  0  0  0  0  0  0  0  0  0  0  0
  5  6  2  0  0  0  0
  5  7  1  0  0  0  0
  2  3  1  0  0  0  0
  2  4  1  0  0  0  0
  2  5  1  0  0  0  0
  1  2  1  0  0  0  0
 19 20  2  0  0  0  0
 19 21  1  0  0  0  0
 17 18  1  0  0  0  0
 13 14  1  0  0  0  0
 13 15  1  0  0  0  0
 13 16  1  0  0  0  0
 11 12  1  0  0  0  0
 11 13  1  0  0  0  0
 11 17  1  0  0  0  0
  9 10  1  0  0  0  0
  9 11  1  0  0  0  0
  9 19  1  0  0  0  0
  7  8  1  0  0  0  0
  7  9  1  0  0  0  0
 23 24  1  0  0  0  0
 23 25  1  0  0  0  0
 23 26  1  0  0  0  0
 21 22  1  0  0  0  0
 21 23  1  0  0  0  0
M  END
$$$$
default_name
  -OEChem-01062215323D

 26 25  0     1  0  0  0  0  0999 V2000
   -2.8882   -3.2497    1.2537 H   0  0  0  0  0  0  0  0  0  0  0  0
   -2.8032   -2.3157    0.7017 C   0  0  0  0  0  0  0  0  0  0  0  0
   -3.5012   -1.5857    1.1067 H   0  0  0  0  0  0  0  0  0  0  0  0
   -3.0182   -2.4907   -0.3513 H   0  0  0  0  0  0  0  0  0  0  0  0
   -1.3942   -1.7897    0.8407 C   0  0  0  0  0  0  0  0  0  0  0  0
   -0.5672   -2.4077    1.5007 O   0  0  0  0  0  0  0  0  0  0  0  0
   -1.1222   -0.6447    0.2217 N   0  0  0  0  0  0  0  0  0  0  0  0
   -1.8592   -0.1777   -0.2863 H   0  0  0  0  0  0  0  0  0  0  0  0
    0.1838    0.0363    0.2367 C   0  0  1  0  0  0  0  0  0  0  0  0
    0.0188    1.1041    0.3762 H   0  0  0  0  0  0  0  0  0  0  0  0
    1.0755   -0.4590    1.3939 C   0  0  1  0  0  0  0  0  0  0  0  0
    2.0227    0.0782    1.3486 H   0  0  0  0  0  0  0  0  0  0  0  0
    0.4788   -0.2322    2.7815 C   0  0  0  0  0  0  0  0  0  0  0  0
   -0.4056   -0.8552    2.9213 H   0  0  0  0  0  0  0  0  0  0  0  0
    1.2149   -0.4794    3.5455 H   0  0  0  0  0  0  0  0  0  0  0  0
    0.1948    0.8147    2.8917 H   0  0  0  0  0  0  0  0  0  0  0  0
    1.3398   -1.8349    1.2742 O   0  0  0  0  0  0  0  0  0  0  0  0
    1.8117   -2.1166    2.0607 H   0  0  0  0  0  0  0  0  0  0  0  0
    0.9090   -0.1429   -1.1027 C   0  0  0  0  0  0  0  0  0  0  0  0
    1.9959   -0.7175   -1.1625 O   0  0  0  0  0  0  0  0  0  0  0  0
    0.2927    0.3262   -2.1967 N   0  0  0  0  0  0  0  0  0  0  0  0
   -0.6045    0.7692   -2.0852 H   0  0  0  0  0  0  0  0  0  0  0  0
    0.8473    0.2346   -3.5463 C   0  0  0  0  0  0  0  0  0  0  0  0
    1.1108   -0.8016   -3.7677 H   0  0  0  0  0  0  0  0  0  0  0  0
    0.1217    0.5847   -4.2807 H   0  0  0  0  0  0  0  0  0  0  0  0
    1.7517    0.8430   -3.6141 H   0  0  0  0  0  0  0  0  0  0  0  0
  5  6  2  0  0  0  0
  5  7  1  0  0  0  0
  2  3  1  0  0  0  0
  2  4  1  0  0  0  0
  2  5  1  0  0  0  0
  1  2  1  0  0  0  0
 19 20  2  0  0  0  0
 19 21  1  0  0  0  0
 17 18  1  0  0  0  0
 13 14  1  0  0  0  0
 13 15  1  0  0  0  0
 13 16  1  0  0  0  0
 11 12  1  0  0  0  0
 11 13  1  0  0  0  0
 11 17  1  0  0  0  0
  9 10  1  0  0  0  0
  9 11  1  0  0  0  0
  9 19  1  0  0  0  0
  7  8  1  0  0  0  0
  7  9  1  0  0  0  0
 23 24  1  0  0  0  0
 23 25  1  0  0  0  0
 23 26  1  0  0  0  0
 21 22  1  0  0  0  0
 21 23  1  0  0  0  0
M  END
$$$$
default_name
  -OEChem-01062215323D

 26 25  0     1  0  0  0  0  0999 V2000
   -2.8882   -3.2497    1.2537 H   0  0  0  0  0  0  0  0  0  0  0  0
   -2.8032   -2.3157    0.7017 C   0  0  0  0  0  0  0  0  0  0  0  0
   -3.5012   -1.5857    1.1067 H   0  0  0  0  0  0  0  0  0  0  0  0
   -3.0182   -2.4907   -0.3513 H   0  0  0  0  0  0  0  0  0  0  0  0
   -1.3942   -1.7897    0.8407 C   0  0  0  0  0  0  0  0  0  0  0  0
   -0.5672   -2.4077    1.5007 O   0  0  0  0  0  0  0  0  0  0  0  0
   -1.1222   -0.6447    0.2217 N   0  0  0  0  0  0  0  0  0  0  0  0
   -1.8592   -0.1777   -0.2863 H   0  0  0  0  0  0  0  0  0  0  0  0
    0.1838    0.0363    0.2367 C   0  0  1  0  0  0  0  0  0  0  0  0
    0.0188    1.1041    0.3762 H   0  0  0  0  0  0  0  0  0  0  0  0
    1.0755   -0.4590    1.3939 C   0  0  1  0  0  0  0  0  0  0  0  0
    2.0227    0.0782    1.3486 H   0  0  0  0  0  0  0  0  0  0  0  0
    0.4788   -0.2322    2.7815 C   0  0  0  0  0  0  0  0  0  0  0  0
   -0.4056   -0.8552    2.9213 H   0  0  0  0  0  0  0  0  0  0  0  0
    1.2149   -0.4794    3.5455 H   0  0  0  0  0  0  0  0  0  0  0  0
    0.1948    0.8147    2.8917 H   0  0  0  0  0  0  0  0  0  0  0  0
    1.3398   -1.8349    1.2742 O   0  0  0  0  0  0  0  0  0  0  0  0
    1.8117   -2.1166    2.0607 H   0  0  0  0  0  0  0  0  0  0  0  0
    0.9090   -0.1429   -1.1027 C   0  0  0  0  0  0  0  0  0  0  0  0
    1.8410   -0.9388   -1.2167 O   0  0  0  0  0  0  0  0  0  0  0  0
    0.4626    0.5810   -2.1387 N   0  0  0  0  0  0  0  0  0  0  0  0
   -0.3164    1.2003   -1.9870 H   0  0  0  0  0  0  0  0  0  0  0  0
    1.0418    0.5265   -3.4801 C   0  0  0  0  0  0  0  0  0  0  0  0
    1.0759   -0.5086   -3.8258 H   0  0  0  0  0  0  0  0  0  0  0  0
    0.4464    1.1176   -4.1762 H   0  0  0  0  0  0  0  0  0  0  0  0
    2.0617    0.9164   -3.4561 H   0  0  0  0  0  0  0  0  0  0  0  0
  5  6  2  0  0  0  0
  5  7  1  0  0  0  0
  2  3  1  0  0  0  0
  2  4  1  0  0  0  0
  2  5  1  0  0  0  0
  1  2  1  0  0  0  0
 19 20  2  0  0  0  0
 19 21  1  0  0  0  0
 17 18  1  0  0  0  0
 13 14  1  0  0  0  0
 13 15  1  0  0  0  0
 13 16  1  0  0  0  0
 11 12  1  0  0  0  0
 11 13  1  0  0  0  0
 11 17  1  0  0  0  0
  9 10  1  0  0  0  0
  9 11  1  0  0  0  0
  9 19  1  0  0  0  0
  7  8  1  0  0  0  0
  7  9  1  0  0  0  0
 23 24  1  0  0  0  0
 23 25  1  0  0  0  0
 23 26  1  0  0  0  0
 21 22  1  0  0  0  0
 21 23  1  0  0  0  0
M  END
$$$$
default_name
  -OEChem-01062215323D

 26 25  0     1  0  0  0  0  0999 V2000
   -2.8882   -3.2497    1.2537 H   0  0  0  0  0  0  0  0  0  0  0  0
   -2.8032   -2.3157    0.7017 C   0  0  0  0  0  0  0  0  0  0  0  0
   -3.5012   -1.5857    1.1067 H   0  0  0  0  0  0  0  0  0  0  0  0
   -3.0182   -2.4907   -0.3513 H   0  0  0  0  0  0  0  0  0  0  0  0
   -1.3942   -1.7897    0.8407 C   0  0  0  0  0  0  0  0  0  0  0  0
   -0.5672   -2.4077    1.5007 O   0  0  0  0  0  0  0  0  0  0  0  0
   -1.1222   -0.6447    0.2217 N   0  0  0  0  0  0  0  0  0  0  0  0
   -1.8592   -0.1777   -0.2863 H   0  0  0  0  0  0  0  0  0  0  0  0
    0.1838    0.0363    0.2367 C   0  0  1  0  0  0  0  0  0  0  0  0
    0.0188    1.1041    0.3762 H   0  0  0  0  0  0  0  0  0  0  0  0
    1.0755   -0.4590    1.3939 C   0  0  1  0  0  0  0  0  0  0  0  0
    2.0227    0.0782    1.3486 H   0  0  0  0  0  0  0  0  0  0  0  0
    0.4788   -0.2322    2.7815 C   0  0  0  0  0  0  0  0  0  0  0  0
   -0.4056   -0.8552    2.9213 H   0  0  0  0  0  0  0  0  0  0  0  0
    1.2149   -0.4794    3.5455 H   0  0  0  0  0  0  0  0  0  0  0  0
    0.1948    0.8147    2.8917 H   0  0  0  0  0  0  0  0  0  0  0  0
    1.3398   -1.8349    1.2742 O   0  0  0  0  0  0  0  0  0  0  0  0
    1.8117   -2.1166    2.0607 H   0  0  0  0  0  0  0  0  0  0  0  0
    0.9090   -0.1429   -1.1027 C   0  0  0  0  0  0  0  0  0  0  0  0
    1.6430   -1.1109   -1.3009 O   0  0  0  0  0  0  0  0  0  0  0  0
    0.6826    0.7816   -2.0465 N   0  0  0  0  0  0  0  0  0  0  0  0
    0.0563    1.5396   -1.8306 H   0  0  0  0  0  0  0  0  0  0  0  0
    1.2937    0.7564   -3.3745 C   0  0  0  0  0  0  0  0  0  0  0  0
    1.1102   -0.2106   -3.8472 H   0  0  0  0  0  0  0  0  0  0  0  0
    0.8774    1.5461   -4.0002 H   0  0  0  0  0  0  0  0  0  0  0  0
    2.3729    0.8979   -3.2852 H   0  0  0  0  0  0  0  0  0  0  0  0
  5  6  2  0  0  0  0
  5  7  1  0  0  0  0
  2  3  1  0  0  0  0
  2  4  1  0  0  0  0
  2  5  1  0  0  0  0
  1  2  1  0  0  0  0
 19 20  2  0  0  0  0
 19 21  1  0  0  0  0
 17 18  1  0  0  0  0
 13 14  1  0  0  0  0
 13 15  1  0  0  0  0
 13 16  1  0  0  0  0
 11 12  1  0  0  0  0
 11 13  1  0  0  0  0
 11 17  1  0  0  0  0
  9 10  1  0  0  0  0
  9 11  1  0  0  0  0
  9 19  1  0  0  0  0
  7  8  1  0  0  0  0
  7  9  1  0  0  0  0
 23 24  1  0  0  0  0
 23 25  1  0  0  0  0
 23 26  1  0  0  0  0
 21 22  1  0  0  0  0
 21 23  1  0  0  0  0
M  END
$$$$
default_name
  -OEChem-01062215323D

 26 25  0     1  0  0  0  0  0999 V2000
   -2.8882   -3.2497    1.2537 H   0  0  0  0  0  0  0  0  0  0  0  0
   -2.8032   -2.3157    0.7017 C   0  0  0  0  0  0  0  0  0  0  0  0
   -3.5012   -1.5857    1.1067 H   0  0  0  0  0  0  0  0  0  0  0  0
   -3.0182   -2.4907   -0.3513 H   0  0  0  0  0  0  0  0  0  0  0  0
   -1.3942   -1.7897    0.8407 C   0  0  0  0  0  0  0  0  0  0  0  0
   -0.5672   -2.4077    1.5007 O   0  0  0  0  0  0  0  0  0  0  0  0
   -1.1222   -0.6447    0.2217 N   0  0  0  0  0  0  0  0  0  0  0  0
   -1.8592   -0.1777   -0.2863 H   0  0  0  0  0  0  0  0  0  0  0  0
    0.1838    0.0363    0.2367 C   0  0  1  0  0  0  0  0  0  0  0  0
    0.0188    1.1041    0.3762 H   0  0  0  0  0  0  0  0  0  0  0  0
    1.0755   -0.4590    1.3939 C   0  0  1  0  0  0  0  0  0  0  0  0
    2.0227    0.0782    1.3486 H   0  0  0  0  0  0  0  0  0  0  0  0
    0.4788   -0.2322    2.7815 C   0  0  0  0  0  0  0  0  0  0  0  0
   -0.4056   -0.8552    2.9213 H   0  0  0  0  0  0  0  0  0  0  0  0
    1.2149   -0.4794    3.5455 H   0  0  0  0  0  0  0  0  0  0  0  0
    0.1948    0.8147    2.8917 H   0  0  0  0  0  0  0  0  0  0  0  0
    1.3398   -1.8349    1.2742 O   0  0  0  0  0  0  0  0  0  0  0  0
    1.8117   -2.1166    2.0607 H   0  0  0  0  0  0  0  0  0  0  0  0
    0.9090   -0.1429   -1.1027 C   0  0  0  0  0  0  0  0  0  0  0  0
    1.4153   -1.2221   -1.4093 O   0  0  0  0  0  0  0  0  0  0  0  0
    0.9376    0.9143   -1.9262 N   0  0  0  0  0  0  0  0  0  0  0  0
    0.4882    1.7640   -1.6267 H   0  0  0  0  0  0  0  0  0  0  0  0
    1.5857    0.9086   -3.2367 C   0  0  0  0  0  0  0  0  0  0  0  0
    1.2113    0.0722   -3.8302 H   0  0  0  0  0  0  0  0  0  0  0  0
    1.3852    1.8410   -3.7647 H   0  0  0  0  0  0  0  0  0  0  0  0
    2.6641    0.7887   -3.1129 H   0  0  0  0  0  0  0  0  0  0  0  0
  5  6  2  0  0  0  0
  5  7  1  0  0  0  0
  2  3  1  0  0  0  0
  2  4  1  0  0  0  0
  2  5  1  0  0  0  0
  1  2  1  0  0  0  0
 19 20  2  0  0  0  0
 19 21  1  0  0  0  0
 17 18  1  0  0  0  0
 13 14  1  0  0  0  0
 13 15  1  0  0  0  0
 13 16  1  0  0  0  0
 11 12  1  0  0  0  0
 11 13  1  0  0  0  0
 11 17  1  0  0  0  0
  9 10  1  0  0  0  0
  9 11  1  0  0  0  0
  9 19  1  0  0  0  0
  7  8  1  0  0  0  0
  7  9  1  0  0  0  0
 23 24  1  0  0  0  0
 23 25  1  0  0  0  0
 23 26  1  0  0  0  0
 21 22  1  0  0  0  0
 21 23  1  0  0  0  0
M  END
$$$$
default_name
  -OEChem-01062215323D

 26 25  0     1  0  0  0  0  0999 V2000
   -2.8882   -3.2497    1.2537 H   0  0  0  0  0  0  0  0  0  0  0  0
   -2.8032   -2.3157    0.7017 C   0  0  0  0  0  0  0  0  0  0  0  0
   -3.5012   -1.5857    1.1067 H   0  0  0  0  0  0  0  0  0  0  0  0
   -3.0182   -2.4907   -0.3513 H   0  0  0  0  0  0  0  0  0  0  0  0
   -1.3942   -1.7897    0.8407 C   0  0  0  0  0  0  0  0  0  0  0  0
   -0.5672   -2.4077    1.5007 O   0  0  0  0  0  0  0  0  0  0  0  0
   -1.1222   -0.6447    0.2217 N   0  0  0  0  0  0  0  0  0  0  0  0
   -1.8592   -0.1777   -0.2863 H   0  0  0  0  0  0  0  0  0  0  0  0
    0.1838    0.0363    0.2367 C   0  0  1  0  0  0  0  0  0  0  0  0
    0.0188    1.1041    0.3762 H   0  0  0  0  0  0  0  0  0  0  0  0
    1.0755   -0.4590    1.3939 C   0  0  1  0  0  0  0  0  0  0  0  0
    2.0227    0.0782    1.3486 H   0  0  0  0  0  0  0  0  0  0  0  0
    0.4788   -0.2322    2.7815 C   0  0  0  0  0  0  0  0  0  0  0  0
   -0.4056   -0.8552    2.9213 H   0  0  0  0  0  0  0  0  0  0  0  0
    1.2149   -0.4794    3.5455 H   0  0  0  0  0  0  0  0  0  0  0  0
    0.1948    0.8147    2.8917 H   0  0  0  0  0  0  0  0  0  0  0  0
    1.3398   -1.8349    1.2742 O   0  0  0  0  0  0  0  0  0  0  0  0
    1.8117   -2.1166    2.0607 H   0  0  0  0  0  0  0  0  0  0  0  0
    0.9090   -0.1429   -1.1027 C   0  0  0  0  0  0  0  0  0  0  0  0
    1.1736   -1.2648   -1.5345 O   0  0  0  0  0  0  0  0  0  0  0  0
    1.2103    0.9702   -1.7860 N   0  0  0  0  0  0  0  0  0  0  0  0
    0.9500    1.8581   -1.3893 H   0  0  0  0  0  0  0  0  0  0  0  0
    1.8981    0.9727   -3.0762 C   0  0  0  0  0  0  0  0  0  0  0  0
    1.3723    0.3203   -3.7762 H   0  0  0  0  0  0  0  0  0  0  0  0
    1.9353    1.9823   -3.4858 H   0  0  0  0  0  0  0  0  0  0  0  0
    2.9156    0.5964   -2.9510 H   0  0  0  0  0  0  0  0  0  0  0  0
  5  6  2  0  0  0  0
  5  7  1  0  0  0  0
  2  3  1  0  0  0  0
  2  4  1  0  0  0  0
  2  5  1  0  0  0  0
  1  2  1  0  0  0  0
 19 20  2  0  0  0  0
 19 21  1  0  0  0  0
 17 18  1  0  0  0  0
 13 14  1  0  0  0  0
 13 15  1  0  0  0  0
 13 16  1  0  0  0  0
 11 12  1  0  0  0  0
 11 13  1  0  0  0  0
 11 17  1  0  0  0  0
  9 10  1  0  0  0  0
  9 11  1  0  0  0  0
  9 19  1  0  0  0  0
  7  8  1  0  0  0  0
  7  9  1  0  0  0  0
 23 24  1  0  0  0  0
 23 25  1  0  0  0  0
 23 26  1  0  0  0  0
 21 22  1  0  0  0  0
 21 23  1  0  0  0  0
M  END
$$$$
default_name
  -OEChem-01062215323D

 26 25  0     1  0  0  0  0  0999 V2000
   -2.8882   -3.2497    1.2537 H   0  0  0  0  0  0  0  0  0  0  0  0
   -2.8032   -2.3157    0.7017 C   0  0  0  0  0  0  0  0  0  0  0  0
   -3.5012   -1.5857    1.1067 H   0  0  0  0  0  0  0  0  0  0  0  0
   -3.0182   -2.4907   -0.3513 H   0  0  0  0  0  0  0  0  0  0  0  0
   -1.3942   -1.7897    0.8407 C   0  0  0  0  0  0  0  0  0  0  0  0
   -0.5672   -2.4077    1.5007 O   0  0  0  0  0  0  0  0  0  0  0  0
   -1.1222   -0.6447    0.2217 N   0  0  0  0  0  0  0  0  0  0  0  0
   -1.8592   -0.1777   -0.2863 H   0  0  0  0  0  0  0  0  0  0  0  0
    0.1838    0.0363    0.2367 C   0  0  1  0  0  0  0  0  0  0  0  0
    0.0188    1.1041    0.3762 H   0  0  0  0  0  0  0  0  0  0  0  0
    1.0755   -0.4590    1.3939 C   0  0  1  0  0  0  0  0  0  0  0  0
    2.0227    0.0782    1.3486 H   0  0  0  0  0  0  0  0  0  0  0  0
    0.4788   -0.2322    2.7815 C   0  0  0  0  0  0  0  0  0  0  0  0
   -0.4056   -0.8552    2.9213 H   0  0  0  0  0  0  0  0  0  0  0  0
    1.2149   -0.4794    3.5455 H   0  0  0  0  0  0  0  0  0  0  0  0
    0.1948    0.8147    2.8917 H   0  0  0  0  0  0  0  0  0  0  0  0
    1.3398   -1.8349    1.2742 O   0  0  0  0  0  0  0  0  0  0  0  0
    1.8117   -2.1166    2.0607 H   0  0  0  0  0  0  0  0  0  0  0  0
    0.9090   -0.1429   -1.1027 C   0  0  0  0  0  0  0  0  0  0  0  0
    0.9342   -1.2361   -1.6679 O   0  0  0  0  0  0  0  0  0  0  0  0
    1.4821    0.9453   -1.6355 N   0  0  0  0  0  0  0  0  0  0  0  0
    1.4102    1.8156   -1.1345 H   0  0  0  0  0  0  0  0  0  0  0  0
    2.2094    0.9444   -2.9039 C   0  0  0  0  0  0  0  0  0  0  0  0
    1.5824    0.5170   -3.6889 H   0  0  0  0  0  0  0  0  0  0  0  0
    2.4901    1.9603   -3.1825 H   0  0  0  0  0  0  0  0  0  0  0  0
    3.1101    0.3339   -2.8106 H   0  0  0  0  0  0  0  0  0  0  0  0
  5  6  2  0  0  0  0
  5  7  1  0  0  0  0
  2  3  1  0  0  0  0
  2  4  1  0  0  0  0
  2  5  1  0  0  0  0
  1  2  1  0  0  0  0
 19 20  2  0  0  0  0
 19 21  1  0  0  0  0
 17 18  1  0  0  0  0
 13 14  1  0  0  0  0
 13 15  1  0  0  0  0
 13 16  1  0  0  0  0
 11 12  1  0  0  0  0
 11 13  1  0  0  0  0
 11 17  1  0  0  0  0
  9 10  1  0  0  0  0
  9 11  1  0  0  0  0
  9 19  1  0  0  0  0
  7  8  1  0  0  0  0
  7  9  1  0  0  0  0
 23 24  1  0  0  0  0
 23 25  1  0  0  0  0
 23 26  1  0  0  0  0
 21 22  1  0  0  0  0
 21 23  1  0  0  0  0
M  END
$$$$
default_name
  -OEChem-01062215323D

 26 25  0     1  0  0  0  0  0999 V2000
   -2.8882   -3.2497    1.2537 H   0  0  0  0  0  0  0  0  0  0  0  0
   -2.8032   -2.3157    0.7017 C   0  0  0  0  0  0  0  0  0  0  0  0
   -3.5012   -1.5857    1.1067 H   0  0  0  0  0  0  0  0  0  0  0  0
   -3.0182   -2.4907   -0.3513 H   0  0  0  0  0  0  0  0  0  0  0  0
   -1.3942   -1.7897    0.8407 C   0  0  0  0  0  0  0  0  0  0  0  0
   -0.5672   -2.4077    1.5007 O   0  0  0  0  0  0  0  0  0  0  0  0
   -1.1222   -0.6447    0.2217 N   0  0  0  0  0  0  0  0  0  0  0  0
   -1.8592   -0.1777   -0.2863 H   0  0  0  0  0  0  0  0  0  0  0  0
    0.1838    0.0363    0.2367 C   0  0  1  0  0  0  0  0  0  0  0  0
    0.0188    1.1041    0.3762 H   0  0  0  0  0  0  0  0  0  0  0  0
    1.0755   -0.4590    1.3939 C   0  0  1  0  0  0  0  0  0  0  0  0
    2.0227    0.0782    1.3486 H   0  0  0  0  0  0  0  0  0  0  0  0
    0.4788   -0.2322    2.7815 C   0  0  0  0  0  0  0  0  0  0  0  0
   -0.4056   -0.8552    2.9213 H   0  0  0  0  0  0  0  0  0  0  0  0
    1.2149   -0.4794    3.5455 H   0  0  0  0  0  0  0  0  0  0  0  0
    0.1948    0.8147    2.8917 H   0  0  0  0  0  0  0  0  0  0  0  0
    1.3398   -1.8349    1.2742 O   0  0  0  0  0  0  0  0  0  0  0  0
    1.8117   -2.1166    2.0607 H   0  0  0  0  0  0  0  0  0  0  0  0
    0.9090   -0.1429   -1.1027 C   0  0  0  0  0  0  0  0  0  0  0  0
    0.7135   -1.1379   -1.8005 O   0  0  0  0  0  0  0  0  0  0  0  0
    1.7345    0.8415   -1.4850 N   0  0  0  0  0  0  0  0  0  0  0  0
    1.8373    1.6393   -0.8797 H   0  0  0  0  0  0  0  0  0  0  0  0
    2.4985    0.8256   -2.7315 C   0  0  0  0  0  0  0  0  0  0  0  0
    1.8270    0.6489   -3.5740 H   0  0  0  0  0  0  0  0  0  0  0  0
    3.0118    1.7765   -2.8755 H   0  0  0  0  0  0  0  0  0  0  0  0
    3.2344    0.0193   -2.7012 H   0  0  0  0  0  0  0  0  0  0  0  0
  5  6  2  0  0  0  0
  5  7  1  0  0  0  0
  2  3  1  0  0  0  0
  2  4  1  0  0  0  0
  2  5  1  0  0  0  0
  1  2  1  0  0  0  0
 19 20  2  0  0  0  0
 19 21  1  0  0  0  0
 17 18  1  0  0  0  0
 13 14  1  0  0  0  0
 13 15  1  0  0  0  0
 13 16  1  0  0  0  0
 11 12  1  0  0  0  0
 11 13  1  0  0  0  0
 11 17  1  0  0  0  0
  9 10  1  0  0  0  0
  9 11  1  0  0  0  0
  9 19  1  0  0  0  0
  7  8  1  0  0  0  0
  7  9  1  0  0  0  0
 23 24  1  0  0  0  0
 23 25  1  0  0  0  0
 23 26  1  0  0  0  0
 21 22  1  0  0  0  0
 21 23  1  0  0  0  0
M  END
$$$$
default_name
  -OEChem-01062215323D

 26 25  0     1  0  0  0  0  0999 V2000
   -2.8882   -3.2497    1.2537 H   0  0  0  0  0  0  0  0  0  0  0  0
   -2.8032   -2.3157    0.7017 C   0  0  0  0  0  0  0  0  0  0  0  0
   -3.5012   -1.5857    1.1067 H   0  0  0  0  0  0  0  0  0  0  0  0
   -3.0182   -2.4907   -0.3513 H   0  0  0  0  0  0  0  0  0  0  0  0
   -1.3942   -1.7897    0.8407 C   0  0  0  0  0  0  0  0  0  0  0  0
   -0.5672   -2.4077    1.5007 O   0  0  0  0  0  0  0  0  0  0  0  0
   -1.1222   -0.6447    0.2217 N   0  0  0  0  0  0  0  0  0  0  0  0
   -1.8592   -0.1777   -0.2863 H   0  0  0  0  0  0  0  0  0  0  0  0
    0.1838    0.0363    0.2367 C   0  0  1  0  0  0  0  0  0  0  0  0
    0.0188    1.1041    0.3762 H   0  0  0  0  0  0  0  0  0  0  0  0
    1.0755   -0.4590    1.3939 C   0  0  1  0  0  0  0  0  0  0  0  0
    2.0227    0.0782    1.3486 H   0  0  0  0  0  0  0  0  0  0  0  0
    0.4788   -0.2322    2.7815 C   0  0  0  0  0  0  0  0  0  0  0  0
   -0.4056   -0.8552    2.9213 H   0  0  0  0  0  0  0  0  0  0  0  0
    1.2149   -0.4794    3.5455 H   0  0  0  0  0  0  0  0  0  0  0  0
    0.1948    0.8147    2.8917 H   0  0  0  0  0  0  0  0  0  0  0  0
    1.3398   -1.8349    1.2742 O   0  0  0  0  0  0  0  0  0  0  0  0
    1.8117   -2.1166    2.0607 H   0  0  0  0  0  0  0  0  0  0  0  0
    0.9090   -0.1429   -1.1027 C   0  0  0  0  0  0  0  0  0  0  0  0
    0.5266   -0.9770   -1.9233 O   0  0  0  0  0  0  0  0  0  0  0  0
    1.9503    0.6657   -1.3447 N   0  0  0  0  0  0  0  0  0  0  0  0
    2.2024    1.3413   -0.6422 H   0  0  0  0  0  0  0  0  0  0  0  0
    2.7458    0.6244   -2.5707 C   0  0  0  0  0  0  0  0  0  0  0  0
    2.0897    0.7068   -3.4396 H   0  0  0  0  0  0  0  0  0  0  0  0
    3.4650    1.4435   -2.5856 H   0  0  0  0  0  0  0  0  0  0  0  0
    3.2800   -0.3262   -2.6303 H   0  0  0  0  0  0  0  0  0  0  0  0
  5  6  2  0  0  0  0
  5  7  1  0  0  0  0
  2  3  1  0  0  0  0
  2  4  1  0  0  0  0
  2  5  1  0  0  0  0
  1  2  1  0  0  0  0
 19 20  2  0  0  0  0
 19 21  1  0  0  0  0
 17 18  1  0  0  0  0
 13 14  1  0  0  0  0
 13 15  1  0  0  0  0
 13 16  1  0  0  0  0
 11 12  1  0  0  0  0
 11 13  1  0  0  0  0
 11 17  1  0  0  0  0
  9 10  1  0  0  0  0
  9 11  1  0  0  0  0
  9 19  1  0  0  0  0
  7  8  1  0  0  0  0
  7  9  1  0  0  0  0
 23 24  1  0  0  0  0
 23 25  1  0  0  0  0
 23 26  1  0  0  0  0
 21 22  1  0  0  0  0
 21 23  1  0  0  0  0
M  END
$$$$
default_name
  -OEChem-01062215323D

 26 25  0     1  0  0  0  0  0999 V2000
   -2.8882   -3.2497    1.2537 H   0  0  0  0  0  0  0  0  0  0  0  0
   -2.8032   -2.3157    0.7017 C   0  0  0  0  0  0  0  0  0  0  0  0
   -3.5012   -1.5857    1.1067 H   0  0  0  0  0  0  0  0  0  0  0  0
   -3.0182   -2.4907   -0.3513 H   0  0  0  0  0  0  0  0  0  0  0  0
   -1.3942   -1.7897    0.8407 C   0  0  0  0  0  0  0  0  0  0  0  0
   -0.5672   -2.4077    1.5007 O   0  0  0  0  0  0  0  0  0  0  0  0
   -1.1222   -0.6447    0.2217 N   0  0  0  0  0  0  0  0  0  0  0  0
   -1.8592   -0.1777   -0.2863 H   0  0  0  0  0  0  0  0  0  0  0  0
    0.1838    0.0363    0.2367 C   0  0  1  0  0  0  0  0  0  0  0  0
    0.0488    1.0408    0.6363 H   0  0  0  0  0  0  0  0  0  0  0  0
    1.2023   -0.6963    1.1343 C   0  0  1  0  0  0  0  0  0  0  0  0
    2.1432   -0.1474    1.1009 H   0  0  0  0  0  0  0  0  0  0  0  0
    0.7789   -0.8037    2.5979 C   0  0  0  0  0  0  0  0  0  0  0  0
   -0.0893   -1.4567    2.6954 H   0  0  0  0  0  0  0  0  0  0  0  0
    1.5985   -1.2072    3.1913 H   0  0  0  0  0  0  0  0  0  0  0  0
    0.5221    0.1852    2.9787 H   0  0  0  0  0  0  0  0  0  0  0  0
    1.4346   -2.0035    0.6712 O   0  0  0  0  0  0  0  0  0  0  0  0
    1.9943   -2.4501    1.3099 H   0  0  0  0  0  0  0  0  0  0  0  0
    0.7410    0.1812   -1.1848 C   0  0  0  0  0  0  0  0  0  0  0  0
    0.1038   -0.2201   -2.1586 O   0  0  0  0  0  0  0  0  0  0  0  0
    1.9298    0.7864   -1.3144 N   0  0  0  0  0  0  0  0  0  0  0  0
    2.3930    1.1105   -0.4814 H   0  0  0  0  0  0  0  0  0  0  0  0
    2.5975    1.0038   -2.5968 C   0  0  0  0  0  0  0  0  0  0  0  0
    1.9204    1.5154   -3.2837 H   0  0  0  0  0  0  0  0  0  0  0  0
    3.4947    1.6081   -2.4613 H   0  0  0  0  0  0  0  0  0  0  0  0
    2.8729    0.0423   -3.0354 H   0  0  0  0  0  0  0  0  0  0  0  0
  5  6  2  0  0  0  0
  5  7  1  0  0  0  0
  2  3  1  0  0  0  0
  2  4  1  0  0  0  0
  2  5  1  0  0  0  0
  1  2  1  0  0  0  0
 19 20  2  0  0  0  0
 19 21  1  0  0  0  0
 17 18  1  0  0  0  0
 13 14  1  0  0  0  0
 13 15  1  0  0  0  0
 13 16  1  0  0  0  0
 11 12  1  0  0  0  0
 11 13  1  0  0  0  0
 11 17  1  0  0  0  0
  9 10  1  0  0  0  0
  9 11  1  0  0  0  0
  9 19  1  0  0  0  0
  7  8  1  0  0  0  0
  7  9  1  0  0  0  0
 23 24  1  0  0  0  0
 23 25  1  0  0  0  0
 23 26  1  0  0  0  0
 21 22  1  0  0  0  0
 21 23  1  0  0  0  0
M  END
$$$$
default_name
  -OEChem-01062215323D

 26 25  0     1  0  0  0  0  0999 V2000
   -2.8882   -3.2497    1.2537 H   0  0  0  0  0  0  0  0  0  0  0  0
   -2.8032   -2.3157    0.7017 C   0  0  0  0  0  0  0  0  0  0  0  0
   -3.5012   -1.5857    1.1067 H   0  0  0  0  0  0  0  0  0  0  0  0
   -3.0182   -2.4907   -0.3513 H   0  0  0  0  0  0  0  0  0  0  0  0
   -1.3942   -1.7897    0.8407 C   0  0  0  0  0  0  0  0  0  0  0  0
   -0.5672   -2.4077    1.5007 O   0  0  0  0  0  0  0  0  0  0  0  0
   -1.1222   -0.6447    0.2217 N   0  0  0  0  0  0  0  0  0  0  0  0
   -1.8592   -0.1777   -0.2863 H   0  0  0  0  0  0  0  0  0  0  0  0
    0.1838    0.0363    0.2367 C   0  0  1  0  0  0  0  0  0  0  0  0
    0.0488    1.0408    0.6363 H   0  0  0  0  0  0  0  0  0  0  0  0
    1.2023   -0.6963    1.1343 C   0  0  1  0  0  0  0  0  0  0  0  0
    2.1432   -0.1474    1.1009 H   0  0  0  0  0  0  0  0  0  0  0  0
    0.7789   -0.8037    2.5979 C   0  0  0  0  0  0  0  0  0  0  0  0
   -0.0893   -1.4567    2.6954 H   0  0  0  0  0  0  0  0  0  0  0  0
    1.5985   -1.2072    3.1913 H   0  0  0  0  0  0  0  0  0  0  0  0
    0.5221    0.1852    2.9787 H   0  0  0  0  0  0  0  0  0  0  0  0
    1.4346   -2.0035    0.6712 O   0  0  0  0  0  0  0  0  0  0  0  0
    1.9943   -2.4501    1.3099 H   0  0  0  0  0  0  0  0  0  0  0  0
    0.7410    0.1812   -1.1848 C   0  0  0  0  0  0  0  0  0  0  0  0
    0.0133    0.0400   -2.1676 O   0  0  0  0  0  0  0  0  0  0  0  0
    2.0389    0.4948   -1.3014 N   0  0  0  0  0  0  0  0  0  0  0  0
    2.5773    0.6165   -0.4595 H   0  0  0  0  0  0  0  0  0  0  0  0
    2.7226    0.6698   -2.5818 C   0  0  0  0  0  0  0  0  0  0  0  0
    2.1799    1.3924   -3.1946 H   0  0  0  0  0  0  0  0  0  0  0  0
    3.7407    1.0263   -2.4242 H   0  0  0  0  0  0  0  0  0  0  0  0
    2.7523   -0.2824   -3.1157 H   0  0  0  0  0  0  0  0  0  0  0  0
  5  6  2  0  0  0  0
  5  7  1  0  0  0  0
  2  3  1  0  0  0  0
  2  4  1  0  0  0  0
  2  5  1  0  0  0  0
  1  2  1  0  0  0  0
 19 20  2  0  0  0  0
 19 21  1  0  0  0  0
 17 18  1  0  0  0  0
 13 14  1  0  0  0  0
 13 15  1  0  0  0  0
 13 16  1  0  0  0  0
 11 12  1  0  0  0  0
 11 13  1  0  0  0  0
 11 17  1  0  0  0  0
  9 10  1  0  0  0  0
  9 11  1  0  0  0  0
  9 19  1  0  0  0  0
  7  8  1  0  0  0  0
  7  9  1  0  0  0  0
 23 24  1  0  0  0  0
 23 25  1  0  0  0  0
 23 26  1  0  0  0  0
 21 22  1  0  0  0  0
 21 23  1  0  0  0  0
M  END
$$$$
default_name
  -OEChem-01062215323D

 26 25  0     1  0  0  0  0  0999 V2000
   -2.8882   -3.2497    1.2537 H   0  0  0  0  0  0  0  0  0  0  0  0
   -2.8032   -2.3157    0.7017 C   0  0  0  0  0  0  0  0  0  0  0  0
   -3.5012   -1.5857    1.1067 H   0  0  0  0  0  0  0  0  0  0  0  0
   -3.0182   -2.4907   -0.3513 H   0  0  0  0  0  0  0  0  0  0  0  0
   -1.3942   -1.7897    0.8407 C   0  0  0  0  0  0  0  0  0  0  0  0
   -0.5672   -2.4077    1.5007 O   0  0  0  0  0  0  0  0  0  0  0  0
   -1.1222   -0.6447    0.2217 N   0  0  0  0  0  0  0  0  0  0  0  0
   -1.8592   -0.1777   -0.2863 H   0  0  0  0  0  0  0  0  0  0  0  0
    0.1838    0.0363    0.2367 C   0  0  1  0  0  0  0  0  0  0  0  0
    0.0488    1.0408    0.6363 H   0  0  0  0  0  0  0  0  0  0  0  0
    1.2023   -0.6963    1.1343 C   0  0  1  0  0  0  0  0  0  0  0  0
    2.1432   -0.1474    1.1009 H   0  0  0  0  0  0  0  0  0  0  0  0
    0.7789   -0.8037    2.5979 C   0  0  0  0  0  0  0  0  0  0  0  0
   -0.0893   -1.4567    2.6954 H   0  0  0  0  0  0  0  0  0  0  0  0
    1.5985   -1.2072    3.1913 H   0  0  0  0  0  0  0  0  0  0  0  0
    0.5221    0.1852    2.9787 H   0  0  0  0  0  0  0  0  0  0  0  0
    1.4346   -2.0035    0.6712 O   0  0  0  0  0  0  0  0  0  0  0  0
    1.9943   -2.4501    1.3099 H   0  0  0  0  0  0  0  0  0  0  0  0
    0.7410    0.1812   -1.1848 C   0  0  0  0  0  0  0  0  0  0  0  0
   -0.0119    0.3138   -2.1496 O   0  0  0  0  0  0  0  0  0  0  0  0
    2.0746    0.1856   -1.3189 N   0  0  0  0  0  0  0  0  0  0  0  0
    2.6373    0.0930   -0.4893 H   0  0  0  0  0  0  0  0  0  0  0  0
    2.7637    0.3157   -2.6018 C   0  0  0  0  0  0  0  0  0  0  0  0
    2.4033    1.2029   -3.1263 H   0  0  0  0  0  0  0  0  0  0  0  0
    3.8396    0.4019   -2.4490 H   0  0  0  0  0  0  0  0  0  0  0  0
    2.5560   -0.5596   -3.2209 H   0  0  0  0  0  0  0  0  0  0  0  0
  5  6  2  0  0  0  0
  5  7  1  0  0  0  0
  2  3  1  0  0  0  0
  2  4  1  0  0  0  0
  2  5  1  0  0  0  0
  1  2  1  0  0  0  0
 19 20  2  0  0  0  0
 19 21  1  0  0  0  0
 17 18  1  0  0  0  0
 13 14  1  0  0  0  0
 13 15  1  0  0  0  0
 13 16  1  0  0  0  0
 11 12  1  0  0  0  0
 11 13  1  0  0  0  0
 11 17  1  0  0  0  0
  9 10  1  0  0  0  0
  9 11  1  0  0  0  0
  9 19  1  0  0  0  0
  7  8  1  0  0  0  0
  7  9  1  0  0  0  0
 23 24  1  0  0  0  0
 23 25  1  0  0  0  0
 23 26  1  0  0  0  0
 21 22  1  0  0  0  0
 21 23  1  0  0  0  0
M  END
$$$$
default_name
  -OEChem-01062215323D

 26 25  0     1  0  0  0  0  0999 V2000
   -2.8882   -3.2497    1.2537 H   0  0  0  0  0  0  0  0  0  0  0  0
   -2.8032   -2.3157    0.7017 C   0  0  0  0  0  0  0  0  0  0  0  0
   -3.5012   -1.5857    1.1067 H   0  0  0  0  0  0  0  0  0  0  0  0
   -3.0182   -2.4907   -0.3513 H   0  0  0  0  0  0  0  0  0  0  0  0
   -1.3942   -1.7897    0.8407 C   0  0  0  0  0  0  0  0  0  0  0  0
   -0.5672   -2.4077    1.5007 O   0  0  0  0  0  0  0  0  0  0  0  0
   -1.1222   -0.6447    0.2217 N   0  0  0  0  0  0  0  0  0  0  0  0
   -1.8592   -0.1777   -0.2863 H   0  0  0  0  0  0  0  0  0  0  0  0
    0.1838    0.0363    0.2367 C   0  0  1  0  0  0  0  0  0  0  0  0
    0.0488    1.0408    0.6363 H   0  0  0  0  0  0  0  0  0  0  0  0
    1.2023   -0.6963    1.1343 C   0  0  1  0  0  0  0  0  0  0  0  0
    2.1432   -0.1474    1.1009 H   0  0  0  0  0  0  0  0  0  0  0  0
    0.7789   -0.8037    2.5979 C   0  0  0  0  0  0  0  0  0  0  0  0
   -0.0893   -1.4567    2.6954 H   0  0  0  0  0  0  0  0  0  0  0  0
    1.5985   -1.2072    3.1913 H   0  0  0  0  0  0  0  0  0  0  0  0
    0.5221    0.1852    2.9787 H   0  0  0  0  0  0  0  0  0  0  0  0
    1.4346   -2.0035    0.6712 O   0  0  0  0  0  0  0  0  0  0  0  0
    1.9943   -2.4501    1.3099 H   0  0  0  0  0  0  0  0  0  0  0  0
    0.7410    0.1812   -1.1848 C   0  0  0  0  0  0  0  0  0  0  0  0
    0.0298    0.5827   -2.1058 O   0  0  0  0  0  0  0  0  0  0  0  0
    2.0345   -0.1199   -1.3658 N   0  0  0  0  0  0  0  0  0  0  0  0
    2.5690   -0.4242   -0.5688 H   0  0  0  0  0  0  0  0  0  0  0  0
    2.7179   -0.0342   -2.6554 C   0  0  0  0  0  0  0  0  0  0  0  0
    2.5753    0.9599   -3.0837 H   0  0  0  0  0  0  0  0  0  0  0  0
    3.7848   -0.2226   -2.5342 H   0  0  0  0  0  0  0  0  0  0  0  0
    2.2974   -0.7704   -3.3438 H   0  0  0  0  0  0  0  0  0  0  0  0
  5  6  2  0  0  0  0
  5  7  1  0  0  0  0
  2  3  1  0  0  0  0
  2  4  1  0  0  0  0
  2  5  1  0  0  0  0
  1  2  1  0  0  0  0
 19 20  2  0  0  0  0
 19 21  1  0  0  0  0
 17 18  1  0  0  0  0
 13 14  1  0  0  0  0
 13 15  1  0  0  0  0
 13 16  1  0  0  0  0
 11 12  1  0  0  0  0
 11 13  1  0  0  0  0
 11 17  1  0  0  0  0
  9 10  1  0  0  0  0
  9 11  1  0  0  0  0
  9 19  1  0  0  0  0
  7  8  1  0  0  0  0
  7  9  1  0  0  0  0
 23 24  1  0  0  0  0
 23 25  1  0  0  0  0
 23 26  1  0  0  0  0
 21 22  1  0  0  0  0
 21 23  1  0  0  0  0
M  END
$$$$
default_name
  -OEChem-01062215323D

 26 25  0     1  0  0  0  0  0999 V2000
   -2.8882   -3.2497    1.2537 H   0  0  0  0  0  0  0  0  0  0  0  0
   -2.8032   -2.3157    0.7017 C   0  0  0  0  0  0  0  0  0  0  0  0
   -3.5012   -1.5857    1.1067 H   0  0  0  0  0  0  0  0  0  0  0  0
   -3.0182   -2.4907   -0.3513 H   0  0  0  0  0  0  0  0  0  0  0  0
   -1.3942   -1.7897    0.8407 C   0  0  0  0  0  0  0  0  0  0  0  0
   -0.5672   -2.4077    1.5007 O   0  0  0  0  0  0  0  0  0  0  0  0
   -1.1222   -0.6447    0.2217 N   0  0  0  0  0  0  0  0  0  0  0  0
   -1.8592   -0.1777   -0.2863 H   0  0  0  0  0  0  0  0  0  0  0  0
    0.1838    0.0363    0.2367 C   0  0  1  0  0  0  0  0  0  0  0  0
    0.0488    1.0408    0.6363 H   0  0  0  0  0  0  0  0  0  0  0  0
    1.2023   -0.6963    1.1343 C   0  0  1  0  0  0  0  0  0  0  0  0
    2.1432   -0.1474    1.1009 H   0  0  0  0  0  0  0  0  0  0  0  0
    0.7789   -0.8037    2.5979 C   0  0  0  0  0  0  0  0  0  0  0  0
   -0.0893   -1.4567    2.6954 H   0  0  0  0  0  0  0  0  0  0  0  0
    1.5985   -1.2072    3.1913 H   0  0  0  0  0  0  0  0  0  0  0  0
    0.5221    0.1852    2.9787 H   0  0  0  0  0  0  0  0  0  0  0  0
    1.4346   -2.0035    0.6712 O   0  0  0  0  0  0  0  0  0  0  0  0
    1.9943   -2.4501    1.3099 H   0  0  0  0  0  0  0  0  0  0  0  0
    0.7410    0.1812   -1.1848 C   0  0  0  0  0  0  0  0  0  0  0  0
    0.1357    0.8282   -2.0393 O   0  0  0  0  0  0  0  0  0  0  0  0
    1.9213   -0.4009   -1.4388 N   0  0  0  0  0  0  0  0  0  0  0  0
    2.3770   -0.8999   -0.6925 H   0  0  0  0  0  0  0  0  0  0  0  0
    2.5884   -0.3562   -2.7390 C   0  0  0  0  0  0  0  0  0  0  0  0
    2.6841    0.6799   -3.0695 H   0  0  0  0  0  0  0  0  0  0  0  0
    3.5799   -0.8047   -2.6738 H   0  0  0  0  0  0  0  0  0  0  0  0
    1.9940   -0.9004   -3.4760 H   0  0  0  0  0  0  0  0  0  0  0  0
  5  6  2  0  0  0  0
  5  7  1  0  0  0  0
  2  3  1  0  0  0  0
  2  4  1  0  0  0  0
  2  5  1  0  0  0  0
  1  2  1  0  0  0  0
 19 20  2  0  0  0  0
 19 21  1  0  0  0  0
 17 18  1  0  0  0  0
 13 14  1  0  0  0  0
 13 15  1  0  0  0  0
 13 16  1  0  0  0  0
 11 12  1  0  0  0  0
 11 13  1  0  0  0  0
 11 17  1  0  0  0  0
  9 10  1  0  0  0  0
  9 11  1  0  0  0  0
  9 19  1  0  0  0  0
  7  8  1  0  0  0  0
  7  9  1  0  0  0  0
 23 24  1  0  0  0  0
 23 25  1  0  0  0  0
 23 26  1  0  0  0  0
 21 22  1  0  0  0  0
 21 23  1  0  0  0  0
M  END
$$$$
default_name
  -OEChem-01062215323D

 26 25  0     1  0  0  0  0  0999 V2000
   -2.8882   -3.2497    1.2537 H   0  0  0  0  0  0  0  0  0  0  0  0
   -2.8032   -2.3157    0.7017 C   0  0  0  0  0  0  0  0  0  0  0  0
   -3.5012   -1.5857    1.1067 H   0  0  0  0  0  0  0  0  0  0  0  0
   -3.0182   -2.4907   -0.3513 H   0  0  0  0  0  0  0  0  0  0  0  0
   -1.3942   -1.7897    0.8407 C   0  0  0  0  0  0  0  0  0  0  0  0
   -0.5672   -2.4077    1.5007 O   0  0  0  0  0  0  0  0  0  0  0  0
   -1.1222   -0.6447    0.2217 N   0  0  0  0  0  0  0  0  0  0  0  0
   -1.8592   -0.1777   -0.2863 H   0  0  0  0  0  0  0  0  0  0  0  0
    0.1838    0.0363    0.2367 C   0  0  1  0  0  0  0  0  0  0  0  0
    0.0488    1.0408    0.6363 H   0  0  0  0  0  0  0  0  0  0  0  0
    1.2023   -0.6963    1.1343 C   0  0  1  0  0  0  0  0  0  0  0  0
    2.1432   -0.1474    1.1009 H   0  0  0  0  0  0  0  0  0  0  0  0
    0.7789   -0.8037    2.5979 C   0  0  0  0  0  0  0  0  0  0  0  0
   -0.0893   -1.4567    2.6954 H   0  0  0  0  0  0  0  0  0  0  0  0
    1.5985   -1.2072    3.1913 H   0  0  0  0  0  0  0  0  0  0  0  0
    0.5221    0.1852    2.9787 H   0  0  0  0  0  0  0  0  0  0  0  0
    1.4346   -2.0035    0.6712 O   0  0  0  0  0  0  0  0  0  0  0  0
    1.9943   -2.4501    1.3099 H   0  0  0  0  0  0  0  0  0  0  0  0
    0.7410    0.1812   -1.1848 C   0  0  0  0  0  0  0  0  0  0  0  0
    0.2985    1.0338   -1.9545 O   0  0  0  0  0  0  0  0  0  0  0  0
    1.7428   -0.6384   -1.5329 N   0  0  0  0  0  0  0  0  0  0  0  0
    2.0744   -1.3017   -0.8520 H   0  0  0  0  0  0  0  0  0  0  0  0
    2.3841   -0.6284   -2.8468 C   0  0  0  0  0  0  0  0  0  0  0  0
    2.7224    0.3820   -3.0849 H   0  0  0  0  0  0  0  0  0  0  0  0
    3.2390   -1.3047   -2.8584 H   0  0  0  0  0  0  0  0  0  0  0  0
    1.6665   -0.9407   -3.6084 H   0  0  0  0  0  0  0  0  0  0  0  0
  5  6  2  0  0  0  0
  5  7  1  0  0  0  0
  2  3  1  0  0  0  0
  2  4  1  0  0  0  0
  2  5  1  0  0  0  0
  1  2  1  0  0  0  0
 19 20  2  0  0  0  0
 19 21  1  0  0  0  0
 17 18  1  0  0  0  0
 13 14  1  0  0  0  0
 13 15  1  0  0  0  0
 13 16  1  0  0  0  0
 11 12  1  0  0  0  0
 11 13  1  0  0  0  0
 11 17  1  0  0  0  0
  9 10  1  0  0  0  0
  9 11  1  0  0  0  0
  9 19  1  0  0  0  0
  7  8  1  0  0  0  0
  7  9  1  0  0  0  0
 23 24  1  0  0  0  0
 23 25  1  0  0  0  0
 23 26  1  0  0  0  0
 21 22  1  0  0  0  0
 21 23  1  0  0  0  0
M  END
$$$$
default_name
  -OEChem-01062215323D

 26 25  0     1  0  0  0  0  0999 V2000
   -2.8882   -3.2497    1.2537 H   0  0  0  0  0  0  0  0  0  0  0  0
   -2.8032   -2.3157    0.7017 C   0  0  0  0  0  0  0  0  0  0  0  0
   -3.5012   -1.5857    1.1067 H   0  0  0  0  0  0  0  0  0  0  0  0
   -3.0182   -2.4907   -0.3513 H   0  0  0  0  0  0  0  0  0  0  0  0
   -1.3942   -1.7897    0.8407 C   0  0  0  0  0  0  0  0  0  0  0  0
   -0.5672   -2.4077    1.5007 O   0  0  0  0  0  0  0  0  0  0  0  0
   -1.1222   -0.6447    0.2217 N   0  0  0  0  0  0  0  0  0  0  0  0
   -1.8592   -0.1777   -0.2863 H   0  0  0  0  0  0  0  0  0  0  0  0
    0.1838    0.0363    0.2367 C   0  0  1  0  0  0  0  0  0  0  0  0
    0.0488    1.0408    0.6363 H   0  0  0  0  0  0  0  0  0  0  0  0
    1.2023   -0.6963    1.1343 C   0  0  1  0  0  0  0  0  0  0  0  0
    2.1432   -0.1474    1.1009 H   0  0  0  0  0  0  0  0  0  0  0  0
    0.7789   -0.8037    2.5979 C   0  0  0  0  0  0  0  0  0  0  0  0
   -0.0893   -1.4567    2.6954 H   0  0  0  0  0  0  0  0  0  0  0  0
    1.5985   -1.2072    3.1913 H   0  0  0  0  0  0  0  0  0  0  0  0
    0.5221    0.1852    2.9787 H   0  0  0  0  0  0  0  0  0  0  0  0
    1.4346   -2.0035    0.6712 O   0  0  0  0  0  0  0  0  0  0  0  0
    1.9943   -2.4501    1.3099 H   0  0  0  0  0  0  0  0  0  0  0  0
    0.7410    0.1812   -1.1848 C   0  0  0  0  0  0  0  0  0  0  0  0
    0.5071    1.1853   -1.8573 O   0  0  0  0  0  0  0  0  0  0  0  0
    1.5111   -0.8161   -1.6418 N   0  0  0  0  0  0  0  0  0  0  0  0
    1.6818   -1.6022   -1.0365 H   0  0  0  0  0  0  0  0  0  0  0  0
    2.1188   -0.8321   -2.9715 C   0  0  0  0  0  0  0  0  0  0  0  0
    2.6876    0.0866   -3.1286 H   0  0  0  0  0  0  0  0  0  0  0  0
    2.7852   -1.6885   -3.0753 H   0  0  0  0  0  0  0  0  0  0  0  0
    1.3372   -0.8887   -3.7322 H   0  0  0  0  0  0  0  0  0  0  0  0
  5  6  2  0  0  0  0
  5  7  1  0  0  0  0
  2  3  1  0  0  0  0
  2  4  1  0  0  0  0
  2  5  1  0  0  0  0
  1  2  1  0  0  0  0
 19 20  2  0  0  0  0
 19 21  1  0  0  0  0
 17 18  1  0  0  0  0
 13 14  1  0  0  0  0
 13 15  1  0  0  0  0
 13 16  1  0  0  0  0
 11 12  1  0  0  0  0
 11 13  1  0  0  0  0
 11 17  1  0  0  0  0
  9 10  1  0  0  0  0
  9 11  1  0  0  0  0
  9 19  1  0  0  0  0
  7  8  1  0  0  0  0
  7  9  1  0  0  0  0
 23 24  1  0  0  0  0
 23 25  1  0  0  0  0
 23 26  1  0  0  0  0
 21 22  1  0  0  0  0
 21 23  1  0  0  0  0
M  END
$$$$
default_name
  -OEChem-01062215323D

 26 25  0     1  0  0  0  0  0999 V2000
   -2.8882   -3.2497    1.2537 H   0  0  0  0  0  0  0  0  0  0  0  0
   -2.8032   -2.3157    0.7017 C   0  0  0  0  0  0  0  0  0  0  0  0
   -3.5012   -1.5857    1.1067 H   0  0  0  0  0  0  0  0  0  0  0  0
   -3.0182   -2.4907   -0.3513 H   0  0  0  0  0  0  0  0  0  0  0  0
   -1.3942   -1.7897    0.8407 C   0  0  0  0  0  0  0  0  0  0  0  0
   -0.5672   -2.4077    1.5007 O   0  0  0  0  0  0  0  0  0  0  0  0
   -1.1222   -0.6447    0.2217 N   0  0  0  0  0  0  0  0  0  0  0  0
   -1.8592   -0.1777   -0.2863 H   0  0  0  0  0  0  0  0  0  0  0  0
    0.1838    0.0363    0.2367 C   0  0  1  0  0  0  0  0  0  0  0  0
    0.0488    1.0408    0.6363 H   0  0  0  0  0  0  0  0  0  0  0  0
    1.2023   -0.6963    1.1343 C   0  0  1  0  0  0  0  0  0  0  0  0
    2.1432   -0.1474    1.1009 H   0  0  0  0  0  0  0  0  0  0  0  0
    0.7789   -0.8037    2.5979 C   0  0  0  0  0  0  0  0  0  0  0  0
   -0.0893   -1.4567    2.6954 H   0  0  0  0  0  0  0  0  0  0  0  0
    1.5985   -1.2072    3.1913 H   0  0  0  0  0  0  0  0  0  0  0  0
    0.5221    0.1852    2.9787 H   0  0  0  0  0  0  0  0  0  0  0  0
    1.4346   -2.0035    0.6712 O   0  0  0  0  0  0  0  0  0  0  0  0
    1.9943   -2.4501    1.3099 H   0  0  0  0  0  0  0  0  0  0  0  0
    0.7410    0.1812   -1.1848 C   0  0  0  0  0  0  0  0  0  0  0  0
    0.7474    1.2724   -1.7543 O   0  0  0  0  0  0  0  0  0  0  0  0
    1.2420   -0.9220   -1.7581 N   0  0  0  0  0  0  0  0  0  0  0  0
    1.2260   -1.7810   -1.2334 H   0  0  0  0  0  0  0  0  0  0  0  0
    1.8106   -0.9534   -3.1047 C   0  0  0  0  0  0  0  0  0  0  0  0
    2.5820   -0.1864   -3.1978 H   0  0  0  0  0  0  0  0  0  0  0  0
    2.2495   -1.9300   -3.3099 H   0  0  0  0  0  0  0  0  0  0  0  0
    1.0287   -0.7478   -3.8387 H   0  0  0  0  0  0  0  0  0  0  0  0
  5  6  2  0  0  0  0
  5  7  1  0  0  0  0
  2  3  1  0  0  0  0
  2  4  1  0  0  0  0
  2  5  1  0  0  0  0
  1  2  1  0  0  0  0
 19 20  2  0  0  0  0
 19 21  1  0  0  0  0
 17 18  1  0  0  0  0
 13 14  1  0  0  0  0
 13 15  1  0  0  0  0
 13 16  1  0  0  0  0
 11 12  1  0  0  0  0
 11 13  1  0  0  0  0
 11 17  1  0  0  0  0
  9 10  1  0  0  0  0
  9 11  1  0  0  0  0
  9 19  1  0  0  0  0
  7  8  1  0  0  0  0
  7  9  1  0  0  0  0
 23 24  1  0  0  0  0
 23 25  1  0  0  0  0
 23 26  1  0  0  0  0
 21 22  1  0  0  0  0
 21 23  1  0  0  0  0
M  END
$$$$
default_name
  -OEChem-01062215323D

 26 25  0     1  0  0  0  0  0999 V2000
   -2.8882   -3.2497    1.2537 H   0  0  0  0  0  0  0  0  0  0  0  0
   -2.8032   -2.3157    0.7017 C   0  0  0  0  0  0  0  0  0  0  0  0
   -3.5012   -1.5857    1.1067 H   0  0  0  0  0  0  0  0  0  0  0  0
   -3.0182   -2.4907   -0.3513 H   0  0  0  0  0  0  0  0  0  0  0  0
   -1.3942   -1.7897    0.8407 C   0  0  0  0  0  0  0  0  0  0  0  0
   -0.5672   -2.4077    1.5007 O   0  0  0  0  0  0  0  0  0  0  0  0
   -1.1222   -0.6447    0.2217 N   0  0  0  0  0  0  0  0  0  0  0  0
   -1.8592   -0.1777   -0.2863 H   0  0  0  0  0  0  0  0  0  0  0  0
    0.1838    0.0363    0.2367 C   0  0  1  0  0  0  0  0  0  0  0  0
    0.0488    1.0408    0.6363 H   0  0  0  0  0  0  0  0  0  0  0  0
    1.2023   -0.6963    1.1343 C   0  0  1  0  0  0  0  0  0  0  0  0
    2.1432   -0.1474    1.1009 H   0  0  0  0  0  0  0  0  0  0  0  0
    0.7789   -0.8037    2.5979 C   0  0  0  0  0  0  0  0  0  0  0  0
   -0.0893   -1.4567    2.6954 H   0  0  0  0  0  0  0  0  0  0  0  0
    1.5985   -1.2072    3.1913 H   0  0  0  0  0  0  0  0  0  0  0  0
    0.5221    0.1852    2.9787 H   0  0  0  0  0  0  0  0  0  0  0  0
    1.4346   -2.0035    0.6712 O   0  0  0  0  0  0  0  0  0  0  0  0
    1.9943   -2.4501    1.3099 H   0  0  0  0  0  0  0  0  0  0  0  0
    0.7410    0.1812   -1.1848 C   0  0  0  0  0  0  0  0  0  0  0  0
    1.0029    1.2893   -1.6524 O   0  0  0  0  0  0  0  0  0  0  0  0
    0.9538   -0.9487   -1.8738 N   0  0  0  0  0  0  0  0  0  0  0  0
    0.7380   -1.8258   -1.4292 H   0  0  0  0  0  0  0  0  0  0  0  0
    1.4806   -0.9842   -3.2372 C   0  0  0  0  0  0  0  0  0  0  0  0
    2.4128   -0.4182   -3.2878 H   0  0  0  0  0  0  0  0  0  0  0  0
    1.6684   -2.0127   -3.5461 H   0  0  0  0  0  0  0  0  0  0  0  0
    0.7618   -0.5276   -3.9209 H   0  0  0  0  0  0  0  0  0  0  0  0
  5  6  2  0  0  0  0
  5  7  1  0  0  0  0
  2  3  1  0  0  0  0
  2  4  1  0  0  0  0
  2  5  1  0  0  0  0
  1  2  1  0  0  0  0
 19 20  2  0  0  0  0
 19 21  1  0  0  0  0
 17 18  1  0  0  0  0
 13 14  1  0  0  0  0
 13 15  1  0  0  0  0
 13 16  1  0  0  0  0
 11 12  1  0  0  0  0
 11 13  1  0  0  0  0
 11 17  1  0  0  0  0
  9 10  1  0  0  0  0
  9 11  1  0  0  0  0
  9 19  1  0  0  0  0
  7  8  1  0  0  0  0
  7  9  1  0  0  0  0
 23 24  1  0  0  0  0
 23 25  1  0  0  0  0
 23 26  1  0  0  0  0
 21 22  1  0  0  0  0
 21 23  1  0  0  0  0
M  END
$$$$
default_name
  -OEChem-01062215323D

 26 25  0     1  0  0  0  0  0999 V2000
   -2.8882   -3.2497    1.2537 H   0  0  0  0  0  0  0  0  0  0  0  0
   -2.8032   -2.3157    0.7017 C   0  0  0  0  0  0  0  0  0  0  0  0
   -3.5012   -1.5857    1.1067 H   0  0  0  0  0  0  0  0  0  0  0  0
   -3.0182   -2.4907   -0.3513 H   0  0  0  0  0  0  0  0  0  0  0  0
   -1.3942   -1.7897    0.8407 C   0  0  0  0  0  0  0  0  0  0  0  0
   -0.5672   -2.4077    1.5007 O   0  0  0  0  0  0  0  0  0  0  0  0
   -1.1222   -0.6447    0.2217 N   0  0  0  0  0  0  0  0  0  0  0  0
   -1.8592   -0.1777   -0.2863 H   0  0  0  0  0  0  0  0  0  0  0  0
    0.1838    0.0363    0.2367 C   0  0  1  0  0  0  0  0  0  0  0  0
    0.0488    1.0408    0.6363 H   0  0  0  0  0  0  0  0  0  0  0  0
    1.2023   -0.6963    1.1343 C   0  0  1  0  0  0  0  0  0  0  0  0
    2.1432   -0.1474    1.1009 H   0  0  0  0  0  0  0  0  0  0  0  0
    0.7789   -0.8037    2.5979 C   0  0  0  0  0  0  0  0  0  0  0  0
   -0.0893   -1.4567    2.6954 H   0  0  0  0  0  0  0  0  0  0  0  0
    1.5985   -1.2072    3.1913 H   0  0  0  0  0  0  0  0  0  0  0  0
    0.5221    0.1852    2.9787 H   0  0  0  0  0  0  0  0  0  0  0  0
    1.4346   -2.0035    0.6712 O   0  0  0  0  0  0  0  0  0  0  0  0
    1.9943   -2.4501    1.3099 H   0  0  0  0  0  0  0  0  0  0  0  0
    0.7410    0.1812   -1.1848 C   0  0  0  0  0  0  0  0  0  0  0  0
    1.2562    1.2347   -1.5587 O   0  0  0  0  0  0  0  0  0  0  0  0
    0.6662   -0.8945   -1.9810 N   0  0  0  0  0  0  0  0  0  0  0  0
    0.2511   -1.7336   -1.6107 H   0  0  0  0  0  0  0  0  0  0  0  0
    1.1512   -0.9223   -3.3600 C   0  0  0  0  0  0  0  0  0  0  0  0
    2.1916   -0.5931   -3.3923 H   0  0  0  0  0  0  0  0  0  0  0  0
    1.0815   -1.9310   -3.7678 H   0  0  0  0  0  0  0  0  0  0  0  0
    0.5548   -0.2432   -3.9730 H   0  0  0  0  0  0  0  0  0  0  0  0
  5  6  2  0  0  0  0
  5  7  1  0  0  0  0
  2  3  1  0  0  0  0
  2  4  1  0  0  0  0
  2  5  1  0  0  0  0
  1  2  1  0  0  0  0
 19 20  2  0  0  0  0
 19 21  1  0  0  0  0
 17 18  1  0  0  0  0
 13 14  1  0  0  0  0
 13 15  1  0  0  0  0
 13 16  1  0  0  0  0
 11 12  1  0  0  0  0
 11 13  1  0  0  0  0
 11 17  1  0  0  0  0
  9 10  1  0  0  0  0
  9 11  1  0  0  0  0
  9 19  1  0  0  0  0
  7  8  1  0  0  0  0
  7  9  1  0  0  0  0
 23 24  1  0  0  0  0
 23 25  1  0  0  0  0
 23 26  1  0  0  0  0
 21 22  1  0  0  0  0
 21 23  1  0  0  0  0
M  END
$$$$
default_name
  -OEChem-01062215323D

 26 25  0     1  0  0  0  0  0999 V2000
   -2.8882   -3.2497    1.2537 H   0  0  0  0  0  0  0  0  0  0  0  0
   -2.8032   -2.3157    0.7017 C   0  0  0  0  0  0  0  0  0  0  0  0
   -3.5012   -1.5857    1.1067 H   0  0  0  0  0  0  0  0  0  0  0  0
   -3.0182   -2.4907   -0.3513 H   0  0  0  0  0  0  0  0  0  0  0  0
   -1.3942   -1.7897    0.8407 C   0  0  0  0  0  0  0  0  0  0  0  0
   -0.5672   -2.4077    1.5007 O   0  0  0  0  0  0  0  0  0  0  0  0
   -1.1222   -0.6447    0.2217 N   0  0  0  0  0  0  0  0  0  0  0  0
   -1.8592   -0.1777   -0.2863 H   0  0  0  0  0  0  0  0  0  0  0  0
    0.1838    0.0363    0.2367 C   0  0  1  0  0  0  0  0  0  0  0  0
    0.0488    1.0408    0.6363 H   0  0  0  0  0  0  0  0  0  0  0  0
    1.2023   -0.6963    1.1343 C   0  0  1  0  0  0  0  0  0  0  0  0
    2.1432   -0.1474    1.1009 H   0  0  0  0  0  0  0  0  0  0  0  0
    0.7789   -0.8037    2.5979 C   0  0  0  0  0  0  0  0  0  0  0  0
   -0.0893   -1.4567    2.6954 H   0  0  0  0  0  0  0  0  0  0  0  0
    1.5985   -1.2072    3.1913 H   0  0  0  0  0  0  0  0  0  0  0  0
    0.5221    0.1852    2.9787 H   0  0  0  0  0  0  0  0  0  0  0  0
    1.4346   -2.0035    0.6712 O   0  0  0  0  0  0  0  0  0  0  0  0
    1.9943   -2.4501    1.3099 H   0  0  0  0  0  0  0  0  0  0  0  0
    0.7410    0.1812   -1.1848 C   0  0  0  0  0  0  0  0  0  0  0  0
    1.4901    1.1124   -1.4795 O   0  0  0  0  0  0  0  0  0  0  0  0
    0.3988   -0.7631   -2.0724 N   0  0  0  0  0  0  0  0  0  0  0  0
   -0.2015   -1.5107   -1.7653 H   0  0  0  0  0  0  0  0  0  0  0  0
    0.8448   -0.7720   -3.4647 C   0  0  0  0  0  0  0  0  0  0  0  0
    1.9335   -0.6991   -3.5043 H   0  0  0  0  0  0  0  0  0  0  0  0
    0.5288   -1.6904   -3.9599 H   0  0  0  0  0  0  0  0  0  0  0  0
    0.4219    0.0860   -3.9916 H   0  0  0  0  0  0  0  0  0  0  0  0
  5  6  2  0  0  0  0
  5  7  1  0  0  0  0
  2  3  1  0  0  0  0
  2  4  1  0  0  0  0
  2  5  1  0  0  0  0
  1  2  1  0  0  0  0
 19 20  2  0  0  0  0
 19 21  1  0  0  0  0
 17 18  1  0  0  0  0
 13 14  1  0  0  0  0
 13 15  1  0  0  0  0
 13 16  1  0  0  0  0
 11 12  1  0  0  0  0
 11 13  1  0  0  0  0
 11 17  1  0  0  0  0
  9 10  1  0  0  0  0
  9 11  1  0  0  0  0
  9 19  1  0  0  0  0
  7  8  1  0  0  0  0
  7  9  1  0  0  0  0
 23 24  1  0  0  0  0
 23 25  1  0  0  0  0
 23 26  1  0  0  0  0
 21 22  1  0  0  0  0
 21 23  1  0  0  0  0
M  END
$$$$
default_name
  -OEChem-01062215323D

 26 25  0     1  0  0  0  0  0999 V2000
   -2.8882   -3.2497    1.2537 H   0  0  0  0  0  0  0  0  0  0  0  0
   -2.8032   -2.3157    0.7017 C   0  0  0  0  0  0  0  0  0  0  0  0
   -3.5012   -1.5857    1.1067 H   0  0  0  0  0  0  0  0  0  0  0  0
   -3.0182   -2.4907   -0.3513 H   0  0  0  0  0  0  0  0  0  0  0  0
   -1.3942   -1.7897    0.8407 C   0  0  0  0  0  0  0  0  0  0  0  0
   -0.5672   -2.4077    1.5007 O   0  0  0  0  0  0  0  0  0  0  0  0
   -1.1222   -0.6447    0.2217 N   0  0  0  0  0  0  0  0  0  0  0  0
   -1.8592   -0.1777   -0.2863 H   0  0  0  0  0  0  0  0  0  0  0  0
    0.1838    0.0363    0.2367 C   0  0  1  0  0  0  0  0  0  0  0  0
    0.0488    1.0408    0.6363 H   0  0  0  0  0  0  0  0  0  0  0  0
    1.2023   -0.6963    1.1343 C   0  0  1  0  0  0  0  0  0  0  0  0
    2.1432   -0.1474    1.1009 H   0  0  0  0  0  0  0  0  0  0  0  0
    0.7789   -0.8037    2.5979 C   0  0  0  0  0  0  0  0  0  0  0  0
   -0.0893   -1.4567    2.6954 H   0  0  0  0  0  0  0  0  0  0  0  0
    1.5985   -1.2072    3.1913 H   0  0  0  0  0  0  0  0  0  0  0  0
    0.5221    0.1852    2.9787 H   0  0  0  0  0  0  0  0  0  0  0  0
    1.4346   -2.0035    0.6712 O   0  0  0  0  0  0  0  0  0  0  0  0
    1.9943   -2.4501    1.3099 H   0  0  0  0  0  0  0  0  0  0  0  0
    0.7410    0.1812   -1.1848 C   0  0  0  0  0  0  0  0  0  0  0  0
    1.6886    0.9307   -1.4202 O   0  0  0  0  0  0  0  0  0  0  0  0
    0.1698   -0.5634   -2.1418 N   0  0  0  0  0  0  0  0  0  0  0  0
   -0.5890   -1.1723   -1.8827 H   0  0  0  0  0  0  0  0  0  0  0  0
    0.5824   -0.5434   -3.5443 C   0  0  0  0  0  0  0  0  0  0  0  0
    1.6559   -0.7291   -3.6161 H   0  0  0  0  0  0  0  0  0  0  0  0
    0.0479   -1.3073   -4.1093 H   0  0  0  0  0  0  0  0  0  0  0  0
    0.3720    0.4377   -3.9753 H   0  0  0  0  0  0  0  0  0  0  0  0
  5  6  2  0  0  0  0
  5  7  1  0  0  0  0
  2  3  1  0  0  0  0
  2  4  1  0  0  0  0
  2  5  1  0  0  0  0
  1  2  1  0  0  0  0
 19 20  2  0  0  0  0
 19 21  1  0  0  0  0
 17 18  1  0  0  0  0
 13 14  1  0  0  0  0
 13 15  1  0  0  0  0
 13 16  1  0  0  0  0
 11 12  1  0  0  0  0
 11 13  1  0  0  0  0
 11 17  1  0  0  0  0
  9 10  1  0  0  0  0
  9 11  1  0  0  0  0
  9 19  1  0  0  0  0
  7  8  1  0  0  0  0
  7  9  1  0  0  0  0
 23 24  1  0  0  0  0
 23 25  1  0  0  0  0
 23 26  1  0  0  0  0
 21 22  1  0  0  0  0
 21 23  1  0  0  0  0
M  END
$$$$
default_name
  -OEChem-01062215323D

 26 25  0     1  0  0  0  0  0999 V2000
   -2.8882   -3.2497    1.2537 H   0  0  0  0  0  0  0  0  0  0  0  0
   -2.8032   -2.3157    0.7017 C   0  0  0  0  0  0  0  0  0  0  0  0
   -3.5012   -1.5857    1.1067 H   0  0  0  0  0  0  0  0  0  0  0  0
   -3.0182   -2.4907   -0.3513 H   0  0  0  0  0  0  0  0  0  0  0  0
   -1.3942   -1.7897    0.8407 C   0  0  0  0  0  0  0  0  0  0  0  0
   -0.5672   -2.4077    1.5007 O   0  0  0  0  0  0  0  0  0  0  0  0
   -1.1222   -0.6447    0.2217 N   0  0  0  0  0  0  0  0  0  0  0  0
   -1.8592   -0.1777   -0.2863 H   0  0  0  0  0  0  0  0  0  0  0  0
    0.1838    0.0363    0.2367 C   0  0  1  0  0  0  0  0  0  0  0  0
    0.0488    1.0408    0.6363 H   0  0  0  0  0  0  0  0  0  0  0  0
    1.2023   -0.6963    1.1343 C   0  0  1  0  0  0  0  0  0  0  0  0
    2.1432   -0.1474    1.1009 H   0  0  0  0  0  0  0  0  0  0  0  0
    0.7789   -0.8037    2.5979 C   0  0  0  0  0  0  0  0  0  0  0  0
   -0.0893   -1.4567    2.6954 H   0  0  0  0  0  0  0  0  0  0  0  0
    1.5985   -1.2072    3.1913 H   0  0  0  0  0  0  0  0  0  0  0  0
    0.5221    0.1852    2.9787 H   0  0  0  0  0  0  0  0  0  0  0  0
    1.4346   -2.0035    0.6712 O   0  0  0  0  0  0  0  0  0  0  0  0
    1.9943   -2.4501    1.3099 H   0  0  0  0  0  0  0  0  0  0  0  0
    0.7410    0.1812   -1.1848 C   0  0  0  0  0  0  0  0  0  0  0  0
    1.8382    0.7020   -1.3849 O   0  0  0  0  0  0  0  0  0  0  0  0
   -0.0053   -0.3091   -2.1845 N   0  0  0  0  0  0  0  0  0  0  0  0
   -0.8849   -0.7414   -1.9548 H   0  0  0  0  0  0  0  0  0  0  0  0
    0.3818   -0.2522   -3.5932 C   0  0  0  0  0  0  0  0  0  0  0  0
    1.3779   -0.6809   -3.7202 H   0  0  0  0  0  0  0  0  0  0  0  0
   -0.3284   -0.8079   -4.2059 H   0  0  0  0  0  0  0  0  0  0  0  0
    0.4085    0.7878   -3.9253 H   0  0  0  0  0  0  0  0  0  0  0  0
  5  6  2  0  0  0  0
  5  7  1  0  0  0  0
  2  3  1  0  0  0  0
  2  4  1  0  0  0  0
  2  5  1  0  0  0  0
  1  2  1  0  0  0  0
 19 20  2  0  0  0  0
 19 21  1  0  0  0  0
 17 18  1  0  0  0  0
 13 14  1  0  0  0  0
 13 15  1  0  0  0  0
 13 16  1  0  0  0  0
 11 12  1  0  0  0  0
 11 13  1  0  0  0  0
 11 17  1  0  0  0  0
  9 10  1  0  0  0  0
  9 11  1  0  0  0  0
  9 19  1  0  0  0  0
  7  8  1  0  0  0  0
  7  9  1  0  0  0  0
 23 24  1  0  0  0  0
 23 25  1  0  0  0  0
 23 26  1  0  0  0  0
 21 22  1  0  0  0  0
 21 23  1  0  0  0  0
M  END
$$$$
default_name
  -OEChem-01062215323D

 26 25  0     1  0  0  0  0  0999 V2000
   -2.8882   -3.2497    1.2537 H   0  0  0  0  0  0  0  0  0  0  0  0
   -2.8032   -2.3157    0.7017 C   0  0  0  0  0  0  0  0  0  0  0  0
   -3.5012   -1.5857    1.1067 H   0  0  0  0  0  0  0  0  0  0  0  0
   -3.0182   -2.4907   -0.3513 H   0  0  0  0  0  0  0  0  0  0  0  0
   -1.3942   -1.7897    0.8407 C   0  0  0  0  0  0  0  0  0  0  0  0
   -0.5672   -2.4077    1.5007 O   0  0  0  0  0  0  0  0  0  0  0  0
   -1.1222   -0.6447    0.2217 N   0  0  0  0  0  0  0  0  0  0  0  0
   -1.8592   -0.1777   -0.2863 H   0  0  0  0  0  0  0  0  0  0  0  0
    0.1838    0.0363    0.2367 C   0  0  1  0  0  0  0  0  0  0  0  0
    0.0488    1.0408    0.6363 H   0  0  0  0  0  0  0  0  0  0  0  0
    1.2023   -0.6963    1.1343 C   0  0  1  0  0  0  0  0  0  0  0  0
    2.1432   -0.1474    1.1009 H   0  0  0  0  0  0  0  0  0  0  0  0
    0.7789   -0.8037    2.5979 C   0  0  0  0  0  0  0  0  0  0  0  0
   -0.0893   -1.4567    2.6954 H   0  0  0  0  0  0  0  0  0  0  0  0
    1.5985   -1.2072    3.1913 H   0  0  0  0  0  0  0  0  0  0  0  0
    0.5221    0.1852    2.9787 H   0  0  0  0  0  0  0  0  0  0  0  0
    1.4346   -2.0035    0.6712 O   0  0  0  0  0  0  0  0  0  0  0  0
    1.9943   -2.4501    1.3099 H   0  0  0  0  0  0  0  0  0  0  0  0
    0.7410    0.1812   -1.1848 C   0  0  0  0  0  0  0  0  0  0  0  0
    1.9287    0.4419   -1.3759 O   0  0  0  0  0  0  0  0  0  0  0  0
   -0.1143   -0.0174   -2.1975 N   0  0  0  0  0  0  0  0  0  0  0  0
   -1.0692   -0.2474   -1.9767 H   0  0  0  0  0  0  0  0  0  0  0  0
    0.2567    0.0818   -3.6082 C   0  0  0  0  0  0  0  0  0  0  0  0
    1.1184   -0.5579   -3.8094 H   0  0  0  0  0  0  0  0  0  0  0  0
   -0.5743   -0.2261   -4.2430 H   0  0  0  0  0  0  0  0  0  0  0  0
    0.5291    1.1125   -3.8450 H   0  0  0  0  0  0  0  0  0  0  0  0
  5  6  2  0  0  0  0
  5  7  1  0  0  0  0
  2  3  1  0  0  0  0
  2  4  1  0  0  0  0
  2  5  1  0  0  0  0
  1  2  1  0  0  0  0
 19 20  2  0  0  0  0
 19 21  1  0  0  0  0
 17 18  1  0  0  0  0
 13 14  1  0  0  0  0
 13 15  1  0  0  0  0
 13 16  1  0  0  0  0
 11 12  1  0  0  0  0
 11 13  1  0  0  0  0
 11 17  1  0  0  0  0
  9 10  1  0  0  0  0
  9 11  1  0  0  0  0
  9 19  1  0  0  0  0
  7  8  1  0  0  0  0
  7  9  1  0  0  0  0
 23 24  1  0  0  0  0
 23 25  1  0  0  0  0
 23 26  1  0  0  0  0
 21 22  1  0  0  0  0
 21 23  1  0  0  0  0
M  END
$$$$
default_name
  -OEChem-01062215323D

 26 25  0     1  0  0  0  0  0999 V2000
   -2.8882   -3.2497    1.2537 H   0  0  0  0  0  0  0  0  0  0  0  0
   -2.8032   -2.3157    0.7017 C   0  0  0  0  0  0  0  0  0  0  0  0
   -3.5012   -1.5857    1.1067 H   0  0  0  0  0  0  0  0  0  0  0  0
   -3.0182   -2.4907   -0.3513 H   0  0  0  0  0  0  0  0  0  0  0  0
   -1.3942   -1.7897    0.8407 C   0  0  0  0  0  0  0  0  0  0  0  0
   -0.5672   -2.4077    1.5007 O   0  0  0  0  0  0  0  0  0  0  0  0
   -1.1222   -0.6447    0.2217 N   0  0  0  0  0  0  0  0  0  0  0  0
   -1.8592   -0.1777   -0.2863 H   0  0  0  0  0  0  0  0  0  0  0  0
    0.1838    0.0363    0.2367 C   0  0  1  0  0  0  0  0  0  0  0  0
    0.0488    1.0408    0.6363 H   0  0  0  0  0  0  0  0  0  0  0  0
    1.2023   -0.6963    1.1343 C   0  0  1  0  0  0  0  0  0  0  0  0
    2.1432   -0.1474    1.1009 H   0  0  0  0  0  0  0  0  0  0  0  0
    0.7789   -0.8037    2.5979 C   0  0  0  0  0  0  0  0  0  0  0  0
   -0.0893   -1.4567    2.6954 H   0  0  0  0  0  0  0  0  0  0  0  0
    1.5985   -1.2072    3.1913 H   0  0  0  0  0  0  0  0  0  0  0  0
    0.5221    0.1852    2.9787 H   0  0  0  0  0  0  0  0  0  0  0  0
    1.4346   -2.0035    0.6712 O   0  0  0  0  0  0  0  0  0  0  0  0
    1.9943   -2.4501    1.3099 H   0  0  0  0  0  0  0  0  0  0  0  0
    0.7410    0.1812   -1.1848 C   0  0  0  0  0  0  0  0  0  0  0  0
    1.9539    0.1681   -1.3939 O   0  0  0  0  0  0  0  0  0  0  0  0
   -0.1500    0.2917   -2.1800 N   0  0  0  0  0  0  0  0  0  0  0  0
   -1.1293    0.2761   -1.9469 H   0  0  0  0  0  0  0  0  0  0  0  0
    0.2157    0.4359   -3.5883 C   0  0  0  0  0  0  0  0  0  0  0  0
    0.8950   -0.3684   -3.8776 H   0  0  0  0  0  0  0  0  0  0  0  0
   -0.6733    0.3983   -4.2182 H   0  0  0  0  0  0  0  0  0  0  0  0
    0.7253    1.3897   -3.7398 H   0  0  0  0  0  0  0  0  0  0  0  0
  5  6  2  0  0  0  0
  5  7  1  0  0  0  0
  2  3  1  0  0  0  0
  2  4  1  0  0  0  0
  2  5  1  0  0  0  0
  1  2  1  0  0  0  0
 19 20  2  0  0  0  0
 19 21  1  0  0  0  0
 17 18  1  0  0  0  0
 13 14  1  0  0  0  0
 13 15  1  0  0  0  0
 13 16  1  0  0  0  0
 11 12  1  0  0  0  0
 11 13  1  0  0  0  0
 11 17  1  0  0  0  0
  9 10  1  0  0  0  0
  9 11  1  0  0  0  0
  9 19  1  0  0  0  0
  7  8  1  0  0  0  0
  7  9  1  0  0  0  0
 23 24  1  0  0  0  0
 23 25  1  0  0  0  0
 23 26  1  0  0  0  0
 21 22  1  0  0  0  0
 21 23  1  0  0  0  0
M  END
$$$$
default_name
  -OEChem-01062215323D

 26 25  0     1  0  0  0  0  0999 V2000
   -2.8882   -3.2497    1.2537 H   0  0  0  0  0  0  0  0  0  0  0  0
   -2.8032   -2.3157    0.7017 C   0  0  0  0  0  0  0  0  0  0  0  0
   -3.5012   -1.5857    1.1067 H   0  0  0  0  0  0  0  0  0  0  0  0
   -3.0182   -2.4907   -0.3513 H   0  0  0  0  0  0  0  0  0  0  0  0
   -1.3942   -1.7897    0.8407 C   0  0  0  0  0  0  0  0  0  0  0  0
   -0.5672   -2.4077    1.5007 O   0  0  0  0  0  0  0  0  0  0  0  0
   -1.1222   -0.6447    0.2217 N   0  0  0  0  0  0  0  0  0  0  0  0
   -1.8592   -0.1777   -0.2863 H   0  0  0  0  0  0  0  0  0  0  0  0
    0.1838    0.0363    0.2367 C   0  0  1  0  0  0  0  0  0  0  0  0
    0.0488    1.0408    0.6363 H   0  0  0  0  0  0  0  0  0  0  0  0
    1.2023   -0.6963    1.1343 C   0  0  1  0  0  0  0  0  0  0  0  0
    2.1432   -0.1474    1.1009 H   0  0  0  0  0  0  0  0  0  0  0  0
    0.7789   -0.8037    2.5979 C   0  0  0  0  0  0  0  0  0  0  0  0
   -0.0893   -1.4567    2.6954 H   0  0  0  0  0  0  0  0  0  0  0  0
    1.5985   -1.2072    3.1913 H   0  0  0  0  0  0  0  0  0  0  0  0
    0.5221    0.1852    2.9787 H   0  0  0  0  0  0  0  0  0  0  0  0
    1.4346   -2.0035    0.6712 O   0  0  0  0  0  0  0  0  0  0  0  0
    1.9943   -2.4501    1.3099 H   0  0  0  0  0  0  0  0  0  0  0  0
    0.7410    0.1812   -1.1848 C   0  0  0  0  0  0  0  0  0  0  0  0
    1.9122   -0.1007   -1.4377 O   0  0  0  0  0  0  0  0  0  0  0  0
   -0.1099    0.5972   -2.1332 N   0  0  0  0  0  0  0  0  0  0  0  0
   -1.0610    0.7933   -1.8675 H   0  0  0  0  0  0  0  0  0  0  0  0
    0.2614    0.7858   -3.5347 C   0  0  0  0  0  0  0  0  0  0  0  0
    0.7230   -0.1254   -3.9202 H   0  0  0  0  0  0  0  0  0  0  0  0
   -0.6184    1.0228   -4.1331 H   0  0  0  0  0  0  0  0  0  0  0  0
    0.9840    1.6005   -3.6170 H   0  0  0  0  0  0  0  0  0  0  0  0
  5  6  2  0  0  0  0
  5  7  1  0  0  0  0
  2  3  1  0  0  0  0
  2  4  1  0  0  0  0
  2  5  1  0  0  0  0
  1  2  1  0  0  0  0
 19 20  2  0  0  0  0
 19 21  1  0  0  0  0
 17 18  1  0  0  0  0
 13 14  1  0  0  0  0
 13 15  1  0  0  0  0
 13 16  1  0  0  0  0
 11 12  1  0  0  0  0
 11 13  1  0  0  0  0
 11 17  1  0  0  0  0
  9 10  1  0  0  0  0
  9 11  1  0  0  0  0
  9 19  1  0  0  0  0
  7  8  1  0  0  0  0
  7  9  1  0  0  0  0
 23 24  1  0  0  0  0
 23 25  1  0  0  0  0
 23 26  1  0  0  0  0
 21 22  1  0  0  0  0
 21 23  1  0  0  0  0
M  END
$$$$
default_name
  -OEChem-01062215323D

 26 25  0     1  0  0  0  0  0999 V2000
   -2.8882   -3.2497    1.2537 H   0  0  0  0  0  0  0  0  0  0  0  0
   -2.8032   -2.3157    0.7017 C   0  0  0  0  0  0  0  0  0  0  0  0
   -3.5012   -1.5857    1.1067 H   0  0  0  0  0  0  0  0  0  0  0  0
   -3.0182   -2.4907   -0.3513 H   0  0  0  0  0  0  0  0  0  0  0  0
   -1.3942   -1.7897    0.8407 C   0  0  0  0  0  0  0  0  0  0  0  0
   -0.5672   -2.4077    1.5007 O   0  0  0  0  0  0  0  0  0  0  0  0
   -1.1222   -0.6447    0.2217 N   0  0  0  0  0  0  0  0  0  0  0  0
   -1.8592   -0.1777   -0.2863 H   0  0  0  0  0  0  0  0  0  0  0  0
    0.1838    0.0363    0.2367 C   0  0  1  0  0  0  0  0  0  0  0  0
    0.0488    1.0408    0.6363 H   0  0  0  0  0  0  0  0  0  0  0  0
    1.2023   -0.6963    1.1343 C   0  0  1  0  0  0  0  0  0  0  0  0
    2.1432   -0.1474    1.1009 H   0  0  0  0  0  0  0  0  0  0  0  0
    0.7789   -0.8037    2.5979 C   0  0  0  0  0  0  0  0  0  0  0  0
   -0.0893   -1.4567    2.6954 H   0  0  0  0  0  0  0  0  0  0  0  0
    1.5985   -1.2072    3.1913 H   0  0  0  0  0  0  0  0  0  0  0  0
    0.5221    0.1852    2.9787 H   0  0  0  0  0  0  0  0  0  0  0  0
    1.4346   -2.0035    0.6712 O   0  0  0  0  0  0  0  0  0  0  0  0
    1.9943   -2.4501    1.3099 H   0  0  0  0  0  0  0  0  0  0  0  0
    0.7410    0.1812   -1.1848 C   0  0  0  0  0  0  0  0  0  0  0  0
    1.8063   -0.3463   -1.5042 O   0  0  0  0  0  0  0  0  0  0  0  0
    0.0032    0.8783   -2.0602 N   0  0  0  0  0  0  0  0  0  0  0  0
   -0.8690    1.2690   -1.7437 H   0  0  0  0  0  0  0  0  0  0  0  0
    0.3909    1.1078   -3.4511 C   0  0  0  0  0  0  0  0  0  0  0  0
    0.6142    0.1546   -3.9344 H   0  0  0  0  0  0  0  0  0  0  0  0
   -0.4136    1.6049   -3.9935 H   0  0  0  0  0  0  0  0  0  0  0  0
    1.2874    1.7305   -3.4848 H   0  0  0  0  0  0  0  0  0  0  0  0
  5  6  2  0  0  0  0
  5  7  1  0  0  0  0
  2  3  1  0  0  0  0
  2  4  1  0  0  0  0
  2  5  1  0  0  0  0
  1  2  1  0  0  0  0
 19 20  2  0  0  0  0
 19 21  1  0  0  0  0
 17 18  1  0  0  0  0
 13 14  1  0  0  0  0
 13 15  1  0  0  0  0
 13 16  1  0  0  0  0
 11 12  1  0  0  0  0
 11 13  1  0  0  0  0
 11 17  1  0  0  0  0
  9 10  1  0  0  0  0
  9 11  1  0  0  0  0
  9 19  1  0  0  0  0
  7  8  1  0  0  0  0
  7  9  1  0  0  0  0
 23 24  1  0  0  0  0
 23 25  1  0  0  0  0
 23 26  1  0  0  0  0
 21 22  1  0  0  0  0
 21 23  1  0  0  0  0
M  END
$$$$
default_name
  -OEChem-01062215323D

 26 25  0     1  0  0  0  0  0999 V2000
   -2.8882   -3.2497    1.2537 H   0  0  0  0  0  0  0  0  0  0  0  0
   -2.8032   -2.3157    0.7017 C   0  0  0  0  0  0  0  0  0  0  0  0
   -3.5012   -1.5857    1.1067 H   0  0  0  0  0  0  0  0  0  0  0  0
   -3.0182   -2.4907   -0.3513 H   0  0  0  0  0  0  0  0  0  0  0  0
   -1.3942   -1.7897    0.8407 C   0  0  0  0  0  0  0  0  0  0  0  0
   -0.5672   -2.4077    1.5007 O   0  0  0  0  0  0  0  0  0  0  0  0
   -1.1222   -0.6447    0.2217 N   0  0  0  0  0  0  0  0  0  0  0  0
   -1.8592   -0.1777   -0.2863 H   0  0  0  0  0  0  0  0  0  0  0  0
    0.1838    0.0363    0.2367 C   0  0  1  0  0  0  0  0  0  0  0  0
    0.0488    1.0408    0.6363 H   0  0  0  0  0  0  0  0  0  0  0  0
    1.2023   -0.6963    1.1343 C   0  0  1  0  0  0  0  0  0  0  0  0
    2.1432   -0.1474    1.1009 H   0  0  0  0  0  0  0  0  0  0  0  0
    0.7789   -0.8037    2.5979 C   0  0  0  0  0  0  0  0  0  0  0  0
   -0.0893   -1.4567    2.6954 H   0  0  0  0  0  0  0  0  0  0  0  0
    1.5985   -1.2072    3.1913 H   0  0  0  0  0  0  0  0  0  0  0  0
    0.5221    0.1852    2.9787 H   0  0  0  0  0  0  0  0  0  0  0  0
    1.4346   -2.0035    0.6712 O   0  0  0  0  0  0  0  0  0  0  0  0
    1.9943   -2.4501    1.3099 H   0  0  0  0  0  0  0  0  0  0  0  0
    0.7410    0.1812   -1.1848 C   0  0  0  0  0  0  0  0  0  0  0  0
    1.6435   -0.5518   -1.5889 O   0  0  0  0  0  0  0  0  0  0  0  0
    0.1818    1.1158   -1.9660 N   0  0  0  0  0  0  0  0  0  0  0  0
   -0.5664    1.6708   -1.5842 H   0  0  0  0  0  0  0  0  0  0  0  0
    0.5952    1.3799   -3.3433 C   0  0  0  0  0  0  0  0  0  0  0  0
    0.5759    0.4525   -3.9190 H   0  0  0  0  0  0  0  0  0  0  0  0
   -0.0726    2.1049   -3.8089 H   0  0  0  0  0  0  0  0  0  0  0  0
    1.6149    1.7708   -3.3523 H   0  0  0  0  0  0  0  0  0  0  0  0
  5  6  2  0  0  0  0
  5  7  1  0  0  0  0
  2  3  1  0  0  0  0
  2  4  1  0  0  0  0
  2  5  1  0  0  0  0
  1  2  1  0  0  0  0
 19 20  2  0  0  0  0
 19 21  1  0  0  0  0
 17 18  1  0  0  0  0
 13 14  1  0  0  0  0
 13 15  1  0  0  0  0
 13 16  1  0  0  0  0
 11 12  1  0  0  0  0
 11 13  1  0  0  0  0
 11 17  1  0  0  0  0
  9 10  1  0  0  0  0
  9 11  1  0  0  0  0
  9 19  1  0  0  0  0
  7  8  1  0  0  0  0
  7  9  1  0  0  0  0
 23 24  1  0  0  0  0
 23 25  1  0  0  0  0
 23 26  1  0  0  0  0
 21 22  1  0  0  0  0
 21 23  1  0  0  0  0
M  END
$$$$
default_name
  -OEChem-01062215323D

 26 25  0     1  0  0  0  0  0999 V2000
   -2.8882   -3.2497    1.2537 H   0  0  0  0  0  0  0  0  0  0  0  0
   -2.8032   -2.3157    0.7017 C   0  0  0  0  0  0  0  0  0  0  0  0
   -3.5012   -1.5857    1.1067 H   0  0  0  0  0  0  0  0  0  0  0  0
   -3.0182   -2.4907   -0.3513 H   0  0  0  0  0  0  0  0  0  0  0  0
   -1.3942   -1.7897    0.8407 C   0  0  0  0  0  0  0  0  0  0  0  0
   -0.5672   -2.4077    1.5007 O   0  0  0  0  0  0  0  0  0  0  0  0
   -1.1222   -0.6447    0.2217 N   0  0  0  0  0  0  0  0  0  0  0  0
   -1.8592   -0.1777   -0.2863 H   0  0  0  0  0  0  0  0  0  0  0  0
    0.1838    0.0363    0.2367 C   0  0  1  0  0  0  0  0  0  0  0  0
    0.0488    1.0408    0.6363 H   0  0  0  0  0  0  0  0  0  0  0  0
    1.2023   -0.6963    1.1343 C   0  0  1  0  0  0  0  0  0  0  0  0
    2.1432   -0.1474    1.1009 H   0  0  0  0  0  0  0  0  0  0  0  0
    0.7789   -0.8037    2.5979 C   0  0  0  0  0  0  0  0  0  0  0  0
   -0.0893   -1.4567    2.6954 H   0  0  0  0  0  0  0  0  0  0  0  0
    1.5985   -1.2072    3.1913 H   0  0  0  0  0  0  0  0  0  0  0  0
    0.5221    0.1852    2.9787 H   0  0  0  0  0  0  0  0  0  0  0  0
    1.4346   -2.0035    0.6712 O   0  0  0  0  0  0  0  0  0  0  0  0
    1.9943   -2.4501    1.3099 H   0  0  0  0  0  0  0  0  0  0  0  0
    0.7410    0.1812   -1.1848 C   0  0  0  0  0  0  0  0  0  0  0  0
    1.4349   -0.7033   -1.6861 O   0  0  0  0  0  0  0  0  0  0  0  0
    0.4135    1.2935   -1.8571 N   0  0  0  0  0  0  0  0  0  0  0  0
   -0.1738    1.9713   -1.3997 H   0  0  0  0  0  0  0  0  0  0  0  0
    0.8605    1.5836   -3.2186 C   0  0  0  0  0  0  0  0  0  0  0  0
    0.6107    0.7480   -3.8753 H   0  0  0  0  0  0  0  0  0  0  0  0
    0.3811    2.4888   -3.5919 H   0  0  0  0  0  0  0  0  0  0  0  0
    1.9442    1.7188   -3.2286 H   0  0  0  0  0  0  0  0  0  0  0  0
  5  6  2  0  0  0  0
  5  7  1  0  0  0  0
  2  3  1  0  0  0  0
  2  4  1  0  0  0  0
  2  5  1  0  0  0  0
  1  2  1  0  0  0  0
 19 20  2  0  0  0  0
 19 21  1  0  0  0  0
 17 18  1  0  0  0  0
 13 14  1  0  0  0  0
 13 15  1  0  0  0  0
 13 16  1  0  0  0  0
 11 12  1  0  0  0  0
 11 13  1  0  0  0  0
 11 17  1  0  0  0  0
  9 10  1  0  0  0  0
  9 11  1  0  0  0  0
  9 19  1  0  0  0  0
  7  8  1  0  0  0  0
  7  9  1  0  0  0  0
 23 24  1  0  0  0  0
 23 25  1  0  0  0  0
 23 26  1  0  0  0  0
 21 22  1  0  0  0  0
 21 23  1  0  0  0  0
M  END
$$$$
default_name
  -OEChem-01062215323D

 26 25  0     1  0  0  0  0  0999 V2000
   -2.8882   -3.2497    1.2537 H   0  0  0  0  0  0  0  0  0  0  0  0
   -2.8032   -2.3157    0.7017 C   0  0  0  0  0  0  0  0  0  0  0  0
   -3.5012   -1.5857    1.1067 H   0  0  0  0  0  0  0  0  0  0  0  0
   -3.0182   -2.4907   -0.3513 H   0  0  0  0  0  0  0  0  0  0  0  0
   -1.3942   -1.7897    0.8407 C   0  0  0  0  0  0  0  0  0  0  0  0
   -0.5672   -2.4077    1.5007 O   0  0  0  0  0  0  0  0  0  0  0  0
   -1.1222   -0.6447    0.2217 N   0  0  0  0  0  0  0  0  0  0  0  0
   -1.8592   -0.1777   -0.2863 H   0  0  0  0  0  0  0  0  0  0  0  0
    0.1838    0.0363    0.2367 C   0  0  1  0  0  0  0  0  0  0  0  0
    0.0488    1.0408    0.6363 H   0  0  0  0  0  0  0  0  0  0  0  0
    1.2023   -0.6963    1.1343 C   0  0  1  0  0  0  0  0  0  0  0  0
    2.1432   -0.1474    1.1009 H   0  0  0  0  0  0  0  0  0  0  0  0
    0.7789   -0.8037    2.5979 C   0  0  0  0  0  0  0  0  0  0  0  0
   -0.0893   -1.4567    2.6954 H   0  0  0  0  0  0  0  0  0  0  0  0
    1.5985   -1.2072    3.1913 H   0  0  0  0  0  0  0  0  0  0  0  0
    0.5221    0.1852    2.9787 H   0  0  0  0  0  0  0  0  0  0  0  0
    1.4346   -2.0035    0.6712 O   0  0  0  0  0  0  0  0  0  0  0  0
    1.9943   -2.4501    1.3099 H   0  0  0  0  0  0  0  0  0  0  0  0
    0.7410    0.1812   -1.1848 C   0  0  0  0  0  0  0  0  0  0  0  0
    1.1946   -0.7905   -1.7892 O   0  0  0  0  0  0  0  0  0  0  0  0
    0.6826    1.3993   -1.7408 N   0  0  0  0  0  0  0  0  0  0  0  0
    0.2820    2.1501   -1.2028 H   0  0  0  0  0  0  0  0  0  0  0  0
    1.1687    1.7050   -3.0854 C   0  0  0  0  0  0  0  0  0  0  0  0
    0.7163    1.0209   -3.8061 H   0  0  0  0  0  0  0  0  0  0  0  0
    0.9168    2.7302   -3.3574 H   0  0  0  0  0  0  0  0  0  0  0  0
    2.2527    1.5779   -3.1220 H   0  0  0  0  0  0  0  0  0  0  0  0
  5  6  2  0  0  0  0
  5  7  1  0  0  0  0
  2  3  1  0  0  0  0
  2  4  1  0  0  0  0
  2  5  1  0  0  0  0
  1  2  1  0  0  0  0
 19 20  2  0  0  0  0
 19 21  1  0  0  0  0
 17 18  1  0  0  0  0
 13 14  1  0  0  0  0
 13 15  1  0  0  0  0
 13 16  1  0  0  0  0
 11 12  1  0  0  0  0
 11 13  1  0  0  0  0
 11 17  1  0  0  0  0
  9 10  1  0  0  0  0
  9 11  1  0  0  0  0
  9 19  1  0  0  0  0
  7  8  1  0  0  0  0
  7  9  1  0  0  0  0
 23 24  1  0  0  0  0
 23 25  1  0  0  0  0
 23 26  1  0  0  0  0
 21 22  1  0  0  0  0
 21 23  1  0  0  0  0
M  END
$$$$
default_name
  -OEChem-01062215323D

 26 25  0     1  0  0  0  0  0999 V2000
   -2.8882   -3.2497    1.2537 H   0  0  0  0  0  0  0  0  0  0  0  0
   -2.8032   -2.3157    0.7017 C   0  0  0  0  0  0  0  0  0  0  0  0
   -3.5012   -1.5857    1.1067 H   0  0  0  0  0  0  0  0  0  0  0  0
   -3.0182   -2.4907   -0.3513 H   0  0  0  0  0  0  0  0  0  0  0  0
   -1.3942   -1.7897    0.8407 C   0  0  0  0  0  0  0  0  0  0  0  0
   -0.5672   -2.4077    1.5007 O   0  0  0  0  0  0  0  0  0  0  0  0
   -1.1222   -0.6447    0.2217 N   0  0  0  0  0  0  0  0  0  0  0  0
   -1.8592   -0.1777   -0.2863 H   0  0  0  0  0  0  0  0  0  0  0  0
    0.1838    0.0363    0.2367 C   0  0  1  0  0  0  0  0  0  0  0  0
    0.0488    1.0408    0.6363 H   0  0  0  0  0  0  0  0  0  0  0  0
    1.2023   -0.6963    1.1343 C   0  0  1  0  0  0  0  0  0  0  0  0
    2.1432   -0.1474    1.1009 H   0  0  0  0  0  0  0  0  0  0  0  0
    0.7789   -0.8037    2.5979 C   0  0  0  0  0  0  0  0  0  0  0  0
   -0.0893   -1.4567    2.6954 H   0  0  0  0  0  0  0  0  0  0  0  0
    1.5985   -1.2072    3.1913 H   0  0  0  0  0  0  0  0  0  0  0  0
    0.5221    0.1852    2.9787 H   0  0  0  0  0  0  0  0  0  0  0  0
    1.4346   -2.0035    0.6712 O   0  0  0  0  0  0  0  0  0  0  0  0
    1.9943   -2.4501    1.3099 H   0  0  0  0  0  0  0  0  0  0  0  0
    0.7410    0.1812   -1.1848 C   0  0  0  0  0  0  0  0  0  0  0  0
    0.9392   -0.8074   -1.8910 O   0  0  0  0  0  0  0  0  0  0  0  0
    0.9708    1.4261   -1.6251 N   0  0  0  0  0  0  0  0  0  0  0  0
    0.7700    2.1949   -1.0070 H   0  0  0  0  0  0  0  0  0  0  0  0
    1.4987    1.7358   -2.9529 C   0  0  0  0  0  0  0  0  0  0  0  0
    0.8855    1.2527   -3.7161 H   0  0  0  0  0  0  0  0  0  0  0  0
    1.4980    2.8129   -3.1212 H   0  0  0  0  0  0  0  0  0  0  0  0
    2.5196    1.3577   -3.0398 H   0  0  0  0  0  0  0  0  0  0  0  0
  5  6  2  0  0  0  0
  5  7  1  0  0  0  0
  2  3  1  0  0  0  0
  2  4  1  0  0  0  0
  2  5  1  0  0  0  0
  1  2  1  0  0  0  0
 19 20  2  0  0  0  0
 19 21  1  0  0  0  0
 17 18  1  0  0  0  0
 13 14  1  0  0  0  0
 13 15  1  0  0  0  0
 13 16  1  0  0  0  0
 11 12  1  0  0  0  0
 11 13  1  0  0  0  0
 11 17  1  0  0  0  0
  9 10  1  0  0  0  0
  9 11  1  0  0  0  0
  9 19  1  0  0  0  0
  7  8  1  0  0  0  0
  7  9  1  0  0  0  0
 23 24  1  0  0  0  0
 23 25  1  0  0  0  0
 23 26  1  0  0  0  0
 21 22  1  0  0  0  0
 21 23  1  0  0  0  0
M  END
$$$$
default_name
  -OEChem-01062215323D

 26 25  0     1  0  0  0  0  0999 V2000
   -2.8882   -3.2497    1.2537 H   0  0  0  0  0  0  0  0  0  0  0  0
   -2.8032   -2.3157    0.7017 C   0  0  0  0  0  0  0  0  0  0  0  0
   -3.5012   -1.5857    1.1067 H   0  0  0  0  0  0  0  0  0  0  0  0
   -3.0182   -2.4907   -0.3513 H   0  0  0  0  0  0  0  0  0  0  0  0
   -1.3942   -1.7897    0.8407 C   0  0  0  0  0  0  0  0  0  0  0  0
   -0.5672   -2.4077    1.5007 O   0  0  0  0  0  0  0  0  0  0  0  0
   -1.1222   -0.6447    0.2217 N   0  0  0  0  0  0  0  0  0  0  0  0
   -1.8592   -0.1777   -0.2863 H   0  0  0  0  0  0  0  0  0  0  0  0
    0.1838    0.0363    0.2367 C   0  0  1  0  0  0  0  0  0  0  0  0
    0.0488    1.0408    0.6363 H   0  0  0  0  0  0  0  0  0  0  0  0
    1.2023   -0.6963    1.1343 C   0  0  1  0  0  0  0  0  0  0  0  0
    2.1432   -0.1474    1.1009 H   0  0  0  0  0  0  0  0  0  0  0  0
    0.7789   -0.8037    2.5979 C   0  0  0  0  0  0  0  0  0  0  0  0
   -0.0893   -1.4567    2.6954 H   0  0  0  0  0  0  0  0  0  0  0  0
    1.5985   -1.2072    3.1913 H   0  0  0  0  0  0  0  0  0  0  0  0
    0.5221    0.1852    2.9787 H   0  0  0  0  0  0  0  0  0  0  0  0
    1.4346   -2.0035    0.6712 O   0  0  0  0  0  0  0  0  0  0  0  0
    1.9943   -2.4501    1.3099 H   0  0  0  0  0  0  0  0  0  0  0  0
    0.7410    0.1812   -1.1848 C   0  0  0  0  0  0  0  0  0  0  0  0
    0.6858   -0.7528   -1.9848 O   0  0  0  0  0  0  0  0  0  0  0  0
    1.2584    1.3719   -1.5179 N   0  0  0  0  0  0  0  0  0  0  0  0
    1.2569    2.1027   -0.8256 H   0  0  0  0  0  0  0  0  0  0  0  0
    1.8282    1.6739   -2.8301 C   0  0  0  0  0  0  0  0  0  0  0  0
    1.1067    1.4276   -3.6116 H   0  0  0  0  0  0  0  0  0  0  0  0
    2.0849    2.7312   -2.8995 H   0  0  0  0  0  0  0  0  0  0  0  0
    2.7266    1.0733   -2.9877 H   0  0  0  0  0  0  0  0  0  0  0  0
  5  6  2  0  0  0  0
  5  7  1  0  0  0  0
  2  3  1  0  0  0  0
  2  4  1  0  0  0  0
  2  5  1  0  0  0  0
  1  2  1  0  0  0  0
 19 20  2  0  0  0  0
 19 21  1  0  0  0  0
 17 18  1  0  0  0  0
 13 14  1  0  0  0  0
 13 15  1  0  0  0  0
 13 16  1  0  0  0  0
 11 12  1  0  0  0  0
 11 13  1  0  0  0  0
 11 17  1  0  0  0  0
  9 10  1  0  0  0  0
  9 11  1  0  0  0  0
  9 19  1  0  0  0  0
  7  8  1  0  0  0  0
  7  9  1  0  0  0  0
 23 24  1  0  0  0  0
 23 25  1  0  0  0  0
 23 26  1  0  0  0  0
 21 22  1  0  0  0  0
 21 23  1  0  0  0  0
M  END
$$$$
default_name
  -OEChem-01062215323D

 26 25  0     1  0  0  0  0  0999 V2000
   -2.8882   -3.2497    1.2537 H   0  0  0  0  0  0  0  0  0  0  0  0
   -2.8032   -2.3157    0.7017 C   0  0  0  0  0  0  0  0  0  0  0  0
   -3.5012   -1.5857    1.1067 H   0  0  0  0  0  0  0  0  0  0  0  0
   -3.0182   -2.4907   -0.3513 H   0  0  0  0  0  0  0  0  0  0  0  0
   -1.3942   -1.7897    0.8407 C   0  0  0  0  0  0  0  0  0  0  0  0
   -0.5672   -2.4077    1.5007 O   0  0  0  0  0  0  0  0  0  0  0  0
   -1.1222   -0.6447    0.2217 N   0  0  0  0  0  0  0  0  0  0  0  0
   -1.8592   -0.1777   -0.2863 H   0  0  0  0  0  0  0  0  0  0  0  0
    0.1838    0.0363    0.2367 C   0  0  1  0  0  0  0  0  0  0  0  0
    0.0488    1.0408    0.6363 H   0  0  0  0  0  0  0  0  0  0  0  0
    1.2023   -0.6963    1.1343 C   0  0  1  0  0  0  0  0  0  0  0  0
    2.1432   -0.1474    1.1009 H   0  0  0  0  0  0  0  0  0  0  0  0
    0.7789   -0.8037    2.5979 C   0  0  0  0  0  0  0  0  0  0  0  0
   -0.0893   -1.4567    2.6954 H   0  0  0  0  0  0  0  0  0  0  0  0
    1.5985   -1.2072    3.1913 H   0  0  0  0  0  0  0  0  0  0  0  0
    0.5221    0.1852    2.9787 H   0  0  0  0  0  0  0  0  0  0  0  0
    1.4346   -2.0035    0.6712 O   0  0  0  0  0  0  0  0  0  0  0  0
    1.9943   -2.4501    1.3099 H   0  0  0  0  0  0  0  0  0  0  0  0
    0.7410    0.1812   -1.1848 C   0  0  0  0  0  0  0  0  0  0  0  0
    0.4520   -0.6305   -2.0640 O   0  0  0  0  0  0  0  0  0  0  0  0
    1.5258    1.2405   -1.4265 N   0  0  0  0  0  0  0  0  0  0  0  0
    1.7095    1.8798   -0.6709 H   0  0  0  0  0  0  0  0  0  0  0  0
    2.1345    1.5236   -2.7253 C   0  0  0  0  0  0  0  0  0  0  0  0
    1.3648    1.5336   -3.4996 H   0  0  0  0  0  0  0  0  0  0  0  0
    2.6376    2.4906   -2.7073 H   0  0  0  0  0  0  0  0  0  0  0  0
    2.8595    0.7441   -2.9691 H   0  0  0  0  0  0  0  0  0  0  0  0
  5  6  2  0  0  0  0
  5  7  1  0  0  0  0
  2  3  1  0  0  0  0
  2  4  1  0  0  0  0
  2  5  1  0  0  0  0
  1  2  1  0  0  0  0
 19 20  2  0  0  0  0
 19 21  1  0  0  0  0
 17 18  1  0  0  0  0
 13 14  1  0  0  0  0
 13 15  1  0  0  0  0
 13 16  1  0  0  0  0
 11 12  1  0  0  0  0
 11 13  1  0  0  0  0
 11 17  1  0  0  0  0
  9 10  1  0  0  0  0
  9 11  1  0  0  0  0
  9 19  1  0  0  0  0
  7  8  1  0  0  0  0
  7  9  1  0  0  0  0
 23 24  1  0  0  0  0
 23 25  1  0  0  0  0
 23 26  1  0  0  0  0
 21 22  1  0  0  0  0
 21 23  1  0  0  0  0
M  END
$$$$
default_name
  -OEChem-01062215323D

 26 25  0     1  0  0  0  0  0999 V2000
   -2.8882   -3.2497    1.2537 H   0  0  0  0  0  0  0  0  0  0  0  0
   -2.8032   -2.3157    0.7017 C   0  0  0  0  0  0  0  0  0  0  0  0
   -3.5012   -1.5857    1.1067 H   0  0  0  0  0  0  0  0  0  0  0  0
   -3.0182   -2.4907   -0.3513 H   0  0  0  0  0  0  0  0  0  0  0  0
   -1.3942   -1.7897    0.8407 C   0  0  0  0  0  0  0  0  0  0  0  0
   -0.5672   -2.4077    1.5007 O   0  0  0  0  0  0  0  0  0  0  0  0
   -1.1222   -0.6447    0.2217 N   0  0  0  0  0  0  0  0  0  0  0  0
   -1.8592   -0.1777   -0.2863 H   0  0  0  0  0  0  0  0  0  0  0  0
    0.1838    0.0363    0.2367 C   0  0  1  0  0  0  0  0  0  0  0  0
    0.0488    1.0408    0.6363 H   0  0  0  0  0  0  0  0  0  0  0  0
    1.2023   -0.6963    1.1343 C   0  0  1  0  0  0  0  0  0  0  0  0
    2.1432   -0.1474    1.1009 H   0  0  0  0  0  0  0  0  0  0  0  0
    0.7789   -0.8037    2.5979 C   0  0  0  0  0  0  0  0  0  0  0  0
   -0.0893   -1.4567    2.6954 H   0  0  0  0  0  0  0  0  0  0  0  0
    1.5985   -1.2072    3.1913 H   0  0  0  0  0  0  0  0  0  0  0  0
    0.5221    0.1852    2.9787 H   0  0  0  0  0  0  0  0  0  0  0  0
    1.4346   -2.0035    0.6712 O   0  0  0  0  0  0  0  0  0  0  0  0
    1.9943   -2.4501    1.3099 H   0  0  0  0  0  0  0  0  0  0  0  0
    0.7410    0.1812   -1.1848 C   0  0  0  0  0  0  0  0  0  0  0  0
    0.2534   -0.4488   -2.1233 O   0  0  0  0  0  0  0  0  0  0  0  0
    1.7548    1.0408   -1.3571 N   0  0  0  0  0  0  0  0  0  0  0  0
    2.0970    1.5414   -0.5535 H   0  0  0  0  0  0  0  0  0  0  0  0
    2.3969    1.2950   -2.6458 C   0  0  0  0  0  0  0  0  0  0  0  0
    1.6424    1.5636   -3.3878 H   0  0  0  0  0  0  0  0  0  0  0  0
    3.1185    2.1075   -2.5579 H   0  0  0  0  0  0  0  0  0  0  0  0
    2.9094    0.3924   -2.9854 H   0  0  0  0  0  0  0  0  0  0  0  0
  5  6  2  0  0  0  0
  5  7  1  0  0  0  0
  2  3  1  0  0  0  0
  2  4  1  0  0  0  0
  2  5  1  0  0  0  0
  1  2  1  0  0  0  0
 19 20  2  0  0  0  0
 19 21  1  0  0  0  0
 17 18  1  0  0  0  0
 13 14  1  0  0  0  0
 13 15  1  0  0  0  0
 13 16  1  0  0  0  0
 11 12  1  0  0  0  0
 11 13  1  0  0  0  0
 11 17  1  0  0  0  0
  9 10  1  0  0  0  0
  9 11  1  0  0  0  0
  9 19  1  0  0  0  0
  7  8  1  0  0  0  0
  7  9  1  0  0  0  0
 23 24  1  0  0  0  0
 23 25  1  0  0  0  0
 23 26  1  0  0  0  0
 21 22  1  0  0  0  0
 21 23  1  0  0  0  0
M  END
$$$$
default_name
  -OEChem-01062215323D

 26 25  0     1  0  0  0  0  0999 V2000
   -2.8882   -3.2497    1.2537 H   0  0  0  0  0  0  0  0  0  0  0  0
   -2.8032   -2.3157    0.7017 C   0  0  0  0  0  0  0  0  0  0  0  0
   -3.5012   -1.5857    1.1067 H   0  0  0  0  0  0  0  0  0  0  0  0
   -3.0182   -2.4907   -0.3513 H   0  0  0  0  0  0  0  0  0  0  0  0
   -1.3942   -1.7897    0.8407 C   0  0  0  0  0  0  0  0  0  0  0  0
   -0.5672   -2.4077    1.5007 O   0  0  0  0  0  0  0  0  0  0  0  0
   -1.1222   -0.6447    0.2217 N   0  0  0  0  0  0  0  0  0  0  0  0
   -1.8592   -0.1777   -0.2863 H   0  0  0  0  0  0  0  0  0  0  0  0
    0.1838    0.0363    0.2367 C   0  0  1  0  0  0  0  0  0  0  0  0
    0.1091    0.9200    0.8695 H   0  0  0  0  0  0  0  0  0  0  0  0
    1.2942   -0.8656    0.8139 C   0  0  1  0  0  0  0  0  0  0  0  0
    2.2305   -0.3081    0.7954 H   0  0  0  0  0  0  0  0  0  0  0  0
    1.0483   -1.3128    2.2536 C   0  0  0  0  0  0  0  0  0  0  0  0
    0.1907   -1.9851    2.3014 H   0  0  0  0  0  0  0  0  0  0  0  0
    1.9285   -1.8280    2.6362 H   0  0  0  0  0  0  0  0  0  0  0  0
    0.8503   -0.4419    2.8791 H   0  0  0  0  0  0  0  0  0  0  0  0
    1.4545   -2.0277    0.0387 O   0  0  0  0  0  0  0  0  0  0  0  0
    2.0817   -2.5995    0.4862 H   0  0  0  0  0  0  0  0  0  0  0  0
    0.5680    0.5125   -1.1696 C   0  0  0  0  0  0  0  0  0  0  0  0
   -0.1858    0.3347   -2.1263 O   0  0  0  0  0  0  0  0  0  0  0  0
    1.7395    1.1511   -1.2977 N   0  0  0  0  0  0  0  0  0  0  0  0
    2.3029    1.2831   -0.4739 H   0  0  0  0  0  0  0  0  0  0  0  0
    2.2510    1.6678   -2.5662 C   0  0  0  0  0  0  0  0  0  0  0  0
    1.5022    2.3119   -3.0314 H   0  0  0  0  0  0  0  0  0  0  0  0
    3.1647    2.2397   -2.4036 H   0  0  0  0  0  0  0  0  0  0  0  0
    2.4608    0.8372   -3.2435 H   0  0  0  0  0  0  0  0  0  0  0  0
  5  6  2  0  0  0  0
  5  7  1  0  0  0  0
  2  3  1  0  0  0  0
  2  4  1  0  0  0  0
  2  5  1  0  0  0  0
  1  2  1  0  0  0  0
 19 20  2  0  0  0  0
 19 21  1  0  0  0  0
 17 18  1  0  0  0  0
 13 14  1  0  0  0  0
 13 15  1  0  0  0  0
 13 16  1  0  0  0  0
 11 12  1  0  0  0  0
 11 13  1  0  0  0  0
 11 17  1  0  0  0  0
  9 10  1  0  0  0  0
  9 11  1  0  0  0  0
  9 19  1  0  0  0  0
  7  8  1  0  0  0  0
  7  9  1  0  0  0  0
 23 24  1  0  0  0  0
 23 25  1  0  0  0  0
 23 26  1  0  0  0  0
 21 22  1  0  0  0  0
 21 23  1  0  0  0  0
M  END
$$$$
default_name
  -OEChem-01062215323D

 26 25  0     1  0  0  0  0  0999 V2000
   -2.8882   -3.2497    1.2537 H   0  0  0  0  0  0  0  0  0  0  0  0
   -2.8032   -2.3157    0.7017 C   0  0  0  0  0  0  0  0  0  0  0  0
   -3.5012   -1.5857    1.1067 H   0  0  0  0  0  0  0  0  0  0  0  0
   -3.0182   -2.4907   -0.3513 H   0  0  0  0  0  0  0  0  0  0  0  0
   -1.3942   -1.7897    0.8407 C   0  0  0  0  0  0  0  0  0  0  0  0
   -0.5672   -2.4077    1.5007 O   0  0  0  0  0  0  0  0  0  0  0  0
   -1.1222   -0.6447    0.2217 N   0  0  0  0  0  0  0  0  0  0  0  0
   -1.8592   -0.1777   -0.2863 H   0  0  0  0  0  0  0  0  0  0  0  0
    0.1838    0.0363    0.2367 C   0  0  1  0  0  0  0  0  0  0  0  0
    0.1091    0.9200    0.8695 H   0  0  0  0  0  0  0  0  0  0  0  0
    1.2942   -0.8656    0.8139 C   0  0  1  0  0  0  0  0  0  0  0  0
    2.2305   -0.3081    0.7954 H   0  0  0  0  0  0  0  0  0  0  0  0
    1.0483   -1.3128    2.2536 C   0  0  0  0  0  0  0  0  0  0  0  0
    0.1907   -1.9851    2.3014 H   0  0  0  0  0  0  0  0  0  0  0  0
    1.9285   -1.8280    2.6362 H   0  0  0  0  0  0  0  0  0  0  0  0
    0.8503   -0.4419    2.8791 H   0  0  0  0  0  0  0  0  0  0  0  0
    1.4545   -2.0277    0.0387 O   0  0  0  0  0  0  0  0  0  0  0  0
    2.0817   -2.5995    0.4862 H   0  0  0  0  0  0  0  0  0  0  0  0
    0.5680    0.5125   -1.1696 C   0  0  0  0  0  0  0  0  0  0  0  0
   -0.2738    0.5884   -2.0645 O   0  0  0  0  0  0  0  0  0  0  0  0
    1.8460    0.8660   -1.3651 N   0  0  0  0  0  0  0  0  0  0  0  0
    2.4829    0.8003   -0.5882 H   0  0  0  0  0  0  0  0  0  0  0  0
    2.3732    1.3413   -2.6434 C   0  0  0  0  0  0  0  0  0  0  0  0
    1.7691    2.1761   -3.0045 H   0  0  0  0  0  0  0  0  0  0  0  0
    3.4068    1.6691   -2.5307 H   0  0  0  0  0  0  0  0  0  0  0  0
    2.3278    0.5376   -3.3813 H   0  0  0  0  0  0  0  0  0  0  0  0
  5  6  2  0  0  0  0
  5  7  1  0  0  0  0
  2  3  1  0  0  0  0
  2  4  1  0  0  0  0
  2  5  1  0  0  0  0
  1  2  1  0  0  0  0
 19 20  2  0  0  0  0
 19 21  1  0  0  0  0
 17 18  1  0  0  0  0
 13 14  1  0  0  0  0
 13 15  1  0  0  0  0
 13 16  1  0  0  0  0
 11 12  1  0  0  0  0
 11 13  1  0  0  0  0
 11 17  1  0  0  0  0
  9 10  1  0  0  0  0
  9 11  1  0  0  0  0
  9 19  1  0  0  0  0
  7  8  1  0  0  0  0
  7  9  1  0  0  0  0
 23 24  1  0  0  0  0
 23 25  1  0  0  0  0
 23 26  1  0  0  0  0
 21 22  1  0  0  0  0
 21 23  1  0  0  0  0
M  END
$$$$
default_name
  -OEChem-01062215323D

 26 25  0     1  0  0  0  0  0999 V2000
   -2.8882   -3.2497    1.2537 H   0  0  0  0  0  0  0  0  0  0  0  0
   -2.8032   -2.3157    0.7017 C   0  0  0  0  0  0  0  0  0  0  0  0
   -3.5012   -1.5857    1.1067 H   0  0  0  0  0  0  0  0  0  0  0  0
   -3.0182   -2.4907   -0.3513 H   0  0  0  0  0  0  0  0  0  0  0  0
   -1.3942   -1.7897    0.8407 C   0  0  0  0  0  0  0  0  0  0  0  0
   -0.5672   -2.4077    1.5007 O   0  0  0  0  0  0  0  0  0  0  0  0
   -1.1222   -0.6447    0.2217 N   0  0  0  0  0  0  0  0  0  0  0  0
   -1.8592   -0.1777   -0.2863 H   0  0  0  0  0  0  0  0  0  0  0  0
    0.1838    0.0363    0.2367 C   0  0  1  0  0  0  0  0  0  0  0  0
    0.1091    0.9200    0.8695 H   0  0  0  0  0  0  0  0  0  0  0  0
    1.2942   -0.8656    0.8139 C   0  0  1  0  0  0  0  0  0  0  0  0
    2.2305   -0.3081    0.7954 H   0  0  0  0  0  0  0  0  0  0  0  0
    1.0483   -1.3128    2.2536 C   0  0  0  0  0  0  0  0  0  0  0  0
    0.1907   -1.9851    2.3014 H   0  0  0  0  0  0  0  0  0  0  0  0
    1.9285   -1.8280    2.6362 H   0  0  0  0  0  0  0  0  0  0  0  0
    0.8503   -0.4419    2.8791 H   0  0  0  0  0  0  0  0  0  0  0  0
    1.4545   -2.0277    0.0387 O   0  0  0  0  0  0  0  0  0  0  0  0
    2.0817   -2.5995    0.4862 H   0  0  0  0  0  0  0  0  0  0  0  0
    0.5680    0.5125   -1.1696 C   0  0  0  0  0  0  0  0  0  0  0  0
   -0.2936    0.8504   -1.9812 O   0  0  0  0  0  0  0  0  0  0  0  0
    1.8759    0.5698   -1.4573 N   0  0  0  0  0  0  0  0  0  0  0  0
    2.5330    0.2987   -0.7444 H   0  0  0  0  0  0  0  0  0  0  0  0
    2.4075    1.0020   -2.7489 C   0  0  0  0  0  0  0  0  0  0  0  0
    1.9969    1.9797   -3.0087 H   0  0  0  0  0  0  0  0  0  0  0  0
    3.4949    1.0687   -2.7099 H   0  0  0  0  0  0  0  0  0  0  0  0
    2.1172    0.2887   -3.5231 H   0  0  0  0  0  0  0  0  0  0  0  0
  5  6  2  0  0  0  0
  5  7  1  0  0  0  0
  2  3  1  0  0  0  0
  2  4  1  0  0  0  0
  2  5  1  0  0  0  0
  1  2  1  0  0  0  0
 19 20  2  0  0  0  0
 19 21  1  0  0  0  0
 17 18  1  0  0  0  0
 13 14  1  0  0  0  0
 13 15  1  0  0  0  0
 13 16  1  0  0  0  0
 11 12  1  0  0  0  0
 11 13  1  0  0  0  0
 11 17  1  0  0  0  0
  9 10  1  0  0  0  0
  9 11  1  0  0  0  0
  9 19  1  0  0  0  0
  7  8  1  0  0  0  0
  7  9  1  0  0  0  0
 23 24  1  0  0  0  0
 23 25  1  0  0  0  0
 23 26  1  0  0  0  0
 21 22  1  0  0  0  0
 21 23  1  0  0  0  0
M  END
$$$$
default_name
  -OEChem-01062215323D

 26 25  0     1  0  0  0  0  0999 V2000
   -2.8882   -3.2497    1.2537 H   0  0  0  0  0  0  0  0  0  0  0  0
   -2.8032   -2.3157    0.7017 C   0  0  0  0  0  0  0  0  0  0  0  0
   -3.5012   -1.5857    1.1067 H   0  0  0  0  0  0  0  0  0  0  0  0
   -3.0182   -2.4907   -0.3513 H   0  0  0  0  0  0  0  0  0  0  0  0
   -1.3942   -1.7897    0.8407 C   0  0  0  0  0  0  0  0  0  0  0  0
   -0.5672   -2.4077    1.5007 O   0  0  0  0  0  0  0  0  0  0  0  0
   -1.1222   -0.6447    0.2217 N   0  0  0  0  0  0  0  0  0  0  0  0
   -1.8592   -0.1777   -0.2863 H   0  0  0  0  0  0  0  0  0  0  0  0
    0.1838    0.0363    0.2367 C   0  0  1  0  0  0  0  0  0  0  0  0
    0.1091    0.9200    0.8695 H   0  0  0  0  0  0  0  0  0  0  0  0
    1.2942   -0.8656    0.8139 C   0  0  1  0  0  0  0  0  0  0  0  0
    2.2305   -0.3081    0.7954 H   0  0  0  0  0  0  0  0  0  0  0  0
    1.0483   -1.3128    2.2536 C   0  0  0  0  0  0  0  0  0  0  0  0
    0.1907   -1.9851    2.3014 H   0  0  0  0  0  0  0  0  0  0  0  0
    1.9285   -1.8280    2.6362 H   0  0  0  0  0  0  0  0  0  0  0  0
    0.8503   -0.4419    2.8791 H   0  0  0  0  0  0  0  0  0  0  0  0
    1.4545   -2.0277    0.0387 O   0  0  0  0  0  0  0  0  0  0  0  0
    2.0817   -2.5995    0.4862 H   0  0  0  0  0  0  0  0  0  0  0  0
    0.5680    0.5125   -1.1696 C   0  0  0  0  0  0  0  0  0  0  0  0
   -0.2439    1.1027   -1.8822 O   0  0  0  0  0  0  0  0  0  0  0  0
    1.8270    0.2825   -1.5679 N   0  0  0  0  0  0  0  0  0  0  0  0
    2.4498   -0.1875   -0.9317 H   0  0  0  0  0  0  0  0  0  0  0  0
    2.3517    0.6730   -2.8755 C   0  0  0  0  0  0  0  0  0  0  0  0
    2.1700    1.7363   -3.0439 H   0  0  0  0  0  0  0  0  0  0  0  0
    3.4232    0.4795   -2.9290 H   0  0  0  0  0  0  0  0  0  0  0  0
    1.8433    0.1074   -3.6593 H   0  0  0  0  0  0  0  0  0  0  0  0
  5  6  2  0  0  0  0
  5  7  1  0  0  0  0
  2  3  1  0  0  0  0
  2  4  1  0  0  0  0
  2  5  1  0  0  0  0
  1  2  1  0  0  0  0
 19 20  2  0  0  0  0
 19 21  1  0  0  0  0
 17 18  1  0  0  0  0
 13 14  1  0  0  0  0
 13 15  1  0  0  0  0
 13 16  1  0  0  0  0
 11 12  1  0  0  0  0
 11 13  1  0  0  0  0
 11 17  1  0  0  0  0
  9 10  1  0  0  0  0
  9 11  1  0  0  0  0
  9 19  1  0  0  0  0
  7  8  1  0  0  0  0
  7  9  1  0  0  0  0
 23 24  1  0  0  0  0
 23 25  1  0  0  0  0
 23 26  1  0  0  0  0
 21 22  1  0  0  0  0
 21 23  1  0  0  0  0
M  END
$$$$
default_name
  -OEChem-01062215323D

 26 25  0     1  0  0  0  0  0999 V2000
   -2.8882   -3.2497    1.2537 H   0  0  0  0  0  0  0  0  0  0  0  0
   -2.8032   -2.3157    0.7017 C   0  0  0  0  0  0  0  0  0  0  0  0
   -3.5012   -1.5857    1.1067 H   0  0  0  0  0  0  0  0  0  0  0  0
   -3.0182   -2.4907   -0.3513 H   0  0  0  0  0  0  0  0  0  0  0  0
   -1.3942   -1.7897    0.8407 C   0  0  0  0  0  0  0  0  0  0  0  0
   -0.5672   -2.4077    1.5007 O   0  0  0  0  0  0  0  0  0  0  0  0
   -1.1222   -0.6447    0.2217 N   0  0  0  0  0  0  0  0  0  0  0  0
   -1.8592   -0.1777   -0.2863 H   0  0  0  0  0  0  0  0  0  0  0  0
    0.1838    0.0363    0.2367 C   0  0  1  0  0  0  0  0  0  0  0  0
    0.1091    0.9200    0.8695 H   0  0  0  0  0  0  0  0  0  0  0  0
    1.2942   -0.8656    0.8139 C   0  0  1  0  0  0  0  0  0  0  0  0
    2.2305   -0.3081    0.7954 H   0  0  0  0  0  0  0  0  0  0  0  0
    1.0483   -1.3128    2.2536 C   0  0  0  0  0  0  0  0  0  0  0  0
    0.1907   -1.9851    2.3014 H   0  0  0  0  0  0  0  0  0  0  0  0
    1.9285   -1.8280    2.6362 H   0  0  0  0  0  0  0  0  0  0  0  0
    0.8503   -0.4419    2.8791 H   0  0  0  0  0  0  0  0  0  0  0  0
    1.4545   -2.0277    0.0387 O   0  0  0  0  0  0  0  0  0  0  0  0
    2.0817   -2.5995    0.4862 H   0  0  0  0  0  0  0  0  0  0  0  0
    0.5680    0.5125   -1.1696 C   0  0  0  0  0  0  0  0  0  0  0  0
   -0.1280    1.3281   -1.7742 O   0  0  0  0  0  0  0  0  0  0  0  0
    1.7027    0.0239   -1.6895 N   0  0  0  0  0  0  0  0  0  0  0  0
    2.2389   -0.6253   -1.1376 H   0  0  0  0  0  0  0  0  0  0  0  0
    2.2095    0.3766   -3.0147 C   0  0  0  0  0  0  0  0  0  0  0  0
    2.2765    1.4624   -3.1075 H   0  0  0  0  0  0  0  0  0  0  0  0
    3.1965   -0.0584   -3.1731 H   0  0  0  0  0  0  0  0  0  0  0  0
    1.5248    0.0062   -3.7806 H   0  0  0  0  0  0  0  0  0  0  0  0
  5  6  2  0  0  0  0
  5  7  1  0  0  0  0
  2  3  1  0  0  0  0
  2  4  1  0  0  0  0
  2  5  1  0  0  0  0
  1  2  1  0  0  0  0
 19 20  2  0  0  0  0
 19 21  1  0  0  0  0
 17 18  1  0  0  0  0
 13 14  1  0  0  0  0
 13 15  1  0  0  0  0
 13 16  1  0  0  0  0
 11 12  1  0  0  0  0
 11 13  1  0  0  0  0
 11 17  1  0  0  0  0
  9 10  1  0  0  0  0
  9 11  1  0  0  0  0
  9 19  1  0  0  0  0
  7  8  1  0  0  0  0
  7  9  1  0  0  0  0
 23 24  1  0  0  0  0
 23 25  1  0  0  0  0
 23 26  1  0  0  0  0
 21 22  1  0  0  0  0
 21 23  1  0  0  0  0
M  END
$$$$
default_name
  -OEChem-01062215323D

 26 25  0     1  0  0  0  0  0999 V2000
   -2.8882   -3.2497    1.2537 H   0  0  0  0  0  0  0  0  0  0  0  0
   -2.8032   -2.3157    0.7017 C   0  0  0  0  0  0  0  0  0  0  0  0
   -3.5012   -1.5857    1.1067 H   0  0  0  0  0  0  0  0  0  0  0  0
   -3.0182   -2.4907   -0.3513 H   0  0  0  0  0  0  0  0  0  0  0  0
   -1.3942   -1.7897    0.8407 C   0  0  0  0  0  0  0  0  0  0  0  0
   -0.5672   -2.4077    1.5007 O   0  0  0  0  0  0  0  0  0  0  0  0
   -1.1222   -0.6447    0.2217 N   0  0  0  0  0  0  0  0  0  0  0  0
   -1.8592   -0.1777   -0.2863 H   0  0  0  0  0  0  0  0  0  0  0  0
    0.1838    0.0363    0.2367 C   0  0  1  0  0  0  0  0  0  0  0  0
    0.1091    0.9200    0.8695 H   0  0  0  0  0  0  0  0  0  0  0  0
    1.2942   -0.8656    0.8139 C   0  0  1  0  0  0  0  0  0  0  0  0
    2.2305   -0.3081    0.7954 H   0  0  0  0  0  0  0  0  0  0  0  0
    1.0483   -1.3128    2.2536 C   0  0  0  0  0  0  0  0  0  0  0  0
    0.1907   -1.9851    2.3014 H   0  0  0  0  0  0  0  0  0  0  0  0
    1.9285   -1.8280    2.6362 H   0  0  0  0  0  0  0  0  0  0  0  0
    0.8503   -0.4419    2.8791 H   0  0  0  0  0  0  0  0  0  0  0  0
    1.4545   -2.0277    0.0387 O   0  0  0  0  0  0  0  0  0  0  0  0
    2.0817   -2.5995    0.4862 H   0  0  0  0  0  0  0  0  0  0  0  0
    0.5680    0.5125   -1.1696 C   0  0  0  0  0  0  0  0  0  0  0  0
    0.0461    1.5114   -1.6645 O   0  0  0  0  0  0  0  0  0  0  0  0
    1.5115   -0.1886   -1.8136 N   0  0  0  0  0  0  0  0  0  0  0  0
    1.9148   -0.9848   -1.3479 H   0  0  0  0  0  0  0  0  0  0  0  0
    1.9906    0.1331   -3.1570 C   0  0  0  0  0  0  0  0  0  0  0  0
    2.3094    1.1766   -3.1953 H   0  0  0  0  0  0  0  0  0  0  0  0
    2.8302   -0.5083   -3.4255 H   0  0  0  0  0  0  0  0  0  0  0  0
    1.1833   -0.0081   -3.8787 H   0  0  0  0  0  0  0  0  0  0  0  0
  5  6  2  0  0  0  0
  5  7  1  0  0  0  0
  2  3  1  0  0  0  0
  2  4  1  0  0  0  0
  2  5  1  0  0  0  0
  1  2  1  0  0  0  0
 19 20  2  0  0  0  0
 19 21  1  0  0  0  0
 17 18  1  0  0  0  0
 13 14  1  0  0  0  0
 13 15  1  0  0  0  0
 13 16  1  0  0  0  0
 11 12  1  0  0  0  0
 11 13  1  0  0  0  0
 11 17  1  0  0  0  0
  9 10  1  0  0  0  0
  9 11  1  0  0  0  0
  9 19  1  0  0  0  0
  7  8  1  0  0  0  0
  7  9  1  0  0  0  0
 23 24  1  0  0  0  0
 23 25  1  0  0  0  0
 23 26  1  0  0  0  0
 21 22  1  0  0  0  0
 21 23  1  0  0  0  0
M  END
$$$$
default_name
  -OEChem-01062215323D

 26 25  0     1  0  0  0  0  0999 V2000
   -2.8882   -3.2497    1.2537 H   0  0  0  0  0  0  0  0  0  0  0  0
   -2.8032   -2.3157    0.7017 C   0  0  0  0  0  0  0  0  0  0  0  0
   -3.5012   -1.5857    1.1067 H   0  0  0  0  0  0  0  0  0  0  0  0
   -3.0182   -2.4907   -0.3513 H   0  0  0  0  0  0  0  0  0  0  0  0
   -1.3942   -1.7897    0.8407 C   0  0  0  0  0  0  0  0  0  0  0  0
   -0.5672   -2.4077    1.5007 O   0  0  0  0  0  0  0  0  0  0  0  0
   -1.1222   -0.6447    0.2217 N   0  0  0  0  0  0  0  0  0  0  0  0
   -1.8592   -0.1777   -0.2863 H   0  0  0  0  0  0  0  0  0  0  0  0
    0.1838    0.0363    0.2367 C   0  0  1  0  0  0  0  0  0  0  0  0
    0.1091    0.9200    0.8695 H   0  0  0  0  0  0  0  0  0  0  0  0
    1.2942   -0.8656    0.8139 C   0  0  1  0  0  0  0  0  0  0  0  0
    2.2305   -0.3081    0.7954 H   0  0  0  0  0  0  0  0  0  0  0  0
    1.0483   -1.3128    2.2536 C   0  0  0  0  0  0  0  0  0  0  0  0
    0.1907   -1.9851    2.3014 H   0  0  0  0  0  0  0  0  0  0  0  0
    1.9285   -1.8280    2.6362 H   0  0  0  0  0  0  0  0  0  0  0  0
    0.8503   -0.4419    2.8791 H   0  0  0  0  0  0  0  0  0  0  0  0
    1.4545   -2.0277    0.0387 O   0  0  0  0  0  0  0  0  0  0  0  0
    2.0817   -2.5995    0.4862 H   0  0  0  0  0  0  0  0  0  0  0  0
    0.5680    0.5125   -1.1696 C   0  0  0  0  0  0  0  0  0  0  0  0
    0.2666    1.6401   -1.5607 O   0  0  0  0  0  0  0  0  0  0  0  0
    1.2664   -0.3405   -1.9320 N   0  0  0  0  0  0  0  0  0  0  0  0
    1.4996   -1.2415   -1.5482 H   0  0  0  0  0  0  0  0  0  0  0  0
    1.7100   -0.0409   -3.2926 C   0  0  0  0  0  0  0  0  0  0  0  0
    2.2662    0.8985   -3.3013 H   0  0  0  0  0  0  0  0  0  0  0  0
    2.3494   -0.8396   -3.6691 H   0  0  0  0  0  0  0  0  0  0  0  0
    0.8422    0.0654   -3.9470 H   0  0  0  0  0  0  0  0  0  0  0  0
  5  6  2  0  0  0  0
  5  7  1  0  0  0  0
  2  3  1  0  0  0  0
  2  4  1  0  0  0  0
  2  5  1  0  0  0  0
  1  2  1  0  0  0  0
 19 20  2  0  0  0  0
 19 21  1  0  0  0  0
 17 18  1  0  0  0  0
 13 14  1  0  0  0  0
 13 15  1  0  0  0  0
 13 16  1  0  0  0  0
 11 12  1  0  0  0  0
 11 13  1  0  0  0  0
 11 17  1  0  0  0  0
  9 10  1  0  0  0  0
  9 11  1  0  0  0  0
  9 19  1  0  0  0  0
  7  8  1  0  0  0  0
  7  9  1  0  0  0  0
 23 24  1  0  0  0  0
 23 25  1  0  0  0  0
 23 26  1  0  0  0  0
 21 22  1  0  0  0  0
 21 23  1  0  0  0  0
M  END
$$$$
default_name
  -OEChem-01062215323D

 26 25  0     1  0  0  0  0  0999 V2000
   -2.8882   -3.2497    1.2537 H   0  0  0  0  0  0  0  0  0  0  0  0
   -2.8032   -2.3157    0.7017 C   0  0  0  0  0  0  0  0  0  0  0  0
   -3.5012   -1.5857    1.1067 H   0  0  0  0  0  0  0  0  0  0  0  0
   -3.0182   -2.4907   -0.3513 H   0  0  0  0  0  0  0  0  0  0  0  0
   -1.3942   -1.7897    0.8407 C   0  0  0  0  0  0  0  0  0  0  0  0
   -0.5672   -2.4077    1.5007 O   0  0  0  0  0  0  0  0  0  0  0  0
   -1.1222   -0.6447    0.2217 N   0  0  0  0  0  0  0  0  0  0  0  0
   -1.8592   -0.1777   -0.2863 H   0  0  0  0  0  0  0  0  0  0  0  0
    0.1838    0.0363    0.2367 C   0  0  1  0  0  0  0  0  0  0  0  0
    0.1091    0.9200    0.8695 H   0  0  0  0  0  0  0  0  0  0  0  0
    1.2942   -0.8656    0.8139 C   0  0  1  0  0  0  0  0  0  0  0  0
    2.2305   -0.3081    0.7954 H   0  0  0  0  0  0  0  0  0  0  0  0
    1.0483   -1.3128    2.2536 C   0  0  0  0  0  0  0  0  0  0  0  0
    0.1907   -1.9851    2.3014 H   0  0  0  0  0  0  0  0  0  0  0  0
    1.9285   -1.8280    2.6362 H   0  0  0  0  0  0  0  0  0  0  0  0
    0.8503   -0.4419    2.8791 H   0  0  0  0  0  0  0  0  0  0  0  0
    1.4545   -2.0277    0.0387 O   0  0  0  0  0  0  0  0  0  0  0  0
    2.0817   -2.5995    0.4862 H   0  0  0  0  0  0  0  0  0  0  0  0
    0.5680    0.5125   -1.1696 C   0  0  0  0  0  0  0  0  0  0  0  0
    0.5184    1.7052   -1.4699 O   0  0  0  0  0  0  0  0  0  0  0  0
    0.9841   -0.4213   -2.0365 N   0  0  0  0  0  0  0  0  0  0  0  0
    1.0215   -1.3779   -1.7250 H   0  0  0  0  0  0  0  0  0  0  0  0
    1.3867   -0.1337   -3.4123 C   0  0  0  0  0  0  0  0  0  0  0  0
    2.1500    0.6470   -3.4182 H   0  0  0  0  0  0  0  0  0  0  0  0
    1.7867   -1.0297   -3.8871 H   0  0  0  0  0  0  0  0  0  0  0  0
    0.5247    0.2219   -3.9808 H   0  0  0  0  0  0  0  0  0  0  0  0
  5  6  2  0  0  0  0
  5  7  1  0  0  0  0
  2  3  1  0  0  0  0
  2  4  1  0  0  0  0
  2  5  1  0  0  0  0
  1  2  1  0  0  0  0
 19 20  2  0  0  0  0
 19 21  1  0  0  0  0
 17 18  1  0  0  0  0
 13 14  1  0  0  0  0
 13 15  1  0  0  0  0
 13 16  1  0  0  0  0
 11 12  1  0  0  0  0
 11 13  1  0  0  0  0
 11 17  1  0  0  0  0
  9 10  1  0  0  0  0
  9 11  1  0  0  0  0
  9 19  1  0  0  0  0
  7  8  1  0  0  0  0
  7  9  1  0  0  0  0
 23 24  1  0  0  0  0
 23 25  1  0  0  0  0
 23 26  1  0  0  0  0
 21 22  1  0  0  0  0
 21 23  1  0  0  0  0
M  END
$$$$
default_name
  -OEChem-01062215323D

 26 25  0     1  0  0  0  0  0999 V2000
   -2.8882   -3.2497    1.2537 H   0  0  0  0  0  0  0  0  0  0  0  0
   -2.8032   -2.3157    0.7017 C   0  0  0  0  0  0  0  0  0  0  0  0
   -3.5012   -1.5857    1.1067 H   0  0  0  0  0  0  0  0  0  0  0  0
   -3.0182   -2.4907   -0.3513 H   0  0  0  0  0  0  0  0  0  0  0  0
   -1.3942   -1.7897    0.8407 C   0  0  0  0  0  0  0  0  0  0  0  0
   -0.5672   -2.4077    1.5007 O   0  0  0  0  0  0  0  0  0  0  0  0
   -1.1222   -0.6447    0.2217 N   0  0  0  0  0  0  0  0  0  0  0  0
   -1.8592   -0.1777   -0.2863 H   0  0  0  0  0  0  0  0  0  0  0  0
    0.1838    0.0363    0.2367 C   0  0  1  0  0  0  0  0  0  0  0  0
    0.1091    0.9200    0.8695 H   0  0  0  0  0  0  0  0  0  0  0  0
    1.2942   -0.8656    0.8139 C   0  0  1  0  0  0  0  0  0  0  0  0
    2.2305   -0.3081    0.7954 H   0  0  0  0  0  0  0  0  0  0  0  0
    1.0483   -1.3128    2.2536 C   0  0  0  0  0  0  0  0  0  0  0  0
    0.1907   -1.9851    2.3014 H   0  0  0  0  0  0  0  0  0  0  0  0
    1.9285   -1.8280    2.6362 H   0  0  0  0  0  0  0  0  0  0  0  0
    0.8503   -0.4419    2.8791 H   0  0  0  0  0  0  0  0  0  0  0  0
    1.4545   -2.0277    0.0387 O   0  0  0  0  0  0  0  0  0  0  0  0
    2.0817   -2.5995    0.4862 H   0  0  0  0  0  0  0  0  0  0  0  0
    0.5680    0.5125   -1.1696 C   0  0  0  0  0  0  0  0  0  0  0  0
    0.7845    1.7025   -1.3981 O   0  0  0  0  0  0  0  0  0  0  0  0
    0.6838   -0.4255   -2.1200 N   0  0  0  0  0  0  0  0  0  0  0  0
    0.5130   -1.3847   -1.8662 H   0  0  0  0  0  0  0  0  0  0  0  0
    1.0428   -0.1387   -3.5080 C   0  0  0  0  0  0  0  0  0  0  0  0
    1.9686    0.4392   -3.5381 H   0  0  0  0  0  0  0  0  0  0  0  0
    1.1805   -1.0657   -4.0649 H   0  0  0  0  0  0  0  0  0  0  0  0
    0.2524    0.4505   -3.9777 H   0  0  0  0  0  0  0  0  0  0  0  0
  5  6  2  0  0  0  0
  5  7  1  0  0  0  0
  2  3  1  0  0  0  0
  2  4  1  0  0  0  0
  2  5  1  0  0  0  0
  1  2  1  0  0  0  0
 19 20  2  0  0  0  0
 19 21  1  0  0  0  0
 17 18  1  0  0  0  0
 13 14  1  0  0  0  0
 13 15  1  0  0  0  0
 13 16  1  0  0  0  0
 11 12  1  0  0  0  0
 11 13  1  0  0  0  0
 11 17  1  0  0  0  0
  9 10  1  0  0  0  0
  9 11  1  0  0  0  0
  9 19  1  0  0  0  0
  7  8  1  0  0  0  0
  7  9  1  0  0  0  0
 23 24  1  0  0  0  0
 23 25  1  0  0  0  0
 23 26  1  0  0  0  0
 21 22  1  0  0  0  0
 21 23  1  0  0  0  0
M  END
$$$$
default_name
  -OEChem-01062215323D

 26 25  0     1  0  0  0  0  0999 V2000
   -2.8882   -3.2497    1.2537 H   0  0  0  0  0  0  0  0  0  0  0  0
   -2.8032   -2.3157    0.7017 C   0  0  0  0  0  0  0  0  0  0  0  0
   -3.5012   -1.5857    1.1067 H   0  0  0  0  0  0  0  0  0  0  0  0
   -3.0182   -2.4907   -0.3513 H   0  0  0  0  0  0  0  0  0  0  0  0
   -1.3942   -1.7897    0.8407 C   0  0  0  0  0  0  0  0  0  0  0  0
   -0.5672   -2.4077    1.5007 O   0  0  0  0  0  0  0  0  0  0  0  0
   -1.1222   -0.6447    0.2217 N   0  0  0  0  0  0  0  0  0  0  0  0
   -1.8592   -0.1777   -0.2863 H   0  0  0  0  0  0  0  0  0  0  0  0
    0.1838    0.0363    0.2367 C   0  0  1  0  0  0  0  0  0  0  0  0
    0.1091    0.9200    0.8695 H   0  0  0  0  0  0  0  0  0  0  0  0
    1.2942   -0.8656    0.8139 C   0  0  1  0  0  0  0  0  0  0  0  0
    2.2305   -0.3081    0.7954 H   0  0  0  0  0  0  0  0  0  0  0  0
    1.0483   -1.3128    2.2536 C   0  0  0  0  0  0  0  0  0  0  0  0
    0.1907   -1.9851    2.3014 H   0  0  0  0  0  0  0  0  0  0  0  0
    1.9285   -1.8280    2.6362 H   0  0  0  0  0  0  0  0  0  0  0  0
    0.8503   -0.4419    2.8791 H   0  0  0  0  0  0  0  0  0  0  0  0
    1.4545   -2.0277    0.0387 O   0  0  0  0  0  0  0  0  0  0  0  0
    2.0817   -2.5995    0.4862 H   0  0  0  0  0  0  0  0  0  0  0  0
    0.5680    0.5125   -1.1696 C   0  0  0  0  0  0  0  0  0  0  0  0
    1.0465    1.6321   -1.3503 O   0  0  0  0  0  0  0  0  0  0  0  0
    0.3861   -0.3530   -2.1767 N   0  0  0  0  0  0  0  0  0  0  0  0
    0.0090   -1.2614   -1.9622 H   0  0  0  0  0  0  0  0  0  0  0  0
    0.7017   -0.0558   -3.5731 C   0  0  0  0  0  0  0  0  0  0  0  0
    1.7345    0.2893   -3.6528 H   0  0  0  0  0  0  0  0  0  0  0  0
    0.5722   -0.9450   -4.1902 H   0  0  0  0  0  0  0  0  0  0  0  0
    0.0439    0.7358   -3.9381 H   0  0  0  0  0  0  0  0  0  0  0  0
  5  6  2  0  0  0  0
  5  7  1  0  0  0  0
  2  3  1  0  0  0  0
  2  4  1  0  0  0  0
  2  5  1  0  0  0  0
  1  2  1  0  0  0  0
 19 20  2  0  0  0  0
 19 21  1  0  0  0  0
 17 18  1  0  0  0  0
 13 14  1  0  0  0  0
 13 15  1  0  0  0  0
 13 16  1  0  0  0  0
 11 12  1  0  0  0  0
 11 13  1  0  0  0  0
 11 17  1  0  0  0  0
  9 10  1  0  0  0  0
  9 11  1  0  0  0  0
  9 19  1  0  0  0  0
  7  8  1  0  0  0  0
  7  9  1  0  0  0  0
 23 24  1  0  0  0  0
 23 25  1  0  0  0  0
 23 26  1  0  0  0  0
 21 22  1  0  0  0  0
 21 23  1  0  0  0  0
M  END
$$$$
default_name
  -OEChem-01062215323D

 26 25  0     1  0  0  0  0  0999 V2000
   -2.8882   -3.2497    1.2537 H   0  0  0  0  0  0  0  0  0  0  0  0
   -2.8032   -2.3157    0.7017 C   0  0  0  0  0  0  0  0  0  0  0  0
   -3.5012   -1.5857    1.1067 H   0  0  0  0  0  0  0  0  0  0  0  0
   -3.0182   -2.4907   -0.3513 H   0  0  0  0  0  0  0  0  0  0  0  0
   -1.3942   -1.7897    0.8407 C   0  0  0  0  0  0  0  0  0  0  0  0
   -0.5672   -2.4077    1.5007 O   0  0  0  0  0  0  0  0  0  0  0  0
   -1.1222   -0.6447    0.2217 N   0  0  0  0  0  0  0  0  0  0  0  0
   -1.8592   -0.1777   -0.2863 H   0  0  0  0  0  0  0  0  0  0  0  0
    0.1838    0.0363    0.2367 C   0  0  1  0  0  0  0  0  0  0  0  0
    0.1091    0.9200    0.8695 H   0  0  0  0  0  0  0  0  0  0  0  0
    1.2942   -0.8656    0.8139 C   0  0  1  0  0  0  0  0  0  0  0  0
    2.2305   -0.3081    0.7954 H   0  0  0  0  0  0  0  0  0  0  0  0
    1.0483   -1.3128    2.2536 C   0  0  0  0  0  0  0  0  0  0  0  0
    0.1907   -1.9851    2.3014 H   0  0  0  0  0  0  0  0  0  0  0  0
    1.9285   -1.8280    2.6362 H   0  0  0  0  0  0  0  0  0  0  0  0
    0.8503   -0.4419    2.8791 H   0  0  0  0  0  0  0  0  0  0  0  0
    1.4545   -2.0277    0.0387 O   0  0  0  0  0  0  0  0  0  0  0  0
    2.0817   -2.5995    0.4862 H   0  0  0  0  0  0  0  0  0  0  0  0
    0.5680    0.5125   -1.1696 C   0  0  0  0  0  0  0  0  0  0  0  0
    1.2868    1.4988   -1.3298 O   0  0  0  0  0  0  0  0  0  0  0  0
    0.1111   -0.2086   -2.2030 N   0  0  0  0  0  0  0  0  0  0  0  0
   -0.4564   -1.0165   -2.0064 H   0  0  0  0  0  0  0  0  0  0  0  0
    0.3868    0.1095   -3.6031 C   0  0  0  0  0  0  0  0  0  0  0  0
    1.4636    0.2075   -3.7545 H   0  0  0  0  0  0  0  0  0  0  0  0
    0.0032   -0.6760   -4.2546 H   0  0  0  0  0  0  0  0  0  0  0  0
   -0.0866    1.0583   -3.8645 H   0  0  0  0  0  0  0  0  0  0  0  0
  5  6  2  0  0  0  0
  5  7  1  0  0  0  0
  2  3  1  0  0  0  0
  2  4  1  0  0  0  0
  2  5  1  0  0  0  0
  1  2  1  0  0  0  0
 19 20  2  0  0  0  0
 19 21  1  0  0  0  0
 17 18  1  0  0  0  0
 13 14  1  0  0  0  0
 13 15  1  0  0  0  0
 13 16  1  0  0  0  0
 11 12  1  0  0  0  0
 11 13  1  0  0  0  0
 11 17  1  0  0  0  0
  9 10  1  0  0  0  0
  9 11  1  0  0  0  0
  9 19  1  0  0  0  0
  7  8  1  0  0  0  0
  7  9  1  0  0  0  0
 23 24  1  0  0  0  0
 23 25  1  0  0  0  0
 23 26  1  0  0  0  0
 21 22  1  0  0  0  0
 21 23  1  0  0  0  0
M  END
$$$$
default_name
  -OEChem-01062215323D

 26 25  0     1  0  0  0  0  0999 V2000
   -2.8882   -3.2497    1.2537 H   0  0  0  0  0  0  0  0  0  0  0  0
   -2.8032   -2.3157    0.7017 C   0  0  0  0  0  0  0  0  0  0  0  0
   -3.5012   -1.5857    1.1067 H   0  0  0  0  0  0  0  0  0  0  0  0
   -3.0182   -2.4907   -0.3513 H   0  0  0  0  0  0  0  0  0  0  0  0
   -1.3942   -1.7897    0.8407 C   0  0  0  0  0  0  0  0  0  0  0  0
   -0.5672   -2.4077    1.5007 O   0  0  0  0  0  0  0  0  0  0  0  0
   -1.1222   -0.6447    0.2217 N   0  0  0  0  0  0  0  0  0  0  0  0
   -1.8592   -0.1777   -0.2863 H   0  0  0  0  0  0  0  0  0  0  0  0
    0.1838    0.0363    0.2367 C   0  0  1  0  0  0  0  0  0  0  0  0
    0.1091    0.9200    0.8695 H   0  0  0  0  0  0  0  0  0  0  0  0
    1.2942   -0.8656    0.8139 C   0  0  1  0  0  0  0  0  0  0  0  0
    2.2305   -0.3081    0.7954 H   0  0  0  0  0  0  0  0  0  0  0  0
    1.0483   -1.3128    2.2536 C   0  0  0  0  0  0  0  0  0  0  0  0
    0.1907   -1.9851    2.3014 H   0  0  0  0  0  0  0  0  0  0  0  0
    1.9285   -1.8280    2.6362 H   0  0  0  0  0  0  0  0  0  0  0  0
    0.8503   -0.4419    2.8791 H   0  0  0  0  0  0  0  0  0  0  0  0
    1.4545   -2.0277    0.0387 O   0  0  0  0  0  0  0  0  0  0  0  0
    2.0817   -2.5995    0.4862 H   0  0  0  0  0  0  0  0  0  0  0  0
    0.5680    0.5125   -1.1696 C   0  0  0  0  0  0  0  0  0  0  0  0
    1.4890    1.3117   -1.3380 O   0  0  0  0  0  0  0  0  0  0  0  0
   -0.1223   -0.0021   -2.1968 N   0  0  0  0  0  0  0  0  0  0  0  0
   -0.8513   -0.6667   -1.9958 H   0  0  0  0  0  0  0  0  0  0  0  0
    0.1193    0.3458   -3.5962 C   0  0  0  0  0  0  0  0  0  0  0  0
    1.1743    0.1994   -3.8363 H   0  0  0  0  0  0  0  0  0  0  0  0
   -0.4877   -0.2769   -4.2536 H   0  0  0  0  0  0  0  0  0  0  0  0
   -0.1302    1.3960   -3.7621 H   0  0  0  0  0  0  0  0  0  0  0  0
  5  6  2  0  0  0  0
  5  7  1  0  0  0  0
  2  3  1  0  0  0  0
  2  4  1  0  0  0  0
  2  5  1  0  0  0  0
  1  2  1  0  0  0  0
 19 20  2  0  0  0  0
 19 21  1  0  0  0  0
 17 18  1  0  0  0  0
 13 14  1  0  0  0  0
 13 15  1  0  0  0  0
 13 16  1  0  0  0  0
 11 12  1  0  0  0  0
 11 13  1  0  0  0  0
 11 17  1  0  0  0  0
  9 10  1  0  0  0  0
  9 11  1  0  0  0  0
  9 19  1  0  0  0  0
  7  8  1  0  0  0  0
  7  9  1  0  0  0  0
 23 24  1  0  0  0  0
 23 25  1  0  0  0  0
 23 26  1  0  0  0  0
 21 22  1  0  0  0  0
 21 23  1  0  0  0  0
M  END
$$$$
default_name
  -OEChem-01062215323D

 26 25  0     1  0  0  0  0  0999 V2000
   -2.8882   -3.2497    1.2537 H   0  0  0  0  0  0  0  0  0  0  0  0
   -2.8032   -2.3157    0.7017 C   0  0  0  0  0  0  0  0  0  0  0  0
   -3.5012   -1.5857    1.1067 H   0  0  0  0  0  0  0  0  0  0  0  0
   -3.0182   -2.4907   -0.3513 H   0  0  0  0  0  0  0  0  0  0  0  0
   -1.3942   -1.7897    0.8407 C   0  0  0  0  0  0  0  0  0  0  0  0
   -0.5672   -2.4077    1.5007 O   0  0  0  0  0  0  0  0  0  0  0  0
   -1.1222   -0.6447    0.2217 N   0  0  0  0  0  0  0  0  0  0  0  0
   -1.8592   -0.1777   -0.2863 H   0  0  0  0  0  0  0  0  0  0  0  0
    0.1838    0.0363    0.2367 C   0  0  1  0  0  0  0  0  0  0  0  0
    0.1091    0.9200    0.8695 H   0  0  0  0  0  0  0  0  0  0  0  0
    1.2942   -0.8656    0.8139 C   0  0  1  0  0  0  0  0  0  0  0  0
    2.2305   -0.3081    0.7954 H   0  0  0  0  0  0  0  0  0  0  0  0
    1.0483   -1.3128    2.2536 C   0  0  0  0  0  0  0  0  0  0  0  0
    0.1907   -1.9851    2.3014 H   0  0  0  0  0  0  0  0  0  0  0  0
    1.9285   -1.8280    2.6362 H   0  0  0  0  0  0  0  0  0  0  0  0
    0.8503   -0.4419    2.8791 H   0  0  0  0  0  0  0  0  0  0  0  0
    1.4545   -2.0277    0.0387 O   0  0  0  0  0  0  0  0  0  0  0  0
    2.0817   -2.5995    0.4862 H   0  0  0  0  0  0  0  0  0  0  0  0
    0.5680    0.5125   -1.1696 C   0  0  0  0  0  0  0  0  0  0  0  0
    1.6391    1.0835   -1.3742 O   0  0  0  0  0  0  0  0  0  0  0  0
   -0.2983    0.2523   -2.1587 N   0  0  0  0  0  0  0  0  0  0  0  0
   -1.1489   -0.2357   -1.9312 H   0  0  0  0  0  0  0  0  0  0  0  0
   -0.0824    0.6371   -3.5526 C   0  0  0  0  0  0  0  0  0  0  0  0
    0.8864    0.2656   -3.8926 H   0  0  0  0  0  0  0  0  0  0  0  0
   -0.8672    0.2250   -4.1873 H   0  0  0  0  0  0  0  0  0  0  0  0
   -0.0839    1.7259   -3.6378 H   0  0  0  0  0  0  0  0  0  0  0  0
  5  6  2  0  0  0  0
  5  7  1  0  0  0  0
  2  3  1  0  0  0  0
  2  4  1  0  0  0  0
  2  5  1  0  0  0  0
  1  2  1  0  0  0  0
 19 20  2  0  0  0  0
 19 21  1  0  0  0  0
 17 18  1  0  0  0  0
 13 14  1  0  0  0  0
 13 15  1  0  0  0  0
 13 16  1  0  0  0  0
 11 12  1  0  0  0  0
 11 13  1  0  0  0  0
 11 17  1  0  0  0  0
  9 10  1  0  0  0  0
  9 11  1  0  0  0  0
  9 19  1  0  0  0  0
  7  8  1  0  0  0  0
  7  9  1  0  0  0  0
 23 24  1  0  0  0  0
 23 25  1  0  0  0  0
 23 26  1  0  0  0  0
 21 22  1  0  0  0  0
 21 23  1  0  0  0  0
M  END
$$$$
default_name
  -OEChem-01062215323D

 26 25  0     1  0  0  0  0  0999 V2000
   -2.8882   -3.2497    1.2537 H   0  0  0  0  0  0  0  0  0  0  0  0
   -2.8032   -2.3157    0.7017 C   0  0  0  0  0  0  0  0  0  0  0  0
   -3.5012   -1.5857    1.1067 H   0  0  0  0  0  0  0  0  0  0  0  0
   -3.0182   -2.4907   -0.3513 H   0  0  0  0  0  0  0  0  0  0  0  0
   -1.3942   -1.7897    0.8407 C   0  0  0  0  0  0  0  0  0  0  0  0
   -0.5672   -2.4077    1.5007 O   0  0  0  0  0  0  0  0  0  0  0  0
   -1.1222   -0.6447    0.2217 N   0  0  0  0  0  0  0  0  0  0  0  0
   -1.8592   -0.1777   -0.2863 H   0  0  0  0  0  0  0  0  0  0  0  0
    0.1838    0.0363    0.2367 C   0  0  1  0  0  0  0  0  0  0  0  0
    0.1091    0.9200    0.8695 H   0  0  0  0  0  0  0  0  0  0  0  0
    1.2942   -0.8656    0.8139 C   0  0  1  0  0  0  0  0  0  0  0  0
    2.2305   -0.3081    0.7954 H   0  0  0  0  0  0  0  0  0  0  0  0
    1.0483   -1.3128    2.2536 C   0  0  0  0  0  0  0  0  0  0  0  0
    0.1907   -1.9851    2.3014 H   0  0  0  0  0  0  0  0  0  0  0  0
    1.9285   -1.8280    2.6362 H   0  0  0  0  0  0  0  0  0  0  0  0
    0.8503   -0.4419    2.8791 H   0  0  0  0  0  0  0  0  0  0  0  0
    1.4545   -2.0277    0.0387 O   0  0  0  0  0  0  0  0  0  0  0  0
    2.0817   -2.5995    0.4862 H   0  0  0  0  0  0  0  0  0  0  0  0
    0.5680    0.5125   -1.1696 C   0  0  0  0  0  0  0  0  0  0  0  0
    1.7271    0.8298   -1.4361 O   0  0  0  0  0  0  0  0  0  0  0  0
   -0.4048    0.5373   -2.0913 N   0  0  0  0  0  0  0  0  0  0  0  0
   -1.3289    0.2470   -1.8169 H   0  0  0  0  0  0  0  0  0  0  0  0
   -0.2046    0.9635   -3.4755 C   0  0  0  0  0  0  0  0  0  0  0  0
    0.6194    0.4014   -3.9195 H   0  0  0  0  0  0  0  0  0  0  0  0
   -1.1092    0.7956   -4.0602 H   0  0  0  0  0  0  0  0  0  0  0  0
    0.0491    2.0255   -3.5000 H   0  0  0  0  0  0  0  0  0  0  0  0
  5  6  2  0  0  0  0
  5  7  1  0  0  0  0
  2  3  1  0  0  0  0
  2  4  1  0  0  0  0
  2  5  1  0  0  0  0
  1  2  1  0  0  0  0
 19 20  2  0  0  0  0
 19 21  1  0  0  0  0
 17 18  1  0  0  0  0
 13 14  1  0  0  0  0
 13 15  1  0  0  0  0
 13 16  1  0  0  0  0
 11 12  1  0  0  0  0
 11 13  1  0  0  0  0
 11 17  1  0  0  0  0
  9 10  1  0  0  0  0
  9 11  1  0  0  0  0
  9 19  1  0  0  0  0
  7  8  1  0  0  0  0
  7  9  1  0  0  0  0
 23 24  1  0  0  0  0
 23 25  1  0  0  0  0
 23 26  1  0  0  0  0
 21 22  1  0  0  0  0
 21 23  1  0  0  0  0
M  END
$$$$
default_name
  -OEChem-01062215323D

 26 25  0     1  0  0  0  0  0999 V2000
   -2.8882   -3.2497    1.2537 H   0  0  0  0  0  0  0  0  0  0  0  0
   -2.8032   -2.3157    0.7017 C   0  0  0  0  0  0  0  0  0  0  0  0
   -3.5012   -1.5857    1.1067 H   0  0  0  0  0  0  0  0  0  0  0  0
   -3.0182   -2.4907   -0.3513 H   0  0  0  0  0  0  0  0  0  0  0  0
   -1.3942   -1.7897    0.8407 C   0  0  0  0  0  0  0  0  0  0  0  0
   -0.5672   -2.4077    1.5007 O   0  0  0  0  0  0  0  0  0  0  0  0
   -1.1222   -0.6447    0.2217 N   0  0  0  0  0  0  0  0  0  0  0  0
   -1.8592   -0.1777   -0.2863 H   0  0  0  0  0  0  0  0  0  0  0  0
    0.1838    0.0363    0.2367 C   0  0  1  0  0  0  0  0  0  0  0  0
    0.1091    0.9200    0.8695 H   0  0  0  0  0  0  0  0  0  0  0  0
    1.2942   -0.8656    0.8139 C   0  0  1  0  0  0  0  0  0  0  0  0
    2.2305   -0.3081    0.7954 H   0  0  0  0  0  0  0  0  0  0  0  0
    1.0483   -1.3128    2.2536 C   0  0  0  0  0  0  0  0  0  0  0  0
    0.1907   -1.9851    2.3014 H   0  0  0  0  0  0  0  0  0  0  0  0
    1.9285   -1.8280    2.6362 H   0  0  0  0  0  0  0  0  0  0  0  0
    0.8503   -0.4419    2.8791 H   0  0  0  0  0  0  0  0  0  0  0  0
    1.4545   -2.0277    0.0387 O   0  0  0  0  0  0  0  0  0  0  0  0
    2.0817   -2.5995    0.4862 H   0  0  0  0  0  0  0  0  0  0  0  0
    0.5680    0.5125   -1.1696 C   0  0  0  0  0  0  0  0  0  0  0  0
    1.7469    0.5679   -1.5194 O   0  0  0  0  0  0  0  0  0  0  0  0
   -0.4346    0.8336   -1.9992 N   0  0  0  0  0  0  0  0  0  0  0  0
   -1.3790    0.7486   -1.6607 H   0  0  0  0  0  0  0  0  0  0  0  0
   -0.2389    1.3028   -3.3700 C   0  0  0  0  0  0  0  0  0  0  0  0
    0.3916    0.5977   -3.9152 H   0  0  0  0  0  0  0  0  0  0  0  0
   -1.1974    1.3960   -3.8810 H   0  0  0  0  0  0  0  0  0  0  0  0
    0.2597    2.2744   -3.3582 H   0  0  0  0  0  0  0  0  0  0  0  0
  5  6  2  0  0  0  0
  5  7  1  0  0  0  0
  2  3  1  0  0  0  0
  2  4  1  0  0  0  0
  2  5  1  0  0  0  0
  1  2  1  0  0  0  0
 19 20  2  0  0  0  0
 19 21  1  0  0  0  0
 17 18  1  0  0  0  0
 13 14  1  0  0  0  0
 13 15  1  0  0  0  0
 13 16  1  0  0  0  0
 11 12  1  0  0  0  0
 11 13  1  0  0  0  0
 11 17  1  0  0  0  0
  9 10  1  0  0  0  0
  9 11  1  0  0  0  0
  9 19  1  0  0  0  0
  7  8  1  0  0  0  0
  7  9  1  0  0  0  0
 23 24  1  0  0  0  0
 23 25  1  0  0  0  0
 23 26  1  0  0  0  0
 21 22  1  0  0  0  0
 21 23  1  0  0  0  0
M  END
$$$$
default_name
  -OEChem-01062215323D

 26 25  0     1  0  0  0  0  0999 V2000
   -2.8882   -3.2497    1.2537 H   0  0  0  0  0  0  0  0  0  0  0  0
   -2.8032   -2.3157    0.7017 C   0  0  0  0  0  0  0  0  0  0  0  0
   -3.5012   -1.5857    1.1067 H   0  0  0  0  0  0  0  0  0  0  0  0
   -3.0182   -2.4907   -0.3513 H   0  0  0  0  0  0  0  0  0  0  0  0
   -1.3942   -1.7897    0.8407 C   0  0  0  0  0  0  0  0  0  0  0  0
   -0.5672   -2.4077    1.5007 O   0  0  0  0  0  0  0  0  0  0  0  0
   -1.1222   -0.6447    0.2217 N   0  0  0  0  0  0  0  0  0  0  0  0
   -1.8592   -0.1777   -0.2863 H   0  0  0  0  0  0  0  0  0  0  0  0
    0.1838    0.0363    0.2367 C   0  0  1  0  0  0  0  0  0  0  0  0
    0.1091    0.9200    0.8695 H   0  0  0  0  0  0  0  0  0  0  0  0
    1.2942   -0.8656    0.8139 C   0  0  1  0  0  0  0  0  0  0  0  0
    2.2305   -0.3081    0.7954 H   0  0  0  0  0  0  0  0  0  0  0  0
    1.0483   -1.3128    2.2536 C   0  0  0  0  0  0  0  0  0  0  0  0
    0.1907   -1.9851    2.3014 H   0  0  0  0  0  0  0  0  0  0  0  0
    1.9285   -1.8280    2.6362 H   0  0  0  0  0  0  0  0  0  0  0  0
    0.8503   -0.4419    2.8791 H   0  0  0  0  0  0  0  0  0  0  0  0
    1.4545   -2.0277    0.0387 O   0  0  0  0  0  0  0  0  0  0  0  0
    2.0817   -2.5995    0.4862 H   0  0  0  0  0  0  0  0  0  0  0  0
    0.5680    0.5125   -1.1696 C   0  0  0  0  0  0  0  0  0  0  0  0
    1.6972    0.3156   -1.6184 O   0  0  0  0  0  0  0  0  0  0  0  0
   -0.3857    1.1208   -1.8885 N   0  0  0  0  0  0  0  0  0  0  0  0
   -1.2957    1.2348   -1.4734 H   0  0  0  0  0  0  0  0  0  0  0  0
   -0.1831    1.6319   -3.2433 C   0  0  0  0  0  0  0  0  0  0  0  0
    0.2186    0.8412   -3.8801 H   0  0  0  0  0  0  0  0  0  0  0  0
   -1.1257    1.9852   -3.6619 H   0  0  0  0  0  0  0  0  0  0  0  0
    0.5336    2.4556   -3.2220 H   0  0  0  0  0  0  0  0  0  0  0  0
  5  6  2  0  0  0  0
  5  7  1  0  0  0  0
  2  3  1  0  0  0  0
  2  4  1  0  0  0  0
  2  5  1  0  0  0  0
  1  2  1  0  0  0  0
 19 20  2  0  0  0  0
 19 21  1  0  0  0  0
 17 18  1  0  0  0  0
 13 14  1  0  0  0  0
 13 15  1  0  0  0  0
 13 16  1  0  0  0  0
 11 12  1  0  0  0  0
 11 13  1  0  0  0  0
 11 17  1  0  0  0  0
  9 10  1  0  0  0  0
  9 11  1  0  0  0  0
  9 19  1  0  0  0  0
  7  8  1  0  0  0  0
  7  9  1  0  0  0  0
 23 24  1  0  0  0  0
 23 25  1  0  0  0  0
 23 26  1  0  0  0  0
 21 22  1  0  0  0  0
 21 23  1  0  0  0  0
M  END
$$$$
default_name
  -OEChem-01062215323D

 26 25  0     1  0  0  0  0  0999 V2000
   -2.8882   -3.2497    1.2537 H   0  0  0  0  0  0  0  0  0  0  0  0
   -2.8032   -2.3157    0.7017 C   0  0  0  0  0  0  0  0  0  0  0  0
   -3.5012   -1.5857    1.1067 H   0  0  0  0  0  0  0  0  0  0  0  0
   -3.0182   -2.4907   -0.3513 H   0  0  0  0  0  0  0  0  0  0  0  0
   -1.3942   -1.7897    0.8407 C   0  0  0  0  0  0  0  0  0  0  0  0
   -0.5672   -2.4077    1.5007 O   0  0  0  0  0  0  0  0  0  0  0  0
   -1.1222   -0.6447    0.2217 N   0  0  0  0  0  0  0  0  0  0  0  0
   -1.8592   -0.1777   -0.2863 H   0  0  0  0  0  0  0  0  0  0  0  0
    0.1838    0.0363    0.2367 C   0  0  1  0  0  0  0  0  0  0  0  0
    0.1091    0.9200    0.8695 H   0  0  0  0  0  0  0  0  0  0  0  0
    1.2942   -0.8656    0.8139 C   0  0  1  0  0  0  0  0  0  0  0  0
    2.2305   -0.3081    0.7954 H   0  0  0  0  0  0  0  0  0  0  0  0
    1.0483   -1.3128    2.2536 C   0  0  0  0  0  0  0  0  0  0  0  0
    0.1907   -1.9851    2.3014 H   0  0  0  0  0  0  0  0  0  0  0  0
    1.9285   -1.8280    2.6362 H   0  0  0  0  0  0  0  0  0  0  0  0
    0.8503   -0.4419    2.8791 H   0  0  0  0  0  0  0  0  0  0  0  0
    1.4545   -2.0277    0.0387 O   0  0  0  0  0  0  0  0  0  0  0  0
    2.0817   -2.5995    0.4862 H   0  0  0  0  0  0  0  0  0  0  0  0
    0.5680    0.5125   -1.1696 C   0  0  0  0  0  0  0  0  0  0  0  0
    1.5813    0.0901   -1.7264 O   0  0  0  0  0  0  0  0  0  0  0  0
   -0.2615    1.3795   -1.7670 N   0  0  0  0  0  0  0  0  0  0  0  0
   -1.0849    1.6726   -1.2675 H   0  0  0  0  0  0  0  0  0  0  0  0
   -0.0409    1.9283   -3.1041 C   0  0  0  0  0  0  0  0  0  0  0  0
    0.1120    1.1151   -3.8165 H   0  0  0  0  0  0  0  0  0  0  0  0
   -0.8989    2.5231   -3.4178 H   0  0  0  0  0  0  0  0  0  0  0  0
    0.8521    2.5568   -3.1007 H   0  0  0  0  0  0  0  0  0  0  0  0
  5  6  2  0  0  0  0
  5  7  1  0  0  0  0
  2  3  1  0  0  0  0
  2  4  1  0  0  0  0
  2  5  1  0  0  0  0
  1  2  1  0  0  0  0
 19 20  2  0  0  0  0
 19 21  1  0  0  0  0
 17 18  1  0  0  0  0
 13 14  1  0  0  0  0
 13 15  1  0  0  0  0
 13 16  1  0  0  0  0
 11 12  1  0  0  0  0
 11 13  1  0  0  0  0
 11 17  1  0  0  0  0
  9 10  1  0  0  0  0
  9 11  1  0  0  0  0
  9 19  1  0  0  0  0
  7  8  1  0  0  0  0
  7  9  1  0  0  0  0
 23 24  1  0  0  0  0
 23 25  1  0  0  0  0
 23 26  1  0  0  0  0
 21 22  1  0  0  0  0
 21 23  1  0  0  0  0
M  END
$$$$
default_name
  -OEChem-01062215323D

 26 25  0     1  0  0  0  0  0999 V2000
   -2.8882   -3.2497    1.2537 H   0  0  0  0  0  0  0  0  0  0  0  0
   -2.8032   -2.3157    0.7017 C   0  0  0  0  0  0  0  0  0  0  0  0
   -3.5012   -1.5857    1.1067 H   0  0  0  0  0  0  0  0  0  0  0  0
   -3.0182   -2.4907   -0.3513 H   0  0  0  0  0  0  0  0  0  0  0  0
   -1.3942   -1.7897    0.8407 C   0  0  0  0  0  0  0  0  0  0  0  0
   -0.5672   -2.4077    1.5007 O   0  0  0  0  0  0  0  0  0  0  0  0
   -1.1222   -0.6447    0.2217 N   0  0  0  0  0  0  0  0  0  0  0  0
   -1.8592   -0.1777   -0.2863 H   0  0  0  0  0  0  0  0  0  0  0  0
    0.1838    0.0363    0.2367 C   0  0  1  0  0  0  0  0  0  0  0  0
    0.1091    0.9200    0.8695 H   0  0  0  0  0  0  0  0  0  0  0  0
    1.2942   -0.8656    0.8139 C   0  0  1  0  0  0  0  0  0  0  0  0
    2.2305   -0.3081    0.7954 H   0  0  0  0  0  0  0  0  0  0  0  0
    1.0483   -1.3128    2.2536 C   0  0  0  0  0  0  0  0  0  0  0  0
    0.1907   -1.9851    2.3014 H   0  0  0  0  0  0  0  0  0  0  0  0
    1.9285   -1.8280    2.6362 H   0  0  0  0  0  0  0  0  0  0  0  0
    0.8503   -0.4419    2.8791 H   0  0  0  0  0  0  0  0  0  0  0  0
    1.4545   -2.0277    0.0387 O   0  0  0  0  0  0  0  0  0  0  0  0
    2.0817   -2.5995    0.4862 H   0  0  0  0  0  0  0  0  0  0  0  0
    0.5680    0.5125   -1.1696 C   0  0  0  0  0  0  0  0  0  0  0  0
    1.4072   -0.0932   -1.8360 O   0  0  0  0  0  0  0  0  0  0  0  0
   -0.0702    1.5920   -1.6428 N   0  0  0  0  0  0  0  0  0  0  0  0
   -0.7608    2.0321   -1.0573 H   0  0  0  0  0  0  0  0  0  0  0  0
    0.1780    2.1718   -2.9619 C   0  0  0  0  0  0  0  0  0  0  0  0
    0.0792    1.4008   -3.7287 H   0  0  0  0  0  0  0  0  0  0  0  0
   -0.5327    2.9730   -3.1654 H   0  0  0  0  0  0  0  0  0  0  0  0
    1.1936    2.5712   -3.0025 H   0  0  0  0  0  0  0  0  0  0  0  0
  5  6  2  0  0  0  0
  5  7  1  0  0  0  0
  2  3  1  0  0  0  0
  2  4  1  0  0  0  0
  2  5  1  0  0  0  0
  1  2  1  0  0  0  0
 19 20  2  0  0  0  0
 19 21  1  0  0  0  0
 17 18  1  0  0  0  0
 13 14  1  0  0  0  0
 13 15  1  0  0  0  0
 13 16  1  0  0  0  0
 11 12  1  0  0  0  0
 11 13  1  0  0  0  0
 11 17  1  0  0  0  0
  9 10  1  0  0  0  0
  9 11  1  0  0  0  0
  9 19  1  0  0  0  0
  7  8  1  0  0  0  0
  7  9  1  0  0  0  0
 23 24  1  0  0  0  0
 23 25  1  0  0  0  0
 23 26  1  0  0  0  0
 21 22  1  0  0  0  0
 21 23  1  0  0  0  0
M  END
$$$$
default_name
  -OEChem-01062215323D

 26 25  0     1  0  0  0  0  0999 V2000
   -2.8882   -3.2497    1.2537 H   0  0  0  0  0  0  0  0  0  0  0  0
   -2.8032   -2.3157    0.7017 C   0  0  0  0  0  0  0  0  0  0  0  0
   -3.5012   -1.5857    1.1067 H   0  0  0  0  0  0  0  0  0  0  0  0
   -3.0182   -2.4907   -0.3513 H   0  0  0  0  0  0  0  0  0  0  0  0
   -1.3942   -1.7897    0.8407 C   0  0  0  0  0  0  0  0  0  0  0  0
   -0.5672   -2.4077    1.5007 O   0  0  0  0  0  0  0  0  0  0  0  0
   -1.1222   -0.6447    0.2217 N   0  0  0  0  0  0  0  0  0  0  0  0
   -1.8592   -0.1777   -0.2863 H   0  0  0  0  0  0  0  0  0  0  0  0
    0.1838    0.0363    0.2367 C   0  0  1  0  0  0  0  0  0  0  0  0
    0.1091    0.9200    0.8695 H   0  0  0  0  0  0  0  0  0  0  0  0
    1.2942   -0.8656    0.8139 C   0  0  1  0  0  0  0  0  0  0  0  0
    2.2305   -0.3081    0.7954 H   0  0  0  0  0  0  0  0  0  0  0  0
    1.0483   -1.3128    2.2536 C   0  0  0  0  0  0  0  0  0  0  0  0
    0.1907   -1.9851    2.3014 H   0  0  0  0  0  0  0  0  0  0  0  0
    1.9285   -1.8280    2.6362 H   0  0  0  0  0  0  0  0  0  0  0  0
    0.8503   -0.4419    2.8791 H   0  0  0  0  0  0  0  0  0  0  0  0
    1.4545   -2.0277    0.0387 O   0  0  0  0  0  0  0  0  0  0  0  0
    2.0817   -2.5995    0.4862 H   0  0  0  0  0  0  0  0  0  0  0  0
    0.5680    0.5125   -1.1696 C   0  0  0  0  0  0  0  0  0  0  0  0
    1.1867   -0.2218   -1.9398 O   0  0  0  0  0  0  0  0  0  0  0  0
    0.1749    1.7438   -1.5244 N   0  0  0  0  0  0  0  0  0  0  0  0
   -0.3456    2.2888   -0.8569 H   0  0  0  0  0  0  0  0  0  0  0  0
    0.4586    2.3458   -2.8263 C   0  0  0  0  0  0  0  0  0  0  0  0
    0.1223    1.6790   -3.6227 H   0  0  0  0  0  0  0  0  0  0  0  0
   -0.0518    3.3043   -2.9218 H   0  0  0  0  0  0  0  0  0  0  0  0
    1.5347    2.4976   -2.9343 H   0  0  0  0  0  0  0  0  0  0  0  0
  5  6  2  0  0  0  0
  5  7  1  0  0  0  0
  2  3  1  0  0  0  0
  2  4  1  0  0  0  0
  2  5  1  0  0  0  0
  1  2  1  0  0  0  0
 19 20  2  0  0  0  0
 19 21  1  0  0  0  0
 17 18  1  0  0  0  0
 13 14  1  0  0  0  0
 13 15  1  0  0  0  0
 13 16  1  0  0  0  0
 11 12  1  0  0  0  0
 11 13  1  0  0  0  0
 11 17  1  0  0  0  0
  9 10  1  0  0  0  0
  9 11  1  0  0  0  0
  9 19  1  0  0  0  0
  7  8  1  0  0  0  0
  7  9  1  0  0  0  0
 23 24  1  0  0  0  0
 23 25  1  0  0  0  0
 23 26  1  0  0  0  0
 21 22  1  0  0  0  0
 21 23  1  0  0  0  0
M  END
$$$$
default_name
  -OEChem-01062215323D

 26 25  0     1  0  0  0  0  0999 V2000
   -2.8882   -3.2497    1.2537 H   0  0  0  0  0  0  0  0  0  0  0  0
   -2.8032   -2.3157    0.7017 C   0  0  0  0  0  0  0  0  0  0  0  0
   -3.5012   -1.5857    1.1067 H   0  0  0  0  0  0  0  0  0  0  0  0
   -3.0182   -2.4907   -0.3513 H   0  0  0  0  0  0  0  0  0  0  0  0
   -1.3942   -1.7897    0.8407 C   0  0  0  0  0  0  0  0  0  0  0  0
   -0.5672   -2.4077    1.5007 O   0  0  0  0  0  0  0  0  0  0  0  0
   -1.1222   -0.6447    0.2217 N   0  0  0  0  0  0  0  0  0  0  0  0
   -1.8592   -0.1777   -0.2863 H   0  0  0  0  0  0  0  0  0  0  0  0
    0.1838    0.0363    0.2367 C   0  0  1  0  0  0  0  0  0  0  0  0
    0.1091    0.9200    0.8695 H   0  0  0  0  0  0  0  0  0  0  0  0
    1.2942   -0.8656    0.8139 C   0  0  1  0  0  0  0  0  0  0  0  0
    2.2305   -0.3081    0.7954 H   0  0  0  0  0  0  0  0  0  0  0  0
    1.0483   -1.3128    2.2536 C   0  0  0  0  0  0  0  0  0  0  0  0
    0.1907   -1.9851    2.3014 H   0  0  0  0  0  0  0  0  0  0  0  0
    1.9285   -1.8280    2.6362 H   0  0  0  0  0  0  0  0  0  0  0  0
    0.8503   -0.4419    2.8791 H   0  0  0  0  0  0  0  0  0  0  0  0
    1.4545   -2.0277    0.0387 O   0  0  0  0  0  0  0  0  0  0  0  0
    2.0817   -2.5995    0.4862 H   0  0  0  0  0  0  0  0  0  0  0  0
    0.5680    0.5125   -1.1696 C   0  0  0  0  0  0  0  0  0  0  0  0
    0.9349   -0.2870   -2.0307 O   0  0  0  0  0  0  0  0  0  0  0  0
    0.4572    1.8246   -1.4200 N   0  0  0  0  0  0  0  0  0  0  0  0
    0.1326    2.4252   -0.6801 H   0  0  0  0  0  0  0  0  0  0  0  0
    0.7819    2.4385   -2.7066 C   0  0  0  0  0  0  0  0  0  0  0  0
    0.2386    1.9305   -3.5058 H   0  0  0  0  0  0  0  0  0  0  0  0
    0.5109    3.4944   -2.7038 H   0  0  0  0  0  0  0  0  0  0  0  0
    1.8522    2.3412   -2.9005 H   0  0  0  0  0  0  0  0  0  0  0  0
  5  6  2  0  0  0  0
  5  7  1  0  0  0  0
  2  3  1  0  0  0  0
  2  4  1  0  0  0  0
  2  5  1  0  0  0  0
  1  2  1  0  0  0  0
 19 20  2  0  0  0  0
 19 21  1  0  0  0  0
 17 18  1  0  0  0  0
 13 14  1  0  0  0  0
 13 15  1  0  0  0  0
 13 16  1  0  0  0  0
 11 12  1  0  0  0  0
 11 13  1  0  0  0  0
 11 17  1  0  0  0  0
  9 10  1  0  0  0  0
  9 11  1  0  0  0  0
  9 19  1  0  0  0  0
  7  8  1  0  0  0  0
  7  9  1  0  0  0  0
 23 24  1  0  0  0  0
 23 25  1  0  0  0  0
 23 26  1  0  0  0  0
 21 22  1  0  0  0  0
 21 23  1  0  0  0  0
M  END
$$$$
default_name
  -OEChem-01062215323D

 26 25  0     1  0  0  0  0  0999 V2000
   -2.8882   -3.2497    1.2537 H   0  0  0  0  0  0  0  0  0  0  0  0
   -2.8032   -2.3157    0.7017 C   0  0  0  0  0  0  0  0  0  0  0  0
   -3.5012   -1.5857    1.1067 H   0  0  0  0  0  0  0  0  0  0  0  0
   -3.0182   -2.4907   -0.3513 H   0  0  0  0  0  0  0  0  0  0  0  0
   -1.3942   -1.7897    0.8407 C   0  0  0  0  0  0  0  0  0  0  0  0
   -0.5672   -2.4077    1.5007 O   0  0  0  0  0  0  0  0  0  0  0  0
   -1.1222   -0.6447    0.2217 N   0  0  0  0  0  0  0  0  0  0  0  0
   -1.8592   -0.1777   -0.2863 H   0  0  0  0  0  0  0  0  0  0  0  0
    0.1838    0.0363    0.2367 C   0  0  1  0  0  0  0  0  0  0  0  0
    0.1091    0.9200    0.8695 H   0  0  0  0  0  0  0  0  0  0  0  0
    1.2942   -0.8656    0.8139 C   0  0  1  0  0  0  0  0  0  0  0  0
    2.2305   -0.3081    0.7954 H   0  0  0  0  0  0  0  0  0  0  0  0
    1.0483   -1.3128    2.2536 C   0  0  0  0  0  0  0  0  0  0  0  0
    0.1907   -1.9851    2.3014 H   0  0  0  0  0  0  0  0  0  0  0  0
    1.9285   -1.8280    2.6362 H   0  0  0  0  0  0  0  0  0  0  0  0
    0.8503   -0.4419    2.8791 H   0  0  0  0  0  0  0  0  0  0  0  0
    1.4545   -2.0277    0.0387 O   0  0  0  0  0  0  0  0  0  0  0  0
    2.0817   -2.5995    0.4862 H   0  0  0  0  0  0  0  0  0  0  0  0
    0.5680    0.5125   -1.1696 C   0  0  0  0  0  0  0  0  0  0  0  0
    0.6688   -0.2843   -2.1024 O   0  0  0  0  0  0  0  0  0  0  0  0
    0.7574    1.8289   -1.3365 N   0  0  0  0  0  0  0  0  0  0  0  0
    0.6410    2.4320   -0.5389 H   0  0  0  0  0  0  0  0  0  0  0  0
    1.1258    2.4436   -2.6109 C   0  0  0  0  0  0  0  0  0  0  0  0
    0.4199    2.1383   -3.3859 H   0  0  0  0  0  0  0  0  0  0  0  0
    1.1170    3.5304   -2.5260 H   0  0  0  0  0  0  0  0  0  0  0  0
    2.1245    2.1125   -2.9035 H   0  0  0  0  0  0  0  0  0  0  0  0
  5  6  2  0  0  0  0
  5  7  1  0  0  0  0
  2  3  1  0  0  0  0
  2  4  1  0  0  0  0
  2  5  1  0  0  0  0
  1  2  1  0  0  0  0
 19 20  2  0  0  0  0
 19 21  1  0  0  0  0
 17 18  1  0  0  0  0
 13 14  1  0  0  0  0
 13 15  1  0  0  0  0
 13 16  1  0  0  0  0
 11 12  1  0  0  0  0
 11 13  1  0  0  0  0
 11 17  1  0  0  0  0
  9 10  1  0  0  0  0
  9 11  1  0  0  0  0
  9 19  1  0  0  0  0
  7  8  1  0  0  0  0
  7  9  1  0  0  0  0
 23 24  1  0  0  0  0
 23 25  1  0  0  0  0
 23 26  1  0  0  0  0
 21 22  1  0  0  0  0
 21 23  1  0  0  0  0
M  END
$$$$
default_name
  -OEChem-01062215323D

 26 25  0     1  0  0  0  0  0999 V2000
   -2.8882   -3.2497    1.2537 H   0  0  0  0  0  0  0  0  0  0  0  0
   -2.8032   -2.3157    0.7017 C   0  0  0  0  0  0  0  0  0  0  0  0
   -3.5012   -1.5857    1.1067 H   0  0  0  0  0  0  0  0  0  0  0  0
   -3.0182   -2.4907   -0.3513 H   0  0  0  0  0  0  0  0  0  0  0  0
   -1.3942   -1.7897    0.8407 C   0  0  0  0  0  0  0  0  0  0  0  0
   -0.5672   -2.4077    1.5007 O   0  0  0  0  0  0  0  0  0  0  0  0
   -1.1222   -0.6447    0.2217 N   0  0  0  0  0  0  0  0  0  0  0  0
   -1.8592   -0.1777   -0.2863 H   0  0  0  0  0  0  0  0  0  0  0  0
    0.1838    0.0363    0.2367 C   0  0  1  0  0  0  0  0  0  0  0  0
    0.1091    0.9200    0.8695 H   0  0  0  0  0  0  0  0  0  0  0  0
    1.2942   -0.8656    0.8139 C   0  0  1  0  0  0  0  0  0  0  0  0
    2.2305   -0.3081    0.7954 H   0  0  0  0  0  0  0  0  0  0  0  0
    1.0483   -1.3128    2.2536 C   0  0  0  0  0  0  0  0  0  0  0  0
    0.1907   -1.9851    2.3014 H   0  0  0  0  0  0  0  0  0  0  0  0
    1.9285   -1.8280    2.6362 H   0  0  0  0  0  0  0  0  0  0  0  0
    0.8503   -0.4419    2.8791 H   0  0  0  0  0  0  0  0  0  0  0  0
    1.4545   -2.0277    0.0387 O   0  0  0  0  0  0  0  0  0  0  0  0
    2.0817   -2.5995    0.4862 H   0  0  0  0  0  0  0  0  0  0  0  0
    0.5680    0.5125   -1.1696 C   0  0  0  0  0  0  0  0  0  0  0  0
    0.4067   -0.2139   -2.1502 O   0  0  0  0  0  0  0  0  0  0  0  0
    1.0552    1.7563   -1.2797 N   0  0  0  0  0  0  0  0  0  0  0  0
    1.1450    2.3088   -0.4429 H   0  0  0  0  0  0  0  0  0  0  0  0
    1.4668    2.3607   -2.5458 C   0  0  0  0  0  0  0  0  0  0  0  0
    0.6540    2.2882   -3.2712 H   0  0  0  0  0  0  0  0  0  0  0  0
    1.7253    3.4097   -2.4007 H   0  0  0  0  0  0  0  0  0  0  0  0
    2.3329    1.8272   -2.9432 H   0  0  0  0  0  0  0  0  0  0  0  0
  5  6  2  0  0  0  0
  5  7  1  0  0  0  0
  2  3  1  0  0  0  0
  2  4  1  0  0  0  0
  2  5  1  0  0  0  0
  1  2  1  0  0  0  0
 19 20  2  0  0  0  0
 19 21  1  0  0  0  0
 17 18  1  0  0  0  0
 13 14  1  0  0  0  0
 13 15  1  0  0  0  0
 13 16  1  0  0  0  0
 11 12  1  0  0  0  0
 11 13  1  0  0  0  0
 11 17  1  0  0  0  0
  9 10  1  0  0  0  0
  9 11  1  0  0  0  0
  9 19  1  0  0  0  0
  7  8  1  0  0  0  0
  7  9  1  0  0  0  0
 23 24  1  0  0  0  0
 23 25  1  0  0  0  0
 23 26  1  0  0  0  0
 21 22  1  0  0  0  0
 21 23  1  0  0  0  0
M  END
$$$$
default_name
  -OEChem-01062215323D

 26 25  0     1  0  0  0  0  0999 V2000
   -2.8882   -3.2497    1.2537 H   0  0  0  0  0  0  0  0  0  0  0  0
   -2.8032   -2.3157    0.7017 C   0  0  0  0  0  0  0  0  0  0  0  0
   -3.5012   -1.5857    1.1067 H   0  0  0  0  0  0  0  0  0  0  0  0
   -3.0182   -2.4907   -0.3513 H   0  0  0  0  0  0  0  0  0  0  0  0
   -1.3942   -1.7897    0.8407 C   0  0  0  0  0  0  0  0  0  0  0  0
   -0.5672   -2.4077    1.5007 O   0  0  0  0  0  0  0  0  0  0  0  0
   -1.1222   -0.6447    0.2217 N   0  0  0  0  0  0  0  0  0  0  0  0
   -1.8592   -0.1777   -0.2863 H   0  0  0  0  0  0  0  0  0  0  0  0
    0.1838    0.0363    0.2367 C   0  0  1  0  0  0  0  0  0  0  0  0
    0.1091    0.9200    0.8695 H   0  0  0  0  0  0  0  0  0  0  0  0
    1.2942   -0.8656    0.8139 C   0  0  1  0  0  0  0  0  0  0  0  0
    2.2305   -0.3081    0.7954 H   0  0  0  0  0  0  0  0  0  0  0  0
    1.0483   -1.3128    2.2536 C   0  0  0  0  0  0  0  0  0  0  0  0
    0.1907   -1.9851    2.3014 H   0  0  0  0  0  0  0  0  0  0  0  0
    1.9285   -1.8280    2.6362 H   0  0  0  0  0  0  0  0  0  0  0  0
    0.8503   -0.4419    2.8791 H   0  0  0  0  0  0  0  0  0  0  0  0
    1.4545   -2.0277    0.0387 O   0  0  0  0  0  0  0  0  0  0  0  0
    2.0817   -2.5995    0.4862 H   0  0  0  0  0  0  0  0  0  0  0  0
    0.5680    0.5125   -1.1696 C   0  0  0  0  0  0  0  0  0  0  0  0
    0.1664   -0.0806   -2.1707 O   0  0  0  0  0  0  0  0  0  0  0  0
    1.3301    1.6119   -1.2535 N   0  0  0  0  0  0  0  0  0  0  0  0
    1.6104    2.0639   -0.3987 H   0  0  0  0  0  0  0  0  0  0  0  0
    1.7818    2.1954   -2.5157 C   0  0  0  0  0  0  0  0  0  0  0  0
    0.9250    2.3700   -3.1694 H   0  0  0  0  0  0  0  0  0  0  0  0
    2.2943    3.1407   -2.3363 H   0  0  0  0  0  0  0  0  0  0  0  0
    2.4634    1.5047   -3.0167 H   0  0  0  0  0  0  0  0  0  0  0  0
  5  6  2  0  0  0  0
  5  7  1  0  0  0  0
  2  3  1  0  0  0  0
  2  4  1  0  0  0  0
  2  5  1  0  0  0  0
  1  2  1  0  0  0  0
 19 20  2  0  0  0  0
 19 21  1  0  0  0  0
 17 18  1  0  0  0  0
 13 14  1  0  0  0  0
 13 15  1  0  0  0  0
 13 16  1  0  0  0  0
 11 12  1  0  0  0  0
 11 13  1  0  0  0  0
 11 17  1  0  0  0  0
  9 10  1  0  0  0  0
  9 11  1  0  0  0  0
  9 19  1  0  0  0  0
  7  8  1  0  0  0  0
  7  9  1  0  0  0  0
 23 24  1  0  0  0  0
 23 25  1  0  0  0  0
 23 26  1  0  0  0  0
 21 22  1  0  0  0  0
 21 23  1  0  0  0  0
M  END
$$$$
default_name
  -OEChem-01062215323D

 26 25  0     1  0  0  0  0  0999 V2000
   -2.8882   -3.2497    1.2537 H   0  0  0  0  0  0  0  0  0  0  0  0
   -2.8032   -2.3157    0.7017 C   0  0  0  0  0  0  0  0  0  0  0  0
   -3.5012   -1.5857    1.1067 H   0  0  0  0  0  0  0  0  0  0  0  0
   -3.0182   -2.4907   -0.3513 H   0  0  0  0  0  0  0  0  0  0  0  0
   -1.3942   -1.7897    0.8407 C   0  0  0  0  0  0  0  0  0  0  0  0
   -0.5672   -2.4077    1.5007 O   0  0  0  0  0  0  0  0  0  0  0  0
   -1.1222   -0.6447    0.2217 N   0  0  0  0  0  0  0  0  0  0  0  0
   -1.8592   -0.1777   -0.2863 H   0  0  0  0  0  0  0  0  0  0  0  0
    0.1838    0.0363    0.2367 C   0  0  1  0  0  0  0  0  0  0  0  0
    0.1091    0.9200    0.8695 H   0  0  0  0  0  0  0  0  0  0  0  0
    1.2942   -0.8656    0.8139 C   0  0  1  0  0  0  0  0  0  0  0  0
    2.2305   -0.3081    0.7954 H   0  0  0  0  0  0  0  0  0  0  0  0
    1.0483   -1.3128    2.2536 C   0  0  0  0  0  0  0  0  0  0  0  0
    0.1907   -1.9851    2.3014 H   0  0  0  0  0  0  0  0  0  0  0  0
    1.9285   -1.8280    2.6362 H   0  0  0  0  0  0  0  0  0  0  0  0
    0.8503   -0.4419    2.8791 H   0  0  0  0  0  0  0  0  0  0  0  0
    1.4545   -2.0277    0.0387 O   0  0  0  0  0  0  0  0  0  0  0  0
    2.0817   -2.5995    0.4862 H   0  0  0  0  0  0  0  0  0  0  0  0
    0.5680    0.5125   -1.1696 C   0  0  0  0  0  0  0  0  0  0  0  0
   -0.0357    0.1066   -2.1626 O   0  0  0  0  0  0  0  0  0  0  0  0
    1.5635    1.4055   -1.2596 N   0  0  0  0  0  0  0  0  0  0  0  0
    2.0053    1.7140   -0.4093 H   0  0  0  0  0  0  0  0  0  0  0  0
    2.0493    1.9591   -2.5227 C   0  0  0  0  0  0  0  0  0  0  0  0
    1.2142    2.3781   -3.0877 H   0  0  0  0  0  0  0  0  0  0  0  0
    2.7853    2.7416   -2.3373 H   0  0  0  0  0  0  0  0  0  0  0  0
    2.5070    1.1671   -3.1192 H   0  0  0  0  0  0  0  0  0  0  0  0
  5  6  2  0  0  0  0
  5  7  1  0  0  0  0
  2  3  1  0  0  0  0
  2  4  1  0  0  0  0
  2  5  1  0  0  0  0
  1  2  1  0  0  0  0
 19 20  2  0  0  0  0
 19 21  1  0  0  0  0
 17 18  1  0  0  0  0
 13 14  1  0  0  0  0
 13 15  1  0  0  0  0
 13 16  1  0  0  0  0
 11 12  1  0  0  0  0
 11 13  1  0  0  0  0
 11 17  1  0  0  0  0
  9 10  1  0  0  0  0
  9 11  1  0  0  0  0
  9 19  1  0  0  0  0
  7  8  1  0  0  0  0
  7  9  1  0  0  0  0
 23 24  1  0  0  0  0
 23 25  1  0  0  0  0
 23 26  1  0  0  0  0
 21 22  1  0  0  0  0
 21 23  1  0  0  0  0
M  END
$$$$
default_name
  -OEChem-01062215323D

 26 25  0     1  0  0  0  0  0999 V2000
   -2.8882   -3.2497    1.2537 H   0  0  0  0  0  0  0  0  0  0  0  0
   -2.8032   -2.3157    0.7017 C   0  0  0  0  0  0  0  0  0  0  0  0
   -3.5012   -1.5857    1.1067 H   0  0  0  0  0  0  0  0  0  0  0  0
   -3.0182   -2.4907   -0.3513 H   0  0  0  0  0  0  0  0  0  0  0  0
   -1.3942   -1.7897    0.8407 C   0  0  0  0  0  0  0  0  0  0  0  0
   -0.5672   -2.4077    1.5007 O   0  0  0  0  0  0  0  0  0  0  0  0
   -1.1222   -0.6447    0.2217 N   0  0  0  0  0  0  0  0  0  0  0  0
   -1.8592   -0.1777   -0.2863 H   0  0  0  0  0  0  0  0  0  0  0  0
    0.1838    0.0363    0.2367 C   0  0  1  0  0  0  0  0  0  0  0  0
    0.1956    0.7500    1.0598 H   0  0  0  0  0  0  0  0  0  0  0  0
    1.3451   -0.9554    0.4546 C   0  0  1  0  0  0  0  0  0  0  0  0
    2.2787   -0.3930    0.4530 H   0  0  0  0  0  0  0  0  0  0  0  0
    1.2686   -1.7248    1.7719 C   0  0  0  0  0  0  0  0  0  0  0  0
    0.4154   -2.4043    1.7661 H   0  0  0  0  0  0  0  0  0  0  0  0
    2.1825   -2.2993    1.9181 H   0  0  0  0  0  0  0  0  0  0  0  0
    1.1570   -1.0240    2.5997 H   0  0  0  0  0  0  0  0  0  0  0  0
    1.3981   -1.9059   -0.5802 O   0  0  0  0  0  0  0  0  0  0  0  0
    2.0679   -2.5546   -0.3541 H   0  0  0  0  0  0  0  0  0  0  0  0
    0.4019    0.8286   -1.0582 C   0  0  0  0  0  0  0  0  0  0  0  0
   -0.4633    0.8625   -1.9332 O   0  0  0  0  0  0  0  0  0  0  0  0
    1.5567    1.4989   -1.1751 N   0  0  0  0  0  0  0  0  0  0  0  0
    2.2163    1.4478   -0.4163 H   0  0  0  0  0  0  0  0  0  0  0  0
    1.9181    2.3011   -2.3428 C   0  0  0  0  0  0  0  0  0  0  0  0
    1.1263    3.0223   -2.5548 H   0  0  0  0  0  0  0  0  0  0  0  0
    2.8512    2.8356   -2.1635 H   0  0  0  0  0  0  0  0  0  0  0  0
    2.0357    1.6516   -3.2128 H   0  0  0  0  0  0  0  0  0  0  0  0
  5  6  2  0  0  0  0
  5  7  1  0  0  0  0
  2  3  1  0  0  0  0
  2  4  1  0  0  0  0
  2  5  1  0  0  0  0
  1  2  1  0  0  0  0
 19 20  2  0  0  0  0
 19 21  1  0  0  0  0
 17 18  1  0  0  0  0
 13 14  1  0  0  0  0
 13 15  1  0  0  0  0
 13 16  1  0  0  0  0
 11 12  1  0  0  0  0
 11 13  1  0  0  0  0
 11 17  1  0  0  0  0
  9 10  1  0  0  0  0
  9 11  1  0  0  0  0
  9 19  1  0  0  0  0
  7  8  1  0  0  0  0
  7  9  1  0  0  0  0
 23 24  1  0  0  0  0
 23 25  1  0  0  0  0
 23 26  1  0  0  0  0
 21 22  1  0  0  0  0
 21 23  1  0  0  0  0
M  END
$$$$
default_name
  -OEChem-01062215323D

 26 25  0     1  0  0  0  0  0999 V2000
   -2.8882   -3.2497    1.2537 H   0  0  0  0  0  0  0  0  0  0  0  0
   -2.8032   -2.3157    0.7017 C   0  0  0  0  0  0  0  0  0  0  0  0
   -3.5012   -1.5857    1.1067 H   0  0  0  0  0  0  0  0  0  0  0  0
   -3.0182   -2.4907   -0.3513 H   0  0  0  0  0  0  0  0  0  0  0  0
   -1.3942   -1.7897    0.8407 C   0  0  0  0  0  0  0  0  0  0  0  0
   -0.5672   -2.4077    1.5007 O   0  0  0  0  0  0  0  0  0  0  0  0
   -1.1222   -0.6447    0.2217 N   0  0  0  0  0  0  0  0  0  0  0  0
   -1.8592   -0.1777   -0.2863 H   0  0  0  0  0  0  0  0  0  0  0  0
    0.1838    0.0363    0.2367 C   0  0  1  0  0  0  0  0  0  0  0  0
    0.1956    0.7500    1.0598 H   0  0  0  0  0  0  0  0  0  0  0  0
    1.3451   -0.9554    0.4546 C   0  0  1  0  0  0  0  0  0  0  0  0
    2.2787   -0.3930    0.4530 H   0  0  0  0  0  0  0  0  0  0  0  0
    1.2686   -1.7248    1.7719 C   0  0  0  0  0  0  0  0  0  0  0  0
    0.4154   -2.4043    1.7661 H   0  0  0  0  0  0  0  0  0  0  0  0
    2.1825   -2.2993    1.9181 H   0  0  0  0  0  0  0  0  0  0  0  0
    1.1570   -1.0240    2.5997 H   0  0  0  0  0  0  0  0  0  0  0  0
    1.3981   -1.9059   -0.5802 O   0  0  0  0  0  0  0  0  0  0  0  0
    2.0679   -2.5546   -0.3541 H   0  0  0  0  0  0  0  0  0  0  0  0
    0.4019    0.8286   -1.0582 C   0  0  0  0  0  0  0  0  0  0  0  0
   -0.5403    1.0938   -1.8046 O   0  0  0  0  0  0  0  0  0  0  0  0
    1.6511    1.2387   -1.3184 N   0  0  0  0  0  0  0  0  0  0  0  0
    2.3758    1.0072   -0.6591 H   0  0  0  0  0  0  0  0  0  0  0  0
    2.0265    2.0032   -2.5068 C   0  0  0  0  0  0  0  0  0  0  0  0
    1.3930    2.8883   -2.5919 H   0  0  0  0  0  0  0  0  0  0  0  0
    3.0698    2.3135   -2.4461 H   0  0  0  0  0  0  0  0  0  0  0  0
    1.8838    1.3894   -3.3988 H   0  0  0  0  0  0  0  0  0  0  0  0
  5  6  2  0  0  0  0
  5  7  1  0  0  0  0
  2  3  1  0  0  0  0
  2  4  1  0  0  0  0
  2  5  1  0  0  0  0
  1  2  1  0  0  0  0
 19 20  2  0  0  0  0
 19 21  1  0  0  0  0
 17 18  1  0  0  0  0
 13 14  1  0  0  0  0
 13 15  1  0  0  0  0
 13 16  1  0  0  0  0
 11 12  1  0  0  0  0
 11 13  1  0  0  0  0
 11 17  1  0  0  0  0
  9 10  1  0  0  0  0
  9 11  1  0  0  0  0
  9 19  1  0  0  0  0
  7  8  1  0  0  0  0
  7  9  1  0  0  0  0
 23 24  1  0  0  0  0
 23 25  1  0  0  0  0
 23 26  1  0  0  0  0
 21 22  1  0  0  0  0
 21 23  1  0  0  0  0
M  END
$$$$
default_name
  -OEChem-01062215323D

 26 25  0     1  0  0  0  0  0999 V2000
   -2.8882   -3.2497    1.2537 H   0  0  0  0  0  0  0  0  0  0  0  0
   -2.8032   -2.3157    0.7017 C   0  0  0  0  0  0  0  0  0  0  0  0
   -3.5012   -1.5857    1.1067 H   0  0  0  0  0  0  0  0  0  0  0  0
   -3.0182   -2.4907   -0.3513 H   0  0  0  0  0  0  0  0  0  0  0  0
   -1.3942   -1.7897    0.8407 C   0  0  0  0  0  0  0  0  0  0  0  0
   -0.5672   -2.4077    1.5007 O   0  0  0  0  0  0  0  0  0  0  0  0
   -1.1222   -0.6447    0.2217 N   0  0  0  0  0  0  0  0  0  0  0  0
   -1.8592   -0.1777   -0.2863 H   0  0  0  0  0  0  0  0  0  0  0  0
    0.1838    0.0363    0.2367 C   0  0  1  0  0  0  0  0  0  0  0  0
    0.1956    0.7500    1.0598 H   0  0  0  0  0  0  0  0  0  0  0  0
    1.3451   -0.9554    0.4546 C   0  0  1  0  0  0  0  0  0  0  0  0
    2.2787   -0.3930    0.4530 H   0  0  0  0  0  0  0  0  0  0  0  0
    1.2686   -1.7248    1.7719 C   0  0  0  0  0  0  0  0  0  0  0  0
    0.4154   -2.4043    1.7661 H   0  0  0  0  0  0  0  0  0  0  0  0
    2.1825   -2.2993    1.9181 H   0  0  0  0  0  0  0  0  0  0  0  0
    1.1570   -1.0240    2.5997 H   0  0  0  0  0  0  0  0  0  0  0  0
    1.3981   -1.9059   -0.5802 O   0  0  0  0  0  0  0  0  0  0  0  0
    2.0679   -2.5546   -0.3541 H   0  0  0  0  0  0  0  0  0  0  0  0
    0.4019    0.8286   -1.0582 C   0  0  0  0  0  0  0  0  0  0  0  0
   -0.5470    1.3292   -1.6617 O   0  0  0  0  0  0  0  0  0  0  0  0
    1.6664    0.9721   -1.4790 N   0  0  0  0  0  0  0  0  0  0  0  0
    2.4011    0.5557   -0.9311 H   0  0  0  0  0  0  0  0  0  0  0  0
    2.0441    1.6977   -2.6908 C   0  0  0  0  0  0  0  0  0  0  0  0
    1.6163    2.7020   -2.6683 H   0  0  0  0  0  0  0  0  0  0  0  0
    3.1290    1.7718   -2.7676 H   0  0  0  0  0  0  0  0  0  0  0  0
    1.6549    1.1762   -3.5678 H   0  0  0  0  0  0  0  0  0  0  0  0
  5  6  2  0  0  0  0
  5  7  1  0  0  0  0
  2  3  1  0  0  0  0
  2  4  1  0  0  0  0
  2  5  1  0  0  0  0
  1  2  1  0  0  0  0
 19 20  2  0  0  0  0
 19 21  1  0  0  0  0
 17 18  1  0  0  0  0
 13 14  1  0  0  0  0
 13 15  1  0  0  0  0
 13 16  1  0  0  0  0
 11 12  1  0  0  0  0
 11 13  1  0  0  0  0
 11 17  1  0  0  0  0
  9 10  1  0  0  0  0
  9 11  1  0  0  0  0
  9 19  1  0  0  0  0
  7  8  1  0  0  0  0
  7  9  1  0  0  0  0
 23 24  1  0  0  0  0
 23 25  1  0  0  0  0
 23 26  1  0  0  0  0
 21 22  1  0  0  0  0
 21 23  1  0  0  0  0
M  END
$$$$
default_name
  -OEChem-01062215323D

 26 25  0     1  0  0  0  0  0999 V2000
   -2.8882   -3.2497    1.2537 H   0  0  0  0  0  0  0  0  0  0  0  0
   -2.8032   -2.3157    0.7017 C   0  0  0  0  0  0  0  0  0  0  0  0
   -3.5012   -1.5857    1.1067 H   0  0  0  0  0  0  0  0  0  0  0  0
   -3.0182   -2.4907   -0.3513 H   0  0  0  0  0  0  0  0  0  0  0  0
   -1.3942   -1.7897    0.8407 C   0  0  0  0  0  0  0  0  0  0  0  0
   -0.5672   -2.4077    1.5007 O   0  0  0  0  0  0  0  0  0  0  0  0
   -1.1222   -0.6447    0.2217 N   0  0  0  0  0  0  0  0  0  0  0  0
   -1.8592   -0.1777   -0.2863 H   0  0  0  0  0  0  0  0  0  0  0  0
    0.1838    0.0363    0.2367 C   0  0  1  0  0  0  0  0  0  0  0  0
    0.1956    0.7500    1.0598 H   0  0  0  0  0  0  0  0  0  0  0  0
    1.3451   -0.9554    0.4546 C   0  0  1  0  0  0  0  0  0  0  0  0
    2.2787   -0.3930    0.4530 H   0  0  0  0  0  0  0  0  0  0  0  0
    1.2686   -1.7248    1.7719 C   0  0  0  0  0  0  0  0  0  0  0  0
    0.4154   -2.4043    1.7661 H   0  0  0  0  0  0  0  0  0  0  0  0
    2.1825   -2.2993    1.9181 H   0  0  0  0  0  0  0  0  0  0  0  0
    1.1570   -1.0240    2.5997 H   0  0  0  0  0  0  0  0  0  0  0  0
    1.3981   -1.9059   -0.5802 O   0  0  0  0  0  0  0  0  0  0  0  0
    2.0679   -2.5546   -0.3541 H   0  0  0  0  0  0  0  0  0  0  0  0
    0.4019    0.8286   -1.0582 C   0  0  0  0  0  0  0  0  0  0  0  0
   -0.4829    1.5529   -1.5140 O   0  0  0  0  0  0  0  0  0  0  0  0
    1.6013    0.7171   -1.6460 N   0  0  0  0  0  0  0  0  0  0  0  0
    2.2905    0.1241   -1.2138 H   0  0  0  0  0  0  0  0  0  0  0  0
    1.9697    1.4056   -2.8820 C   0  0  0  0  0  0  0  0  0  0  0  0
    1.7812    2.4761   -2.7788 H   0  0  0  0  0  0  0  0  0  0  0  0
    3.0248    1.2474   -3.1060 H   0  0  0  0  0  0  0  0  0  0  0  0
    1.3646    1.0265   -3.7083 H   0  0  0  0  0  0  0  0  0  0  0  0
  5  6  2  0  0  0  0
  5  7  1  0  0  0  0
  2  3  1  0  0  0  0
  2  4  1  0  0  0  0
  2  5  1  0  0  0  0
  1  2  1  0  0  0  0
 19 20  2  0  0  0  0
 19 21  1  0  0  0  0
 17 18  1  0  0  0  0
 13 14  1  0  0  0  0
 13 15  1  0  0  0  0
 13 16  1  0  0  0  0
 11 12  1  0  0  0  0
 11 13  1  0  0  0  0
 11 17  1  0  0  0  0
  9 10  1  0  0  0  0
  9 11  1  0  0  0  0
  9 19  1  0  0  0  0
  7  8  1  0  0  0  0
  7  9  1  0  0  0  0
 23 24  1  0  0  0  0
 23 25  1  0  0  0  0
 23 26  1  0  0  0  0
 21 22  1  0  0  0  0
 21 23  1  0  0  0  0
M  END
$$$$
default_name
  -OEChem-01062215323D

 26 25  0     1  0  0  0  0  0999 V2000
   -2.8882   -3.2497    1.2537 H   0  0  0  0  0  0  0  0  0  0  0  0
   -2.8032   -2.3157    0.7017 C   0  0  0  0  0  0  0  0  0  0  0  0
   -3.5012   -1.5857    1.1067 H   0  0  0  0  0  0  0  0  0  0  0  0
   -3.0182   -2.4907   -0.3513 H   0  0  0  0  0  0  0  0  0  0  0  0
   -1.3942   -1.7897    0.8407 C   0  0  0  0  0  0  0  0  0  0  0  0
   -0.5672   -2.4077    1.5007 O   0  0  0  0  0  0  0  0  0  0  0  0
   -1.1222   -0.6447    0.2217 N   0  0  0  0  0  0  0  0  0  0  0  0
   -1.8592   -0.1777   -0.2863 H   0  0  0  0  0  0  0  0  0  0  0  0
    0.1838    0.0363    0.2367 C   0  0  1  0  0  0  0  0  0  0  0  0
    0.1956    0.7500    1.0598 H   0  0  0  0  0  0  0  0  0  0  0  0
    1.3451   -0.9554    0.4546 C   0  0  1  0  0  0  0  0  0  0  0  0
    2.2787   -0.3930    0.4530 H   0  0  0  0  0  0  0  0  0  0  0  0
    1.2686   -1.7248    1.7719 C   0  0  0  0  0  0  0  0  0  0  0  0
    0.4154   -2.4043    1.7661 H   0  0  0  0  0  0  0  0  0  0  0  0
    2.1825   -2.2993    1.9181 H   0  0  0  0  0  0  0  0  0  0  0  0
    1.1570   -1.0240    2.5997 H   0  0  0  0  0  0  0  0  0  0  0  0
    1.3981   -1.9059   -0.5802 O   0  0  0  0  0  0  0  0  0  0  0  0
    2.0679   -2.5546   -0.3541 H   0  0  0  0  0  0  0  0  0  0  0  0
    0.4019    0.8286   -1.0582 C   0  0  0  0  0  0  0  0  0  0  0  0
   -0.3524    1.7495   -1.3718 O   0  0  0  0  0  0  0  0  0  0  0  0
    1.4604    0.4911   -1.8080 N   0  0  0  0  0  0  0  0  0  0  0  0
    2.0516   -0.2583   -1.4880 H   0  0  0  0  0  0  0  0  0  0  0  0
    1.8085    1.1467   -3.0676 C   0  0  0  0  0  0  0  0  0  0  0  0
    1.8762    2.2258   -2.9159 H   0  0  0  0  0  0  0  0  0  0  0  0
    2.7644    0.7761   -3.4382 H   0  0  0  0  0  0  0  0  0  0  0  0
    1.0327    0.9505   -3.8107 H   0  0  0  0  0  0  0  0  0  0  0  0
  5  6  2  0  0  0  0
  5  7  1  0  0  0  0
  2  3  1  0  0  0  0
  2  4  1  0  0  0  0
  2  5  1  0  0  0  0
  1  2  1  0  0  0  0
 19 20  2  0  0  0  0
 19 21  1  0  0  0  0
 17 18  1  0  0  0  0
 13 14  1  0  0  0  0
 13 15  1  0  0  0  0
 13 16  1  0  0  0  0
 11 12  1  0  0  0  0
 11 13  1  0  0  0  0
 11 17  1  0  0  0  0
  9 10  1  0  0  0  0
  9 11  1  0  0  0  0
  9 19  1  0  0  0  0
  7  8  1  0  0  0  0
  7  9  1  0  0  0  0
 23 24  1  0  0  0  0
 23 25  1  0  0  0  0
 23 26  1  0  0  0  0
 21 22  1  0  0  0  0
 21 23  1  0  0  0  0
M  END
$$$$
default_name
  -OEChem-01062215323D

 26 25  0     1  0  0  0  0  0999 V2000
   -2.8882   -3.2497    1.2537 H   0  0  0  0  0  0  0  0  0  0  0  0
   -2.8032   -2.3157    0.7017 C   0  0  0  0  0  0  0  0  0  0  0  0
   -3.5012   -1.5857    1.1067 H   0  0  0  0  0  0  0  0  0  0  0  0
   -3.0182   -2.4907   -0.3513 H   0  0  0  0  0  0  0  0  0  0  0  0
   -1.3942   -1.7897    0.8407 C   0  0  0  0  0  0  0  0  0  0  0  0
   -0.5672   -2.4077    1.5007 O   0  0  0  0  0  0  0  0  0  0  0  0
   -1.1222   -0.6447    0.2217 N   0  0  0  0  0  0  0  0  0  0  0  0
   -1.8592   -0.1777   -0.2863 H   0  0  0  0  0  0  0  0  0  0  0  0
    0.1838    0.0363    0.2367 C   0  0  1  0  0  0  0  0  0  0  0  0
    0.1956    0.7500    1.0598 H   0  0  0  0  0  0  0  0  0  0  0  0
    1.3451   -0.9554    0.4546 C   0  0  1  0  0  0  0  0  0  0  0  0
    2.2787   -0.3930    0.4530 H   0  0  0  0  0  0  0  0  0  0  0  0
    1.2686   -1.7248    1.7719 C   0  0  0  0  0  0  0  0  0  0  0  0
    0.4154   -2.4043    1.7661 H   0  0  0  0  0  0  0  0  0  0  0  0
    2.1825   -2.2993    1.9181 H   0  0  0  0  0  0  0  0  0  0  0  0
    1.1570   -1.0240    2.5997 H   0  0  0  0  0  0  0  0  0  0  0  0
    1.3981   -1.9059   -0.5802 O   0  0  0  0  0  0  0  0  0  0  0  0
    2.0679   -2.5546   -0.3541 H   0  0  0  0  0  0  0  0  0  0  0  0
    0.4019    0.8286   -1.0582 C   0  0  0  0  0  0  0  0  0  0  0  0
   -0.1643    1.9056   -1.2446 O   0  0  0  0  0  0  0  0  0  0  0  0
    1.2533    0.3096   -1.9539 N   0  0  0  0  0  0  0  0  0  0  0  0
    1.7006   -0.5653   -1.7350 H   0  0  0  0  0  0  0  0  0  0  0  0
    1.5714    0.9388   -3.2348 C   0  0  0  0  0  0  0  0  0  0  0  0
    1.8951    1.9684   -3.0702 H   0  0  0  0  0  0  0  0  0  0  0  0
    2.3654    0.3901   -3.7417 H   0  0  0  0  0  0  0  0  0  0  0  0
    0.6818    0.9534   -3.8680 H   0  0  0  0  0  0  0  0  0  0  0  0
  5  6  2  0  0  0  0
  5  7  1  0  0  0  0
  2  3  1  0  0  0  0
  2  4  1  0  0  0  0
  2  5  1  0  0  0  0
  1  2  1  0  0  0  0
 19 20  2  0  0  0  0
 19 21  1  0  0  0  0
 17 18  1  0  0  0  0
 13 14  1  0  0  0  0
 13 15  1  0  0  0  0
 13 16  1  0  0  0  0
 11 12  1  0  0  0  0
 11 13  1  0  0  0  0
 11 17  1  0  0  0  0
  9 10  1  0  0  0  0
  9 11  1  0  0  0  0
  9 19  1  0  0  0  0
  7  8  1  0  0  0  0
  7  9  1  0  0  0  0
 23 24  1  0  0  0  0
 23 25  1  0  0  0  0
 23 26  1  0  0  0  0
 21 22  1  0  0  0  0
 21 23  1  0  0  0  0
M  END
$$$$
default_name
  -OEChem-01062215323D

 26 25  0     1  0  0  0  0  0999 V2000
   -2.8882   -3.2497    1.2537 H   0  0  0  0  0  0  0  0  0  0  0  0
   -2.8032   -2.3157    0.7017 C   0  0  0  0  0  0  0  0  0  0  0  0
   -3.5012   -1.5857    1.1067 H   0  0  0  0  0  0  0  0  0  0  0  0
   -3.0182   -2.4907   -0.3513 H   0  0  0  0  0  0  0  0  0  0  0  0
   -1.3942   -1.7897    0.8407 C   0  0  0  0  0  0  0  0  0  0  0  0
   -0.5672   -2.4077    1.5007 O   0  0  0  0  0  0  0  0  0  0  0  0
   -1.1222   -0.6447    0.2217 N   0  0  0  0  0  0  0  0  0  0  0  0
   -1.8592   -0.1777   -0.2863 H   0  0  0  0  0  0  0  0  0  0  0  0
    0.1838    0.0363    0.2367 C   0  0  1  0  0  0  0  0  0  0  0  0
    0.1956    0.7500    1.0598 H   0  0  0  0  0  0  0  0  0  0  0  0
    1.3451   -0.9554    0.4546 C   0  0  1  0  0  0  0  0  0  0  0  0
    2.2787   -0.3930    0.4530 H   0  0  0  0  0  0  0  0  0  0  0  0
    1.2686   -1.7248    1.7719 C   0  0  0  0  0  0  0  0  0  0  0  0
    0.4154   -2.4043    1.7661 H   0  0  0  0  0  0  0  0  0  0  0  0
    2.1825   -2.2993    1.9181 H   0  0  0  0  0  0  0  0  0  0  0  0
    1.1570   -1.0240    2.5997 H   0  0  0  0  0  0  0  0  0  0  0  0
    1.3981   -1.9059   -0.5802 O   0  0  0  0  0  0  0  0  0  0  0  0
    2.0679   -2.5546   -0.3541 H   0  0  0  0  0  0  0  0  0  0  0  0
    0.4019    0.8286   -1.0582 C   0  0  0  0  0  0  0  0  0  0  0  0
    0.0685    2.0107   -1.1411 O   0  0  0  0  0  0  0  0  0  0  0  0
    0.9940    0.1849   -2.0738 N   0  0  0  0  0  0  0  0  0  0  0  0
    1.2614   -0.7761   -1.9379 H   0  0  0  0  0  0  0  0  0  0  0  0
    1.2746    0.7958   -3.3722 C   0  0  0  0  0  0  0  0  0  0  0  0
    1.8363    1.7213   -3.2313 H   0  0  0  0  0  0  0  0  0  0  0  0
    1.8551    0.1155   -3.9956 H   0  0  0  0  0  0  0  0  0  0  0  0
    0.3358    1.0350   -3.8764 H   0  0  0  0  0  0  0  0  0  0  0  0
  5  6  2  0  0  0  0
  5  7  1  0  0  0  0
  2  3  1  0  0  0  0
  2  4  1  0  0  0  0
  2  5  1  0  0  0  0
  1  2  1  0  0  0  0
 19 20  2  0  0  0  0
 19 21  1  0  0  0  0
 17 18  1  0  0  0  0
 13 14  1  0  0  0  0
 13 15  1  0  0  0  0
 13 16  1  0  0  0  0
 11 12  1  0  0  0  0
 11 13  1  0  0  0  0
 11 17  1  0  0  0  0
  9 10  1  0  0  0  0
  9 11  1  0  0  0  0
  9 19  1  0  0  0  0
  7  8  1  0  0  0  0
  7  9  1  0  0  0  0
 23 24  1  0  0  0  0
 23 25  1  0  0  0  0
 23 26  1  0  0  0  0
 21 22  1  0  0  0  0
 21 23  1  0  0  0  0
M  END
$$$$
default_name
  -OEChem-01062215323D

 26 25  0     1  0  0  0  0  0999 V2000
   -2.8882   -3.2497    1.2537 H   0  0  0  0  0  0  0  0  0  0  0  0
   -2.8032   -2.3157    0.7017 C   0  0  0  0  0  0  0  0  0  0  0  0
   -3.5012   -1.5857    1.1067 H   0  0  0  0  0  0  0  0  0  0  0  0
   -3.0182   -2.4907   -0.3513 H   0  0  0  0  0  0  0  0  0  0  0  0
   -1.3942   -1.7897    0.8407 C   0  0  0  0  0  0  0  0  0  0  0  0
   -0.5672   -2.4077    1.5007 O   0  0  0  0  0  0  0  0  0  0  0  0
   -1.1222   -0.6447    0.2217 N   0  0  0  0  0  0  0  0  0  0  0  0
   -1.8592   -0.1777   -0.2863 H   0  0  0  0  0  0  0  0  0  0  0  0
    0.1838    0.0363    0.2367 C   0  0  1  0  0  0  0  0  0  0  0  0
    0.1956    0.7500    1.0598 H   0  0  0  0  0  0  0  0  0  0  0  0
    1.3451   -0.9554    0.4546 C   0  0  1  0  0  0  0  0  0  0  0  0
    2.2787   -0.3930    0.4530 H   0  0  0  0  0  0  0  0  0  0  0  0
    1.2686   -1.7248    1.7719 C   0  0  0  0  0  0  0  0  0  0  0  0
    0.4154   -2.4043    1.7661 H   0  0  0  0  0  0  0  0  0  0  0  0
    2.1825   -2.2993    1.9181 H   0  0  0  0  0  0  0  0  0  0  0  0
    1.1570   -1.0240    2.5997 H   0  0  0  0  0  0  0  0  0  0  0  0
    1.3981   -1.9059   -0.5802 O   0  0  0  0  0  0  0  0  0  0  0  0
    2.0679   -2.5546   -0.3541 H   0  0  0  0  0  0  0  0  0  0  0  0
    0.4019    0.8286   -1.0582 C   0  0  0  0  0  0  0  0  0  0  0  0
    0.3302    2.0574   -1.0684 O   0  0  0  0  0  0  0  0  0  0  0  0
    0.7003    0.1256   -2.1596 N   0  0  0  0  0  0  0  0  0  0  0  0
    0.7640   -0.8762   -2.0829 H   0  0  0  0  0  0  0  0  0  0  0  0
    0.9382    0.7277   -3.4706 C   0  0  0  0  0  0  0  0  0  0  0  0
    1.7041    1.5014   -3.3881 H   0  0  0  0  0  0  0  0  0  0  0  0
    1.2682   -0.0289   -4.1828 H   0  0  0  0  0  0  0  0  0  0  0  0
    0.0183    1.1897   -3.8352 H   0  0  0  0  0  0  0  0  0  0  0  0
  5  6  2  0  0  0  0
  5  7  1  0  0  0  0
  2  3  1  0  0  0  0
  2  4  1  0  0  0  0
  2  5  1  0  0  0  0
  1  2  1  0  0  0  0
 19 20  2  0  0  0  0
 19 21  1  0  0  0  0
 17 18  1  0  0  0  0
 13 14  1  0  0  0  0
 13 15  1  0  0  0  0
 13 16  1  0  0  0  0
 11 12  1  0  0  0  0
 11 13  1  0  0  0  0
 11 17  1  0  0  0  0
  9 10  1  0  0  0  0
  9 11  1  0  0  0  0
  9 19  1  0  0  0  0
  7  8  1  0  0  0  0
  7  9  1  0  0  0  0
 23 24  1  0  0  0  0
 23 25  1  0  0  0  0
 23 26  1  0  0  0  0
 21 22  1  0  0  0  0
 21 23  1  0  0  0  0
M  END
$$$$
default_name
  -OEChem-01062215323D

 26 25  0     1  0  0  0  0  0999 V2000
   -2.8882   -3.2497    1.2537 H   0  0  0  0  0  0  0  0  0  0  0  0
   -2.8032   -2.3157    0.7017 C   0  0  0  0  0  0  0  0  0  0  0  0
   -3.5012   -1.5857    1.1067 H   0  0  0  0  0  0  0  0  0  0  0  0
   -3.0182   -2.4907   -0.3513 H   0  0  0  0  0  0  0  0  0  0  0  0
   -1.3942   -1.7897    0.8407 C   0  0  0  0  0  0  0  0  0  0  0  0
   -0.5672   -2.4077    1.5007 O   0  0  0  0  0  0  0  0  0  0  0  0
   -1.1222   -0.6447    0.2217 N   0  0  0  0  0  0  0  0  0  0  0  0
   -1.8592   -0.1777   -0.2863 H   0  0  0  0  0  0  0  0  0  0  0  0
    0.1838    0.0363    0.2367 C   0  0  1  0  0  0  0  0  0  0  0  0
    0.1956    0.7500    1.0598 H   0  0  0  0  0  0  0  0  0  0  0  0
    1.3451   -0.9554    0.4546 C   0  0  1  0  0  0  0  0  0  0  0  0
    2.2787   -0.3930    0.4530 H   0  0  0  0  0  0  0  0  0  0  0  0
    1.2686   -1.7248    1.7719 C   0  0  0  0  0  0  0  0  0  0  0  0
    0.4154   -2.4043    1.7661 H   0  0  0  0  0  0  0  0  0  0  0  0
    2.1825   -2.2993    1.9181 H   0  0  0  0  0  0  0  0  0  0  0  0
    1.1570   -1.0240    2.5997 H   0  0  0  0  0  0  0  0  0  0  0  0
    1.3981   -1.9059   -0.5802 O   0  0  0  0  0  0  0  0  0  0  0  0
    2.0679   -2.5546   -0.3541 H   0  0  0  0  0  0  0  0  0  0  0  0
    0.4019    0.8286   -1.0582 C   0  0  0  0  0  0  0  0  0  0  0  0
    0.6028    2.0428   -1.0315 O   0  0  0  0  0  0  0  0  0  0  0  0
    0.3922    0.1356   -2.2054 N   0  0  0  0  0  0  0  0  0  0  0  0
    0.2422   -0.8589   -2.1602 H   0  0  0  0  0  0  0  0  0  0  0  0
    0.5853    0.7390   -3.5231 C   0  0  0  0  0  0  0  0  0  0  0  0
    1.5073    1.3237   -3.5300 H   0  0  0  0  0  0  0  0  0  0  0  0
    0.6447   -0.0332   -4.2904 H   0  0  0  0  0  0  0  0  0  0  0  0
   -0.2490    1.4070   -3.7472 H   0  0  0  0  0  0  0  0  0  0  0  0
  5  6  2  0  0  0  0
  5  7  1  0  0  0  0
  2  3  1  0  0  0  0
  2  4  1  0  0  0  0
  2  5  1  0  0  0  0
  1  2  1  0  0  0  0
 19 20  2  0  0  0  0
 19 21  1  0  0  0  0
 17 18  1  0  0  0  0
 13 14  1  0  0  0  0
 13 15  1  0  0  0  0
 13 16  1  0  0  0  0
 11 12  1  0  0  0  0
 11 13  1  0  0  0  0
 11 17  1  0  0  0  0
  9 10  1  0  0  0  0
  9 11  1  0  0  0  0
  9 19  1  0  0  0  0
  7  8  1  0  0  0  0
  7  9  1  0  0  0  0
 23 24  1  0  0  0  0
 23 25  1  0  0  0  0
 23 26  1  0  0  0  0
 21 22  1  0  0  0  0
 21 23  1  0  0  0  0
M  END
$$$$
default_name
  -OEChem-01062215323D

 26 25  0     1  0  0  0  0  0999 V2000
   -2.8882   -3.2497    1.2537 H   0  0  0  0  0  0  0  0  0  0  0  0
   -2.8032   -2.3157    0.7017 C   0  0  0  0  0  0  0  0  0  0  0  0
   -3.5012   -1.5857    1.1067 H   0  0  0  0  0  0  0  0  0  0  0  0
   -3.0182   -2.4907   -0.3513 H   0  0  0  0  0  0  0  0  0  0  0  0
   -1.3942   -1.7897    0.8407 C   0  0  0  0  0  0  0  0  0  0  0  0
   -0.5672   -2.4077    1.5007 O   0  0  0  0  0  0  0  0  0  0  0  0
   -1.1222   -0.6447    0.2217 N   0  0  0  0  0  0  0  0  0  0  0  0
   -1.8592   -0.1777   -0.2863 H   0  0  0  0  0  0  0  0  0  0  0  0
    0.1838    0.0363    0.2367 C   0  0  1  0  0  0  0  0  0  0  0  0
    0.1956    0.7500    1.0598 H   0  0  0  0  0  0  0  0  0  0  0  0
    1.3451   -0.9554    0.4546 C   0  0  1  0  0  0  0  0  0  0  0  0
    2.2787   -0.3930    0.4530 H   0  0  0  0  0  0  0  0  0  0  0  0
    1.2686   -1.7248    1.7719 C   0  0  0  0  0  0  0  0  0  0  0  0
    0.4154   -2.4043    1.7661 H   0  0  0  0  0  0  0  0  0  0  0  0
    2.1825   -2.2993    1.9181 H   0  0  0  0  0  0  0  0  0  0  0  0
    1.1570   -1.0240    2.5997 H   0  0  0  0  0  0  0  0  0  0  0  0
    1.3981   -1.9059   -0.5802 O   0  0  0  0  0  0  0  0  0  0  0  0
    2.0679   -2.5546   -0.3541 H   0  0  0  0  0  0  0  0  0  0  0  0
    0.4019    0.8286   -1.0582 C   0  0  0  0  0  0  0  0  0  0  0  0
    0.8679    1.9676   -1.0328 O   0  0  0  0  0  0  0  0  0  0  0  0
    0.0906    0.2143   -2.2081 N   0  0  0  0  0  0  0  0  0  0  0  0
   -0.2683   -0.7253   -2.1644 H   0  0  0  0  0  0  0  0  0  0  0  0
    0.2399    0.8289   -3.5262 C   0  0  0  0  0  0  0  0  0  0  0  0
    1.2595    1.2002   -3.6473 H   0  0  0  0  0  0  0  0  0  0  0  0
    0.0272    0.1029   -4.3111 H   0  0  0  0  0  0  0  0  0  0  0  0
   -0.4480    1.6721   -3.6185 H   0  0  0  0  0  0  0  0  0  0  0  0
  5  6  2  0  0  0  0
  5  7  1  0  0  0  0
  2  3  1  0  0  0  0
  2  4  1  0  0  0  0
  2  5  1  0  0  0  0
  1  2  1  0  0  0  0
 19 20  2  0  0  0  0
 19 21  1  0  0  0  0
 17 18  1  0  0  0  0
 13 14  1  0  0  0  0
 13 15  1  0  0  0  0
 13 16  1  0  0  0  0
 11 12  1  0  0  0  0
 11 13  1  0  0  0  0
 11 17  1  0  0  0  0
  9 10  1  0  0  0  0
  9 11  1  0  0  0  0
  9 19  1  0  0  0  0
  7  8  1  0  0  0  0
  7  9  1  0  0  0  0
 23 24  1  0  0  0  0
 23 25  1  0  0  0  0
 23 26  1  0  0  0  0
 21 22  1  0  0  0  0
 21 23  1  0  0  0  0
M  END
$$$$
default_name
  -OEChem-01062215323D

 26 25  0     1  0  0  0  0  0999 V2000
   -2.8882   -3.2497    1.2537 H   0  0  0  0  0  0  0  0  0  0  0  0
   -2.8032   -2.3157    0.7017 C   0  0  0  0  0  0  0  0  0  0  0  0
   -3.5012   -1.5857    1.1067 H   0  0  0  0  0  0  0  0  0  0  0  0
   -3.0182   -2.4907   -0.3513 H   0  0  0  0  0  0  0  0  0  0  0  0
   -1.3942   -1.7897    0.8407 C   0  0  0  0  0  0  0  0  0  0  0  0
   -0.5672   -2.4077    1.5007 O   0  0  0  0  0  0  0  0  0  0  0  0
   -1.1222   -0.6447    0.2217 N   0  0  0  0  0  0  0  0  0  0  0  0
   -1.8592   -0.1777   -0.2863 H   0  0  0  0  0  0  0  0  0  0  0  0
    0.1838    0.0363    0.2367 C   0  0  1  0  0  0  0  0  0  0  0  0
    0.1956    0.7500    1.0598 H   0  0  0  0  0  0  0  0  0  0  0  0
    1.3451   -0.9554    0.4546 C   0  0  1  0  0  0  0  0  0  0  0  0
    2.2787   -0.3930    0.4530 H   0  0  0  0  0  0  0  0  0  0  0  0
    1.2686   -1.7248    1.7719 C   0  0  0  0  0  0  0  0  0  0  0  0
    0.4154   -2.4043    1.7661 H   0  0  0  0  0  0  0  0  0  0  0  0
    2.1825   -2.2993    1.9181 H   0  0  0  0  0  0  0  0  0  0  0  0
    1.1570   -1.0240    2.5997 H   0  0  0  0  0  0  0  0  0  0  0  0
    1.3981   -1.9059   -0.5802 O   0  0  0  0  0  0  0  0  0  0  0  0
    2.0679   -2.5546   -0.3541 H   0  0  0  0  0  0  0  0  0  0  0  0
    0.4019    0.8286   -1.0582 C   0  0  0  0  0  0  0  0  0  0  0  0
    1.1074    1.8372   -1.0722 O   0  0  0  0  0  0  0  0  0  0  0  0
   -0.1838    0.3562   -2.1674 N   0  0  0  0  0  0  0  0  0  0  0  0
   -0.7328   -0.4846   -2.0954 H   0  0  0  0  0  0  0  0  0  0  0  0
   -0.0746    0.9914   -3.4797 C   0  0  0  0  0  0  0  0  0  0  0  0
    0.9774    1.1395   -3.7320 H   0  0  0  0  0  0  0  0  0  0  0  0
   -0.5424    0.3700   -4.2436 H   0  0  0  0  0  0  0  0  0  0  0  0
   -0.5650    1.9669   -3.4579 H   0  0  0  0  0  0  0  0  0  0  0  0
  5  6  2  0  0  0  0
  5  7  1  0  0  0  0
  2  3  1  0  0  0  0
  2  4  1  0  0  0  0
  2  5  1  0  0  0  0
  1  2  1  0  0  0  0
 19 20  2  0  0  0  0
 19 21  1  0  0  0  0
 17 18  1  0  0  0  0
 13 14  1  0  0  0  0
 13 15  1  0  0  0  0
 13 16  1  0  0  0  0
 11 12  1  0  0  0  0
 11 13  1  0  0  0  0
 11 17  1  0  0  0  0
  9 10  1  0  0  0  0
  9 11  1  0  0  0  0
  9 19  1  0  0  0  0
  7  8  1  0  0  0  0
  7  9  1  0  0  0  0
 23 24  1  0  0  0  0
 23 25  1  0  0  0  0
 23 26  1  0  0  0  0
 21 22  1  0  0  0  0
 21 23  1  0  0  0  0
M  END
$$$$
default_name
  -OEChem-01062215323D

 26 25  0     1  0  0  0  0  0999 V2000
   -2.8882   -3.2497    1.2537 H   0  0  0  0  0  0  0  0  0  0  0  0
   -2.8032   -2.3157    0.7017 C   0  0  0  0  0  0  0  0  0  0  0  0
   -3.5012   -1.5857    1.1067 H   0  0  0  0  0  0  0  0  0  0  0  0
   -3.0182   -2.4907   -0.3513 H   0  0  0  0  0  0  0  0  0  0  0  0
   -1.3942   -1.7897    0.8407 C   0  0  0  0  0  0  0  0  0  0  0  0
   -0.5672   -2.4077    1.5007 O   0  0  0  0  0  0  0  0  0  0  0  0
   -1.1222   -0.6447    0.2217 N   0  0  0  0  0  0  0  0  0  0  0  0
   -1.8592   -0.1777   -0.2863 H   0  0  0  0  0  0  0  0  0  0  0  0
    0.1838    0.0363    0.2367 C   0  0  1  0  0  0  0  0  0  0  0  0
    0.1956    0.7500    1.0598 H   0  0  0  0  0  0  0  0  0  0  0  0
    1.3451   -0.9554    0.4546 C   0  0  1  0  0  0  0  0  0  0  0  0
    2.2787   -0.3930    0.4530 H   0  0  0  0  0  0  0  0  0  0  0  0
    1.2686   -1.7248    1.7719 C   0  0  0  0  0  0  0  0  0  0  0  0
    0.4154   -2.4043    1.7661 H   0  0  0  0  0  0  0  0  0  0  0  0
    2.1825   -2.2993    1.9181 H   0  0  0  0  0  0  0  0  0  0  0  0
    1.1570   -1.0240    2.5997 H   0  0  0  0  0  0  0  0  0  0  0  0
    1.3981   -1.9059   -0.5802 O   0  0  0  0  0  0  0  0  0  0  0  0
    2.0679   -2.5546   -0.3541 H   0  0  0  0  0  0  0  0  0  0  0  0
    0.4019    0.8286   -1.0582 C   0  0  0  0  0  0  0  0  0  0  0  0
    1.3050    1.6603   -1.1472 O   0  0  0  0  0  0  0  0  0  0  0  0
   -0.4124    0.5519   -2.0862 N   0  0  0  0  0  0  0  0  0  0  0  0
   -1.1196   -0.1531   -1.9577 H   0  0  0  0  0  0  0  0  0  0  0  0
   -0.3365    1.2154   -3.3868 C   0  0  0  0  0  0  0  0  0  0  0  0
    0.6803    1.1455   -3.7783 H   0  0  0  0  0  0  0  0  0  0  0  0
   -1.0251    0.7501   -4.0924 H   0  0  0  0  0  0  0  0  0  0  0  0
   -0.5922    2.2713   -3.2762 H   0  0  0  0  0  0  0  0  0  0  0  0
  5  6  2  0  0  0  0
  5  7  1  0  0  0  0
  2  3  1  0  0  0  0
  2  4  1  0  0  0  0
  2  5  1  0  0  0  0
  1  2  1  0  0  0  0
 19 20  2  0  0  0  0
 19 21  1  0  0  0  0
 17 18  1  0  0  0  0
 13 14  1  0  0  0  0
 13 15  1  0  0  0  0
 13 16  1  0  0  0  0
 11 12  1  0  0  0  0
 11 13  1  0  0  0  0
 11 17  1  0  0  0  0
  9 10  1  0  0  0  0
  9 11  1  0  0  0  0
  9 19  1  0  0  0  0
  7  8  1  0  0  0  0
  7  9  1  0  0  0  0
 23 24  1  0  0  0  0
 23 25  1  0  0  0  0
 23 26  1  0  0  0  0
 21 22  1  0  0  0  0
 21 23  1  0  0  0  0
M  END
$$$$
default_name
  -OEChem-01062215323D

 26 25  0     1  0  0  0  0  0999 V2000
   -2.8882   -3.2497    1.2537 H   0  0  0  0  0  0  0  0  0  0  0  0
   -2.8032   -2.3157    0.7017 C   0  0  0  0  0  0  0  0  0  0  0  0
   -3.5012   -1.5857    1.1067 H   0  0  0  0  0  0  0  0  0  0  0  0
   -3.0182   -2.4907   -0.3513 H   0  0  0  0  0  0  0  0  0  0  0  0
   -1.3942   -1.7897    0.8407 C   0  0  0  0  0  0  0  0  0  0  0  0
   -0.5672   -2.4077    1.5007 O   0  0  0  0  0  0  0  0  0  0  0  0
   -1.1222   -0.6447    0.2217 N   0  0  0  0  0  0  0  0  0  0  0  0
   -1.8592   -0.1777   -0.2863 H   0  0  0  0  0  0  0  0  0  0  0  0
    0.1838    0.0363    0.2367 C   0  0  1  0  0  0  0  0  0  0  0  0
    0.1956    0.7500    1.0598 H   0  0  0  0  0  0  0  0  0  0  0  0
    1.3451   -0.9554    0.4546 C   0  0  1  0  0  0  0  0  0  0  0  0
    2.2787   -0.3930    0.4530 H   0  0  0  0  0  0  0  0  0  0  0  0
    1.2686   -1.7248    1.7719 C   0  0  0  0  0  0  0  0  0  0  0  0
    0.4154   -2.4043    1.7661 H   0  0  0  0  0  0  0  0  0  0  0  0
    2.1825   -2.2993    1.9181 H   0  0  0  0  0  0  0  0  0  0  0  0
    1.1570   -1.0240    2.5997 H   0  0  0  0  0  0  0  0  0  0  0  0
    1.3981   -1.9059   -0.5802 O   0  0  0  0  0  0  0  0  0  0  0  0
    2.0679   -2.5546   -0.3541 H   0  0  0  0  0  0  0  0  0  0  0  0
    0.4019    0.8286   -1.0582 C   0  0  0  0  0  0  0  0  0  0  0  0
    1.4471    1.4490   -1.2525 O   0  0  0  0  0  0  0  0  0  0  0  0
   -0.5797    0.7878   -1.9700 N   0  0  0  0  0  0  0  0  0  0  0  0
   -1.4023    0.2466   -1.7607 H   0  0  0  0  0  0  0  0  0  0  0  0
   -0.5282    1.4856   -3.2538 C   0  0  0  0  0  0  0  0  0  0  0  0
    0.3884    1.2180   -3.7831 H   0  0  0  0  0  0  0  0  0  0  0  0
   -1.3881    1.2170   -3.8678 H   0  0  0  0  0  0  0  0  0  0  0  0
   -0.5276    2.5647   -3.0858 H   0  0  0  0  0  0  0  0  0  0  0  0
  5  6  2  0  0  0  0
  5  7  1  0  0  0  0
  2  3  1  0  0  0  0
  2  4  1  0  0  0  0
  2  5  1  0  0  0  0
  1  2  1  0  0  0  0
 19 20  2  0  0  0  0
 19 21  1  0  0  0  0
 17 18  1  0  0  0  0
 13 14  1  0  0  0  0
 13 15  1  0  0  0  0
 13 16  1  0  0  0  0
 11 12  1  0  0  0  0
 11 13  1  0  0  0  0
 11 17  1  0  0  0  0
  9 10  1  0  0  0  0
  9 11  1  0  0  0  0
  9 19  1  0  0  0  0
  7  8  1  0  0  0  0
  7  9  1  0  0  0  0
 23 24  1  0  0  0  0
 23 25  1  0  0  0  0
 23 26  1  0  0  0  0
 21 22  1  0  0  0  0
 21 23  1  0  0  0  0
M  END
$$$$
default_name
  -OEChem-01062215323D

 26 25  0     1  0  0  0  0  0999 V2000
   -2.8882   -3.2497    1.2537 H   0  0  0  0  0  0  0  0  0  0  0  0
   -2.8032   -2.3157    0.7017 C   0  0  0  0  0  0  0  0  0  0  0  0
   -3.5012   -1.5857    1.1067 H   0  0  0  0  0  0  0  0  0  0  0  0
   -3.0182   -2.4907   -0.3513 H   0  0  0  0  0  0  0  0  0  0  0  0
   -1.3942   -1.7897    0.8407 C   0  0  0  0  0  0  0  0  0  0  0  0
   -0.5672   -2.4077    1.5007 O   0  0  0  0  0  0  0  0  0  0  0  0
   -1.1222   -0.6447    0.2217 N   0  0  0  0  0  0  0  0  0  0  0  0
   -1.8592   -0.1777   -0.2863 H   0  0  0  0  0  0  0  0  0  0  0  0
    0.1838    0.0363    0.2367 C   0  0  1  0  0  0  0  0  0  0  0  0
    0.1956    0.7500    1.0598 H   0  0  0  0  0  0  0  0  0  0  0  0
    1.3451   -0.9554    0.4546 C   0  0  1  0  0  0  0  0  0  0  0  0
    2.2787   -0.3930    0.4530 H   0  0  0  0  0  0  0  0  0  0  0  0
    1.2686   -1.7248    1.7719 C   0  0  0  0  0  0  0  0  0  0  0  0
    0.4154   -2.4043    1.7661 H   0  0  0  0  0  0  0  0  0  0  0  0
    2.1825   -2.2993    1.9181 H   0  0  0  0  0  0  0  0  0  0  0  0
    1.1570   -1.0240    2.5997 H   0  0  0  0  0  0  0  0  0  0  0  0
    1.3981   -1.9059   -0.5802 O   0  0  0  0  0  0  0  0  0  0  0  0
    2.0679   -2.5546   -0.3541 H   0  0  0  0  0  0  0  0  0  0  0  0
    0.4019    0.8286   -1.0582 C   0  0  0  0  0  0  0  0  0  0  0  0
    1.5242    1.2178   -1.3811 O   0  0  0  0  0  0  0  0  0  0  0  0
   -0.6741    1.0480   -1.8267 N   0  0  0  0  0  0  0  0  0  0  0  0
   -1.5618    0.6872   -1.5180 H   0  0  0  0  0  0  0  0  0  0  0  0
   -0.6366    1.7835   -3.0897 C   0  0  0  0  0  0  0  0  0  0  0  0
    0.1218    1.3520   -3.7460 H   0  0  0  0  0  0  0  0  0  0  0  0
   -1.6067    1.7392   -3.5851 H   0  0  0  0  0  0  0  0  0  0  0  0
   -0.3757    2.8268   -2.8998 H   0  0  0  0  0  0  0  0  0  0  0  0
  5  6  2  0  0  0  0
  5  7  1  0  0  0  0
  2  3  1  0  0  0  0
  2  4  1  0  0  0  0
  2  5  1  0  0  0  0
  1  2  1  0  0  0  0
 19 20  2  0  0  0  0
 19 21  1  0  0  0  0
 17 18  1  0  0  0  0
 13 14  1  0  0  0  0
 13 15  1  0  0  0  0
 13 16  1  0  0  0  0
 11 12  1  0  0  0  0
 11 13  1  0  0  0  0
 11 17  1  0  0  0  0
  9 10  1  0  0  0  0
  9 11  1  0  0  0  0
  9 19  1  0  0  0  0
  7  8  1  0  0  0  0
  7  9  1  0  0  0  0
 23 24  1  0  0  0  0
 23 25  1  0  0  0  0
 23 26  1  0  0  0  0
 21 22  1  0  0  0  0
 21 23  1  0  0  0  0
M  END
$$$$
default_name
  -OEChem-01062215323D

 26 25  0     1  0  0  0  0  0999 V2000
   -2.8882   -3.2497    1.2537 H   0  0  0  0  0  0  0  0  0  0  0  0
   -2.8032   -2.3157    0.7017 C   0  0  0  0  0  0  0  0  0  0  0  0
   -3.5012   -1.5857    1.1067 H   0  0  0  0  0  0  0  0  0  0  0  0
   -3.0182   -2.4907   -0.3513 H   0  0  0  0  0  0  0  0  0  0  0  0
   -1.3942   -1.7897    0.8407 C   0  0  0  0  0  0  0  0  0  0  0  0
   -0.5672   -2.4077    1.5007 O   0  0  0  0  0  0  0  0  0  0  0  0
   -1.1222   -0.6447    0.2217 N   0  0  0  0  0  0  0  0  0  0  0  0
   -1.8592   -0.1777   -0.2863 H   0  0  0  0  0  0  0  0  0  0  0  0
    0.1838    0.0363    0.2367 C   0  0  1  0  0  0  0  0  0  0  0  0
    0.1956    0.7500    1.0598 H   0  0  0  0  0  0  0  0  0  0  0  0
    1.3451   -0.9554    0.4546 C   0  0  1  0  0  0  0  0  0  0  0  0
    2.2787   -0.3930    0.4530 H   0  0  0  0  0  0  0  0  0  0  0  0
    1.2686   -1.7248    1.7719 C   0  0  0  0  0  0  0  0  0  0  0  0
    0.4154   -2.4043    1.7661 H   0  0  0  0  0  0  0  0  0  0  0  0
    2.1825   -2.2993    1.9181 H   0  0  0  0  0  0  0  0  0  0  0  0
    1.1570   -1.0240    2.5997 H   0  0  0  0  0  0  0  0  0  0  0  0
    1.3981   -1.9059   -0.5802 O   0  0  0  0  0  0  0  0  0  0  0  0
    2.0679   -2.5546   -0.3541 H   0  0  0  0  0  0  0  0  0  0  0  0
    0.4019    0.8286   -1.0582 C   0  0  0  0  0  0  0  0  0  0  0  0
    1.5309    0.9823   -1.5240 O   0  0  0  0  0  0  0  0  0  0  0  0
   -0.6893    1.3147   -1.6661 N   0  0  0  0  0  0  0  0  0  0  0  0
   -1.5871    1.1387   -1.2460 H   0  0  0  0  0  0  0  0  0  0  0  0
   -0.6542    2.0890   -2.9058 C   0  0  0  0  0  0  0  0  0  0  0  0
   -0.1016    1.5383   -3.6697 H   0  0  0  0  0  0  0  0  0  0  0  0
   -1.6659    2.2809   -3.2636 H   0  0  0  0  0  0  0  0  0  0  0  0
   -0.1468    3.0401   -2.7308 H   0  0  0  0  0  0  0  0  0  0  0  0
  5  6  2  0  0  0  0
  5  7  1  0  0  0  0
  2  3  1  0  0  0  0
  2  4  1  0  0  0  0
  2  5  1  0  0  0  0
  1  2  1  0  0  0  0
 19 20  2  0  0  0  0
 19 21  1  0  0  0  0
 17 18  1  0  0  0  0
 13 14  1  0  0  0  0
 13 15  1  0  0  0  0
 13 16  1  0  0  0  0
 11 12  1  0  0  0  0
 11 13  1  0  0  0  0
 11 17  1  0  0  0  0
  9 10  1  0  0  0  0
  9 11  1  0  0  0  0
  9 19  1  0  0  0  0
  7  8  1  0  0  0  0
  7  9  1  0  0  0  0
 23 24  1  0  0  0  0
 23 25  1  0  0  0  0
 23 26  1  0  0  0  0
 21 22  1  0  0  0  0
 21 23  1  0  0  0  0
M  END
$$$$
default_name
  -OEChem-01062215323D

 26 25  0     1  0  0  0  0  0999 V2000
   -2.8882   -3.2497    1.2537 H   0  0  0  0  0  0  0  0  0  0  0  0
   -2.8032   -2.3157    0.7017 C   0  0  0  0  0  0  0  0  0  0  0  0
   -3.5012   -1.5857    1.1067 H   0  0  0  0  0  0  0  0  0  0  0  0
   -3.0182   -2.4907   -0.3513 H   0  0  0  0  0  0  0  0  0  0  0  0
   -1.3942   -1.7897    0.8407 C   0  0  0  0  0  0  0  0  0  0  0  0
   -0.5672   -2.4077    1.5007 O   0  0  0  0  0  0  0  0  0  0  0  0
   -1.1222   -0.6447    0.2217 N   0  0  0  0  0  0  0  0  0  0  0  0
   -1.8592   -0.1777   -0.2863 H   0  0  0  0  0  0  0  0  0  0  0  0
    0.1838    0.0363    0.2367 C   0  0  1  0  0  0  0  0  0  0  0  0
    0.1956    0.7500    1.0598 H   0  0  0  0  0  0  0  0  0  0  0  0
    1.3451   -0.9554    0.4546 C   0  0  1  0  0  0  0  0  0  0  0  0
    2.2787   -0.3930    0.4530 H   0  0  0  0  0  0  0  0  0  0  0  0
    1.2686   -1.7248    1.7719 C   0  0  0  0  0  0  0  0  0  0  0  0
    0.4154   -2.4043    1.7661 H   0  0  0  0  0  0  0  0  0  0  0  0
    2.1825   -2.2993    1.9181 H   0  0  0  0  0  0  0  0  0  0  0  0
    1.1570   -1.0240    2.5997 H   0  0  0  0  0  0  0  0  0  0  0  0
    1.3981   -1.9059   -0.5802 O   0  0  0  0  0  0  0  0  0  0  0  0
    2.0679   -2.5546   -0.3541 H   0  0  0  0  0  0  0  0  0  0  0  0
    0.4019    0.8286   -1.0582 C   0  0  0  0  0  0  0  0  0  0  0  0
    1.4668    0.7587   -1.6717 O   0  0  0  0  0  0  0  0  0  0  0  0
   -0.6243    1.5697   -1.4991 N   0  0  0  0  0  0  0  0  0  0  0  0
   -1.4765    1.5703   -0.9633 H   0  0  0  0  0  0  0  0  0  0  0  0
   -0.5798    2.3811   -2.7145 C   0  0  0  0  0  0  0  0  0  0  0  0
   -0.2665    1.7642   -3.5592 H   0  0  0  0  0  0  0  0  0  0  0  0
   -1.5617    2.8053   -2.9252 H   0  0  0  0  0  0  0  0  0  0  0  0
    0.1435    3.1898   -2.5903 H   0  0  0  0  0  0  0  0  0  0  0  0
  5  6  2  0  0  0  0
  5  7  1  0  0  0  0
  2  3  1  0  0  0  0
  2  4  1  0  0  0  0
  2  5  1  0  0  0  0
  1  2  1  0  0  0  0
 19 20  2  0  0  0  0
 19 21  1  0  0  0  0
 17 18  1  0  0  0  0
 13 14  1  0  0  0  0
 13 15  1  0  0  0  0
 13 16  1  0  0  0  0
 11 12  1  0  0  0  0
 11 13  1  0  0  0  0
 11 17  1  0  0  0  0
  9 10  1  0  0  0  0
  9 11  1  0  0  0  0
  9 19  1  0  0  0  0
  7  8  1  0  0  0  0
  7  9  1  0  0  0  0
 23 24  1  0  0  0  0
 23 25  1  0  0  0  0
 23 26  1  0  0  0  0
 21 22  1  0  0  0  0
 21 23  1  0  0  0  0
M  END
$$$$
default_name
  -OEChem-01062215323D

 26 25  0     1  0  0  0  0  0999 V2000
   -2.8882   -3.2497    1.2537 H   0  0  0  0  0  0  0  0  0  0  0  0
   -2.8032   -2.3157    0.7017 C   0  0  0  0  0  0  0  0  0  0  0  0
   -3.5012   -1.5857    1.1067 H   0  0  0  0  0  0  0  0  0  0  0  0
   -3.0182   -2.4907   -0.3513 H   0  0  0  0  0  0  0  0  0  0  0  0
   -1.3942   -1.7897    0.8407 C   0  0  0  0  0  0  0  0  0  0  0  0
   -0.5672   -2.4077    1.5007 O   0  0  0  0  0  0  0  0  0  0  0  0
   -1.1222   -0.6447    0.2217 N   0  0  0  0  0  0  0  0  0  0  0  0
   -1.8592   -0.1777   -0.2863 H   0  0  0  0  0  0  0  0  0  0  0  0
    0.1838    0.0363    0.2367 C   0  0  1  0  0  0  0  0  0  0  0  0
    0.1956    0.7500    1.0598 H   0  0  0  0  0  0  0  0  0  0  0  0
    1.3451   -0.9554    0.4546 C   0  0  1  0  0  0  0  0  0  0  0  0
    2.2787   -0.3930    0.4530 H   0  0  0  0  0  0  0  0  0  0  0  0
    1.2686   -1.7248    1.7719 C   0  0  0  0  0  0  0  0  0  0  0  0
    0.4154   -2.4043    1.7661 H   0  0  0  0  0  0  0  0  0  0  0  0
    2.1825   -2.2993    1.9181 H   0  0  0  0  0  0  0  0  0  0  0  0
    1.1570   -1.0240    2.5997 H   0  0  0  0  0  0  0  0  0  0  0  0
    1.3981   -1.9059   -0.5802 O   0  0  0  0  0  0  0  0  0  0  0  0
    2.0679   -2.5546   -0.3541 H   0  0  0  0  0  0  0  0  0  0  0  0
    0.4019    0.8286   -1.0582 C   0  0  0  0  0  0  0  0  0  0  0  0
    1.3362    0.5621   -1.8139 O   0  0  0  0  0  0  0  0  0  0  0  0
   -0.4834    1.7956   -1.3371 N   0  0  0  0  0  0  0  0  0  0  0  0
   -1.2376    1.9527   -0.6891 H   0  0  0  0  0  0  0  0  0  0  0  0
   -0.4186    2.6400   -2.5290 C   0  0  0  0  0  0  0  0  0  0  0  0
   -0.3615    2.0145   -3.4221 H   0  0  0  0  0  0  0  0  0  0  0  0
   -1.3013    3.2765   -2.5930 H   0  0  0  0  0  0  0  0  0  0  0  0
    0.4754    3.2658   -2.4879 H   0  0  0  0  0  0  0  0  0  0  0  0
  5  6  2  0  0  0  0
  5  7  1  0  0  0  0
  2  3  1  0  0  0  0
  2  4  1  0  0  0  0
  2  5  1  0  0  0  0
  1  2  1  0  0  0  0
 19 20  2  0  0  0  0
 19 21  1  0  0  0  0
 17 18  1  0  0  0  0
 13 14  1  0  0  0  0
 13 15  1  0  0  0  0
 13 16  1  0  0  0  0
 11 12  1  0  0  0  0
 11 13  1  0  0  0  0
 11 17  1  0  0  0  0
  9 10  1  0  0  0  0
  9 11  1  0  0  0  0
  9 19  1  0  0  0  0
  7  8  1  0  0  0  0
  7  9  1  0  0  0  0
 23 24  1  0  0  0  0
 23 25  1  0  0  0  0
 23 26  1  0  0  0  0
 21 22  1  0  0  0  0
 21 23  1  0  0  0  0
M  END
$$$$
default_name
  -OEChem-01062215323D

 26 25  0     1  0  0  0  0  0999 V2000
   -2.8882   -3.2497    1.2537 H   0  0  0  0  0  0  0  0  0  0  0  0
   -2.8032   -2.3157    0.7017 C   0  0  0  0  0  0  0  0  0  0  0  0
   -3.5012   -1.5857    1.1067 H   0  0  0  0  0  0  0  0  0  0  0  0
   -3.0182   -2.4907   -0.3513 H   0  0  0  0  0  0  0  0  0  0  0  0
   -1.3942   -1.7897    0.8407 C   0  0  0  0  0  0  0  0  0  0  0  0
   -0.5672   -2.4077    1.5007 O   0  0  0  0  0  0  0  0  0  0  0  0
   -1.1222   -0.6447    0.2217 N   0  0  0  0  0  0  0  0  0  0  0  0
   -1.8592   -0.1777   -0.2863 H   0  0  0  0  0  0  0  0  0  0  0  0
    0.1838    0.0363    0.2367 C   0  0  1  0  0  0  0  0  0  0  0  0
    0.1956    0.7500    1.0598 H   0  0  0  0  0  0  0  0  0  0  0  0
    1.3451   -0.9554    0.4546 C   0  0  1  0  0  0  0  0  0  0  0  0
    2.2787   -0.3930    0.4530 H   0  0  0  0  0  0  0  0  0  0  0  0
    1.2686   -1.7248    1.7719 C   0  0  0  0  0  0  0  0  0  0  0  0
    0.4154   -2.4043    1.7661 H   0  0  0  0  0  0  0  0  0  0  0  0
    2.1825   -2.2993    1.9181 H   0  0  0  0  0  0  0  0  0  0  0  0
    1.1570   -1.0240    2.5997 H   0  0  0  0  0  0  0  0  0  0  0  0
    1.3981   -1.9059   -0.5802 O   0  0  0  0  0  0  0  0  0  0  0  0
    2.0679   -2.5546   -0.3541 H   0  0  0  0  0  0  0  0  0  0  0  0
    0.4019    0.8286   -1.0582 C   0  0  0  0  0  0  0  0  0  0  0  0
    1.1481    0.4059   -1.9411 O   0  0  0  0  0  0  0  0  0  0  0  0
   -0.2762    1.9771   -1.1912 N   0  0  0  0  0  0  0  0  0  0  0  0
   -0.8866    2.2597   -0.4421 H   0  0  0  0  0  0  0  0  0  0  0  0
   -0.1815    2.8480   -2.3618 C   0  0  0  0  0  0  0  0  0  0  0  0
   -0.3803    2.2719   -3.2677 H   0  0  0  0  0  0  0  0  0  0  0  0
   -0.9023    3.6626   -2.2896 H   0  0  0  0  0  0  0  0  0  0  0  0
    0.8263    3.2629   -2.4306 H   0  0  0  0  0  0  0  0  0  0  0  0
  5  6  2  0  0  0  0
  5  7  1  0  0  0  0
  2  3  1  0  0  0  0
  2  4  1  0  0  0  0
  2  5  1  0  0  0  0
  1  2  1  0  0  0  0
 19 20  2  0  0  0  0
 19 21  1  0  0  0  0
 17 18  1  0  0  0  0
 13 14  1  0  0  0  0
 13 15  1  0  0  0  0
 13 16  1  0  0  0  0
 11 12  1  0  0  0  0
 11 13  1  0  0  0  0
 11 17  1  0  0  0  0
  9 10  1  0  0  0  0
  9 11  1  0  0  0  0
  9 19  1  0  0  0  0
  7  8  1  0  0  0  0
  7  9  1  0  0  0  0
 23 24  1  0  0  0  0
 23 25  1  0  0  0  0
 23 26  1  0  0  0  0
 21 22  1  0  0  0  0
 21 23  1  0  0  0  0
M  END
$$$$
default_name
  -OEChem-01062215323D

 26 25  0     1  0  0  0  0  0999 V2000
   -2.8882   -3.2497    1.2537 H   0  0  0  0  0  0  0  0  0  0  0  0
   -2.8032   -2.3157    0.7017 C   0  0  0  0  0  0  0  0  0  0  0  0
   -3.5012   -1.5857    1.1067 H   0  0  0  0  0  0  0  0  0  0  0  0
   -3.0182   -2.4907   -0.3513 H   0  0  0  0  0  0  0  0  0  0  0  0
   -1.3942   -1.7897    0.8407 C   0  0  0  0  0  0  0  0  0  0  0  0
   -0.5672   -2.4077    1.5007 O   0  0  0  0  0  0  0  0  0  0  0  0
   -1.1222   -0.6447    0.2217 N   0  0  0  0  0  0  0  0  0  0  0  0
   -1.8592   -0.1777   -0.2863 H   0  0  0  0  0  0  0  0  0  0  0  0
    0.1838    0.0363    0.2367 C   0  0  1  0  0  0  0  0  0  0  0  0
    0.1956    0.7500    1.0598 H   0  0  0  0  0  0  0  0  0  0  0  0
    1.3451   -0.9554    0.4546 C   0  0  1  0  0  0  0  0  0  0  0  0
    2.2787   -0.3930    0.4530 H   0  0  0  0  0  0  0  0  0  0  0  0
    1.2686   -1.7248    1.7719 C   0  0  0  0  0  0  0  0  0  0  0  0
    0.4154   -2.4043    1.7661 H   0  0  0  0  0  0  0  0  0  0  0  0
    2.1825   -2.2993    1.9181 H   0  0  0  0  0  0  0  0  0  0  0  0
    1.1570   -1.0240    2.5997 H   0  0  0  0  0  0  0  0  0  0  0  0
    1.3981   -1.9059   -0.5802 O   0  0  0  0  0  0  0  0  0  0  0  0
    2.0679   -2.5546   -0.3541 H   0  0  0  0  0  0  0  0  0  0  0  0
    0.4019    0.8286   -1.0582 C   0  0  0  0  0  0  0  0  0  0  0  0
    0.9154    0.3009   -2.0446 O   0  0  0  0  0  0  0  0  0  0  0  0
   -0.0170    2.1018   -1.0713 N   0  0  0  0  0  0  0  0  0  0  0  0
   -0.4474    2.4705   -0.2392 H   0  0  0  0  0  0  0  0  0  0  0  0
    0.1153    2.9909   -2.2244 C   0  0  0  0  0  0  0  0  0  0  0  0
   -0.3216    2.5190   -3.1066 H   0  0  0  0  0  0  0  0  0  0  0  0
   -0.3920    3.9372   -2.0356 H   0  0  0  0  0  0  0  0  0  0  0  0
    1.1723    3.1813   -2.4222 H   0  0  0  0  0  0  0  0  0  0  0  0
  5  6  2  0  0  0  0
  5  7  1  0  0  0  0
  2  3  1  0  0  0  0
  2  4  1  0  0  0  0
  2  5  1  0  0  0  0
  1  2  1  0  0  0  0
 19 20  2  0  0  0  0
 19 21  1  0  0  0  0
 17 18  1  0  0  0  0
 13 14  1  0  0  0  0
 13 15  1  0  0  0  0
 13 16  1  0  0  0  0
 11 12  1  0  0  0  0
 11 13  1  0  0  0  0
 11 17  1  0  0  0  0
  9 10  1  0  0  0  0
  9 11  1  0  0  0  0
  9 19  1  0  0  0  0
  7  8  1  0  0  0  0
  7  9  1  0  0  0  0
 23 24  1  0  0  0  0
 23 25  1  0  0  0  0
 23 26  1  0  0  0  0
 21 22  1  0  0  0  0
 21 23  1  0  0  0  0
M  END
$$$$
default_name
  -OEChem-01062215323D

 26 25  0     1  0  0  0  0  0999 V2000
   -2.8882   -3.2497    1.2537 H   0  0  0  0  0  0  0  0  0  0  0  0
   -2.8032   -2.3157    0.7017 C   0  0  0  0  0  0  0  0  0  0  0  0
   -3.5012   -1.5857    1.1067 H   0  0  0  0  0  0  0  0  0  0  0  0
   -3.0182   -2.4907   -0.3513 H   0  0  0  0  0  0  0  0  0  0  0  0
   -1.3942   -1.7897    0.8407 C   0  0  0  0  0  0  0  0  0  0  0  0
   -0.5672   -2.4077    1.5007 O   0  0  0  0  0  0  0  0  0  0  0  0
   -1.1222   -0.6447    0.2217 N   0  0  0  0  0  0  0  0  0  0  0  0
   -1.8592   -0.1777   -0.2863 H   0  0  0  0  0  0  0  0  0  0  0  0
    0.1838    0.0363    0.2367 C   0  0  1  0  0  0  0  0  0  0  0  0
    0.1956    0.7500    1.0598 H   0  0  0  0  0  0  0  0  0  0  0  0
    1.3451   -0.9554    0.4546 C   0  0  1  0  0  0  0  0  0  0  0  0
    2.2787   -0.3930    0.4530 H   0  0  0  0  0  0  0  0  0  0  0  0
    1.2686   -1.7248    1.7719 C   0  0  0  0  0  0  0  0  0  0  0  0
    0.4154   -2.4043    1.7661 H   0  0  0  0  0  0  0  0  0  0  0  0
    2.1825   -2.2993    1.9181 H   0  0  0  0  0  0  0  0  0  0  0  0
    1.1570   -1.0240    2.5997 H   0  0  0  0  0  0  0  0  0  0  0  0
    1.3981   -1.9059   -0.5802 O   0  0  0  0  0  0  0  0  0  0  0  0
    2.0679   -2.5546   -0.3541 H   0  0  0  0  0  0  0  0  0  0  0  0
    0.4019    0.8286   -1.0582 C   0  0  0  0  0  0  0  0  0  0  0  0
    0.6537    0.2541   -2.1173 O   0  0  0  0  0  0  0  0  0  0  0  0
    0.2767    2.1611   -0.9855 N   0  0  0  0  0  0  0  0  0  0  0  0
    0.0500    2.5706   -0.0942 H   0  0  0  0  0  0  0  0  0  0  0  0
    0.4516    3.0590   -2.1260 C   0  0  0  0  0  0  0  0  0  0  0  0
   -0.1894    2.7389   -2.9498 H   0  0  0  0  0  0  0  0  0  0  0  0
    0.1949    4.0815   -1.8485 H   0  0  0  0  0  0  0  0  0  0  0  0
    1.4898    3.0265   -2.4634 H   0  0  0  0  0  0  0  0  0  0  0  0
  5  6  2  0  0  0  0
  5  7  1  0  0  0  0
  2  3  1  0  0  0  0
  2  4  1  0  0  0  0
  2  5  1  0  0  0  0
  1  2  1  0  0  0  0
 19 20  2  0  0  0  0
 19 21  1  0  0  0  0
 17 18  1  0  0  0  0
 13 14  1  0  0  0  0
 13 15  1  0  0  0  0
 13 16  1  0  0  0  0
 11 12  1  0  0  0  0
 11 13  1  0  0  0  0
 11 17  1  0  0  0  0
  9 10  1  0  0  0  0
  9 11  1  0  0  0  0
  9 19  1  0  0  0  0
  7  8  1  0  0  0  0
  7  9  1  0  0  0  0
 23 24  1  0  0  0  0
 23 25  1  0  0  0  0
 23 26  1  0  0  0  0
 21 22  1  0  0  0  0
 21 23  1  0  0  0  0
M  END
$$$$
default_name
  -OEChem-01062215323D

 26 25  0     1  0  0  0  0  0999 V2000
   -2.8882   -3.2497    1.2537 H   0  0  0  0  0  0  0  0  0  0  0  0
   -2.8032   -2.3157    0.7017 C   0  0  0  0  0  0  0  0  0  0  0  0
   -3.5012   -1.5857    1.1067 H   0  0  0  0  0  0  0  0  0  0  0  0
   -3.0182   -2.4907   -0.3513 H   0  0  0  0  0  0  0  0  0  0  0  0
   -1.3942   -1.7897    0.8407 C   0  0  0  0  0  0  0  0  0  0  0  0
   -0.5672   -2.4077    1.5007 O   0  0  0  0  0  0  0  0  0  0  0  0
   -1.1222   -0.6447    0.2217 N   0  0  0  0  0  0  0  0  0  0  0  0
   -1.8592   -0.1777   -0.2863 H   0  0  0  0  0  0  0  0  0  0  0  0
    0.1838    0.0363    0.2367 C   0  0  1  0  0  0  0  0  0  0  0  0
    0.1956    0.7500    1.0598 H   0  0  0  0  0  0  0  0  0  0  0  0
    1.3451   -0.9554    0.4546 C   0  0  1  0  0  0  0  0  0  0  0  0
    2.2787   -0.3930    0.4530 H   0  0  0  0  0  0  0  0  0  0  0  0
    1.2686   -1.7248    1.7719 C   0  0  0  0  0  0  0  0  0  0  0  0
    0.4154   -2.4043    1.7661 H   0  0  0  0  0  0  0  0  0  0  0  0
    2.1825   -2.2993    1.9181 H   0  0  0  0  0  0  0  0  0  0  0  0
    1.1570   -1.0240    2.5997 H   0  0  0  0  0  0  0  0  0  0  0  0
    1.3981   -1.9059   -0.5802 O   0  0  0  0  0  0  0  0  0  0  0  0
    2.0679   -2.5546   -0.3541 H   0  0  0  0  0  0  0  0  0  0  0  0
    0.4019    0.8286   -1.0582 C   0  0  0  0  0  0  0  0  0  0  0  0
    0.3810    0.2688   -2.1542 O   0  0  0  0  0  0  0  0  0  0  0  0
    0.5848    2.1511   -0.9397 N   0  0  0  0  0  0  0  0  0  0  0  0
    0.5718    2.5533   -0.0169 H   0  0  0  0  0  0  0  0  0  0  0  0
    0.8046    3.0477   -2.0735 C   0  0  0  0  0  0  0  0  0  0  0  0
    0.0074    2.9166   -2.8079 H   0  0  0  0  0  0  0  0  0  0  0  0
    0.8184    4.0858   -1.7409 H   0  0  0  0  0  0  0  0  0  0  0  0
    1.7571    2.8092   -2.5514 H   0  0  0  0  0  0  0  0  0  0  0  0
  5  6  2  0  0  0  0
  5  7  1  0  0  0  0
  2  3  1  0  0  0  0
  2  4  1  0  0  0  0
  2  5  1  0  0  0  0
  1  2  1  0  0  0  0
 19 20  2  0  0  0  0
 19 21  1  0  0  0  0
 17 18  1  0  0  0  0
 13 14  1  0  0  0  0
 13 15  1  0  0  0  0
 13 16  1  0  0  0  0
 11 12  1  0  0  0  0
 11 13  1  0  0  0  0
 11 17  1  0  0  0  0
  9 10  1  0  0  0  0
  9 11  1  0  0  0  0
  9 19  1  0  0  0  0
  7  8  1  0  0  0  0
  7  9  1  0  0  0  0
 23 24  1  0  0  0  0
 23 25  1  0  0  0  0
 23 26  1  0  0  0  0
 21 22  1  0  0  0  0
 21 23  1  0  0  0  0
M  END
$$$$
default_name
  -OEChem-01062215323D

 26 25  0     1  0  0  0  0  0999 V2000
   -2.8882   -3.2497    1.2537 H   0  0  0  0  0  0  0  0  0  0  0  0
   -2.8032   -2.3157    0.7017 C   0  0  0  0  0  0  0  0  0  0  0  0
   -3.5012   -1.5857    1.1067 H   0  0  0  0  0  0  0  0  0  0  0  0
   -3.0182   -2.4907   -0.3513 H   0  0  0  0  0  0  0  0  0  0  0  0
   -1.3942   -1.7897    0.8407 C   0  0  0  0  0  0  0  0  0  0  0  0
   -0.5672   -2.4077    1.5007 O   0  0  0  0  0  0  0  0  0  0  0  0
   -1.1222   -0.6447    0.2217 N   0  0  0  0  0  0  0  0  0  0  0  0
   -1.8592   -0.1777   -0.2863 H   0  0  0  0  0  0  0  0  0  0  0  0
    0.1838    0.0363    0.2367 C   0  0  1  0  0  0  0  0  0  0  0  0
    0.1956    0.7500    1.0598 H   0  0  0  0  0  0  0  0  0  0  0  0
    1.3451   -0.9554    0.4546 C   0  0  1  0  0  0  0  0  0  0  0  0
    2.2787   -0.3930    0.4530 H   0  0  0  0  0  0  0  0  0  0  0  0
    1.2686   -1.7248    1.7719 C   0  0  0  0  0  0  0  0  0  0  0  0
    0.4154   -2.4043    1.7661 H   0  0  0  0  0  0  0  0  0  0  0  0
    2.1825   -2.2993    1.9181 H   0  0  0  0  0  0  0  0  0  0  0  0
    1.1570   -1.0240    2.5997 H   0  0  0  0  0  0  0  0  0  0  0  0
    1.3981   -1.9059   -0.5802 O   0  0  0  0  0  0  0  0  0  0  0  0
    2.0679   -2.5546   -0.3541 H   0  0  0  0  0  0  0  0  0  0  0  0
    0.4019    0.8286   -1.0582 C   0  0  0  0  0  0  0  0  0  0  0  0
    0.1159    0.3439   -2.1529 O   0  0  0  0  0  0  0  0  0  0  0  0
    0.8864    2.0725   -0.9371 N   0  0  0  0  0  0  0  0  0  0  0  0
    1.0823    2.4197   -0.0126 H   0  0  0  0  0  0  0  0  0  0  0  0
    1.1500    2.9578   -2.0704 C   0  0  0  0  0  0  0  0  0  0  0  0
    0.2553    3.0401   -2.6906 H   0  0  0  0  0  0  0  0  0  0  0  0
    1.4359    3.9498   -1.7201 H   0  0  0  0  0  0  0  0  0  0  0  0
    1.9561    2.5441   -2.6801 H   0  0  0  0  0  0  0  0  0  0  0  0
  5  6  2  0  0  0  0
  5  7  1  0  0  0  0
  2  3  1  0  0  0  0
  2  4  1  0  0  0  0
  2  5  1  0  0  0  0
  1  2  1  0  0  0  0
 19 20  2  0  0  0  0
 19 21  1  0  0  0  0
 17 18  1  0  0  0  0
 13 14  1  0  0  0  0
 13 15  1  0  0  0  0
 13 16  1  0  0  0  0
 11 12  1  0  0  0  0
 11 13  1  0  0  0  0
 11 17  1  0  0  0  0
  9 10  1  0  0  0  0
  9 11  1  0  0  0  0
  9 19  1  0  0  0  0
  7  8  1  0  0  0  0
  7  9  1  0  0  0  0
 23 24  1  0  0  0  0
 23 25  1  0  0  0  0
 23 26  1  0  0  0  0
 21 22  1  0  0  0  0
 21 23  1  0  0  0  0
M  END
$$$$
default_name
  -OEChem-01062215323D

 26 25  0     1  0  0  0  0  0999 V2000
   -2.8882   -3.2497    1.2537 H   0  0  0  0  0  0  0  0  0  0  0  0
   -2.8032   -2.3157    0.7017 C   0  0  0  0  0  0  0  0  0  0  0  0
   -3.5012   -1.5857    1.1067 H   0  0  0  0  0  0  0  0  0  0  0  0
   -3.0182   -2.4907   -0.3513 H   0  0  0  0  0  0  0  0  0  0  0  0
   -1.3942   -1.7897    0.8407 C   0  0  0  0  0  0  0  0  0  0  0  0
   -0.5672   -2.4077    1.5007 O   0  0  0  0  0  0  0  0  0  0  0  0
   -1.1222   -0.6447    0.2217 N   0  0  0  0  0  0  0  0  0  0  0  0
   -1.8592   -0.1777   -0.2863 H   0  0  0  0  0  0  0  0  0  0  0  0
    0.1838    0.0363    0.2367 C   0  0  1  0  0  0  0  0  0  0  0  0
    0.1956    0.7500    1.0598 H   0  0  0  0  0  0  0  0  0  0  0  0
    1.3451   -0.9554    0.4546 C   0  0  1  0  0  0  0  0  0  0  0  0
    2.2787   -0.3930    0.4530 H   0  0  0  0  0  0  0  0  0  0  0  0
    1.2686   -1.7248    1.7719 C   0  0  0  0  0  0  0  0  0  0  0  0
    0.4154   -2.4043    1.7661 H   0  0  0  0  0  0  0  0  0  0  0  0
    2.1825   -2.2993    1.9181 H   0  0  0  0  0  0  0  0  0  0  0  0
    1.1570   -1.0240    2.5997 H   0  0  0  0  0  0  0  0  0  0  0  0
    1.3981   -1.9059   -0.5802 O   0  0  0  0  0  0  0  0  0  0  0  0
    2.0679   -2.5546   -0.3541 H   0  0  0  0  0  0  0  0  0  0  0  0
    0.4019    0.8286   -1.0582 C   0  0  0  0  0  0  0  0  0  0  0  0
   -0.1236    0.4744   -2.1135 O   0  0  0  0  0  0  0  0  0  0  0  0
    1.1608    1.9305   -0.9777 N   0  0  0  0  0  0  0  0  0  0  0  0
    1.5467    2.1790   -0.0817 H   0  0  0  0  0  0  0  0  0  0  0  0
    1.4644    2.7953   -2.1168 C   0  0  0  0  0  0  0  0  0  0  0  0
    0.5374    3.1008   -2.6060 H   0  0  0  0  0  0  0  0  0  0  0  0
    2.0054    3.6826   -1.7876 H   0  0  0  0  0  0  0  0  0  0  0  0
    2.0732    2.2493   -2.8408 H   0  0  0  0  0  0  0  0  0  0  0  0
  5  6  2  0  0  0  0
  5  7  1  0  0  0  0
  2  3  1  0  0  0  0
  2  4  1  0  0  0  0
  2  5  1  0  0  0  0
  1  2  1  0  0  0  0
 19 20  2  0  0  0  0
 19 21  1  0  0  0  0
 17 18  1  0  0  0  0
 13 14  1  0  0  0  0
 13 15  1  0  0  0  0
 13 16  1  0  0  0  0
 11 12  1  0  0  0  0
 11 13  1  0  0  0  0
 11 17  1  0  0  0  0
  9 10  1  0  0  0  0
  9 11  1  0  0  0  0
  9 19  1  0  0  0  0
  7  8  1  0  0  0  0
  7  9  1  0  0  0  0
 23 24  1  0  0  0  0
 23 25  1  0  0  0  0
 23 26  1  0  0  0  0
 21 22  1  0  0  0  0
 21 23  1  0  0  0  0
M  END
$$$$
default_name
  -OEChem-01062215323D

 26 25  0     1  0  0  0  0  0999 V2000
   -2.8882   -3.2497    1.2537 H   0  0  0  0  0  0  0  0  0  0  0  0
   -2.8032   -2.3157    0.7017 C   0  0  0  0  0  0  0  0  0  0  0  0
   -3.5012   -1.5857    1.1067 H   0  0  0  0  0  0  0  0  0  0  0  0
   -3.0182   -2.4907   -0.3513 H   0  0  0  0  0  0  0  0  0  0  0  0
   -1.3942   -1.7897    0.8407 C   0  0  0  0  0  0  0  0  0  0  0  0
   -0.5672   -2.4077    1.5007 O   0  0  0  0  0  0  0  0  0  0  0  0
   -1.1222   -0.6447    0.2217 N   0  0  0  0  0  0  0  0  0  0  0  0
   -1.8592   -0.1777   -0.2863 H   0  0  0  0  0  0  0  0  0  0  0  0
    0.1838    0.0363    0.2367 C   0  0  1  0  0  0  0  0  0  0  0  0
    0.1956    0.7500    1.0598 H   0  0  0  0  0  0  0  0  0  0  0  0
    1.3451   -0.9554    0.4546 C   0  0  1  0  0  0  0  0  0  0  0  0
    2.2787   -0.3930    0.4530 H   0  0  0  0  0  0  0  0  0  0  0  0
    1.2686   -1.7248    1.7719 C   0  0  0  0  0  0  0  0  0  0  0  0
    0.4154   -2.4043    1.7661 H   0  0  0  0  0  0  0  0  0  0  0  0
    2.1825   -2.2993    1.9181 H   0  0  0  0  0  0  0  0  0  0  0  0
    1.1570   -1.0240    2.5997 H   0  0  0  0  0  0  0  0  0  0  0  0
    1.3981   -1.9059   -0.5802 O   0  0  0  0  0  0  0  0  0  0  0  0
    2.0679   -2.5546   -0.3541 H   0  0  0  0  0  0  0  0  0  0  0  0
    0.4019    0.8286   -1.0582 C   0  0  0  0  0  0  0  0  0  0  0  0
   -0.3211    0.6512   -2.0385 O   0  0  0  0  0  0  0  0  0  0  0  0
    1.3895    1.7348   -1.0589 N   0  0  0  0  0  0  0  0  0  0  0  0
    1.9336    1.8475   -0.2194 H   0  0  0  0  0  0  0  0  0  0  0  0
    1.7264    2.5713   -2.2098 C   0  0  0  0  0  0  0  0  0  0  0  0
    0.8345    3.0948   -2.5596 H   0  0  0  0  0  0  0  0  0  0  0  0
    2.4882    3.3026   -1.9389 H   0  0  0  0  0  0  0  0  0  0  0  0
    2.1003    1.9449   -3.0224 H   0  0  0  0  0  0  0  0  0  0  0  0
  5  6  2  0  0  0  0
  5  7  1  0  0  0  0
  2  3  1  0  0  0  0
  2  4  1  0  0  0  0
  2  5  1  0  0  0  0
  1  2  1  0  0  0  0
 19 20  2  0  0  0  0
 19 21  1  0  0  0  0
 17 18  1  0  0  0  0
 13 14  1  0  0  0  0
 13 15  1  0  0  0  0
 13 16  1  0  0  0  0
 11 12  1  0  0  0  0
 11 13  1  0  0  0  0
 11 17  1  0  0  0  0
  9 10  1  0  0  0  0
  9 11  1  0  0  0  0
  9 19  1  0  0  0  0
  7  8  1  0  0  0  0
  7  9  1  0  0  0  0
 23 24  1  0  0  0  0
 23 25  1  0  0  0  0
 23 26  1  0  0  0  0
 21 22  1  0  0  0  0
 21 23  1  0  0  0  0
M  END
$$$$
default_name
  -OEChem-01062215323D

 26 25  0     1  0  0  0  0  0999 V2000
   -2.8882   -3.2497    1.2537 H   0  0  0  0  0  0  0  0  0  0  0  0
   -2.8032   -2.3157    0.7017 C   0  0  0  0  0  0  0  0  0  0  0  0
   -3.5012   -1.5857    1.1067 H   0  0  0  0  0  0  0  0  0  0  0  0
   -3.0182   -2.4907   -0.3513 H   0  0  0  0  0  0  0  0  0  0  0  0
   -1.3942   -1.7897    0.8407 C   0  0  0  0  0  0  0  0  0  0  0  0
   -0.5672   -2.4077    1.5007 O   0  0  0  0  0  0  0  0  0  0  0  0
   -1.1222   -0.6447    0.2217 N   0  0  0  0  0  0  0  0  0  0  0  0
   -1.8592   -0.1777   -0.2863 H   0  0  0  0  0  0  0  0  0  0  0  0
    0.1838    0.0363    0.2367 C   0  0  1  0  0  0  0  0  0  0  0  0
    0.3023    0.5423    1.1942 H   0  0  0  0  0  0  0  0  0  0  0  0
    1.3516   -0.9595    0.0809 C   0  0  1  0  0  0  0  0  0  0  0  0
    2.2845   -0.3963    0.0970 H   0  0  0  0  0  0  0  0  0  0  0  0
    1.4249   -2.0117    1.1857 C   0  0  0  0  0  0  0  0  0  0  0  0
    0.5696   -2.6858    1.1258 H   0  0  0  0  0  0  0  0  0  0  0  0
    2.3432   -2.5891    1.0859 H   0  0  0  0  0  0  0  0  0  0  0  0
    1.4213   -1.5213    2.1595 H   0  0  0  0  0  0  0  0  0  0  0  0
    1.2693   -1.6464   -1.1433 O   0  0  0  0  0  0  0  0  0  0  0  0
    1.9539   -2.3184   -1.1538 H   0  0  0  0  0  0  0  0  0  0  0  0
    0.2539    1.1080   -0.8581 C   0  0  0  0  0  0  0  0  0  0  0  0
   -0.7095    1.3272   -1.5923 O   0  0  0  0  0  0  0  0  0  0  0  0
    1.3939    1.8063   -0.9550 N   0  0  0  0  0  0  0  0  0  0  0  0
    2.1392    1.5935   -0.3125 H   0  0  0  0  0  0  0  0  0  0  0  0
    1.6217    2.8608   -1.9418 C   0  0  0  0  0  0  0  0  0  0  0  0
    0.8184    3.5981   -1.8865 H   0  0  0  0  0  0  0  0  0  0  0  0
    2.5755    3.3553   -1.7572 H   0  0  0  0  0  0  0  0  0  0  0  0
    1.6267    2.4301   -2.9454 H   0  0  0  0  0  0  0  0  0  0  0  0
  5  6  2  0  0  0  0
  5  7  1  0  0  0  0
  2  3  1  0  0  0  0
  2  4  1  0  0  0  0
  2  5  1  0  0  0  0
  1  2  1  0  0  0  0
 19 20  2  0  0  0  0
 19 21  1  0  0  0  0
 17 18  1  0  0  0  0
 13 14  1  0  0  0  0
 13 15  1  0  0  0  0
 13 16  1  0  0  0  0
 11 12  1  0  0  0  0
 11 13  1  0  0  0  0
 11 17  1  0  0  0  0
  9 10  1  0  0  0  0
  9 11  1  0  0  0  0
  9 19  1  0  0  0  0
  7  8  1  0  0  0  0
  7  9  1  0  0  0  0
 23 24  1  0  0  0  0
 23 25  1  0  0  0  0
 23 26  1  0  0  0  0
 21 22  1  0  0  0  0
 21 23  1  0  0  0  0
M  END
$$$$
default_name
  -OEChem-01062215323D

 26 25  0     1  0  0  0  0  0999 V2000
   -2.8882   -3.2497    1.2537 H   0  0  0  0  0  0  0  0  0  0  0  0
   -2.8032   -2.3157    0.7017 C   0  0  0  0  0  0  0  0  0  0  0  0
   -3.5012   -1.5857    1.1067 H   0  0  0  0  0  0  0  0  0  0  0  0
   -3.0182   -2.4907   -0.3513 H   0  0  0  0  0  0  0  0  0  0  0  0
   -1.3942   -1.7897    0.8407 C   0  0  0  0  0  0  0  0  0  0  0  0
   -0.5672   -2.4077    1.5007 O   0  0  0  0  0  0  0  0  0  0  0  0
   -1.1222   -0.6447    0.2217 N   0  0  0  0  0  0  0  0  0  0  0  0
   -1.8592   -0.1777   -0.2863 H   0  0  0  0  0  0  0  0  0  0  0  0
    0.1838    0.0363    0.2367 C   0  0  1  0  0  0  0  0  0  0  0  0
    0.3023    0.5423    1.1942 H   0  0  0  0  0  0  0  0  0  0  0  0
    1.3516   -0.9595    0.0809 C   0  0  1  0  0  0  0  0  0  0  0  0
    2.2845   -0.3963    0.0970 H   0  0  0  0  0  0  0  0  0  0  0  0
    1.4249   -2.0117    1.1857 C   0  0  0  0  0  0  0  0  0  0  0  0
    0.5696   -2.6858    1.1258 H   0  0  0  0  0  0  0  0  0  0  0  0
    2.3432   -2.5891    1.0859 H   0  0  0  0  0  0  0  0  0  0  0  0
    1.4213   -1.5213    2.1595 H   0  0  0  0  0  0  0  0  0  0  0  0
    1.2693   -1.6464   -1.1433 O   0  0  0  0  0  0  0  0  0  0  0  0
    1.9539   -2.3184   -1.1538 H   0  0  0  0  0  0  0  0  0  0  0  0
    0.2539    1.1080   -0.8581 C   0  0  0  0  0  0  0  0  0  0  0  0
   -0.7679    1.5215   -1.4058 O   0  0  0  0  0  0  0  0  0  0  0  0
    1.4675    1.5875   -1.1644 N   0  0  0  0  0  0  0  0  0  0  0  0
    2.2634    1.2230   -0.6672 H   0  0  0  0  0  0  0  0  0  0  0  0
    1.7062    2.6102   -2.1816 C   0  0  0  0  0  0  0  0  0  0  0  0
    1.0771    3.4807   -1.9849 H   0  0  0  0  0  0  0  0  0  0  0  0
    2.7527    2.9156   -2.1762 H   0  0  0  0  0  0  0  0  0  0  0  0
    1.4506    2.2151   -3.1671 H   0  0  0  0  0  0  0  0  0  0  0  0
  5  6  2  0  0  0  0
  5  7  1  0  0  0  0
  2  3  1  0  0  0  0
  2  4  1  0  0  0  0
  2  5  1  0  0  0  0
  1  2  1  0  0  0  0
 19 20  2  0  0  0  0
 19 21  1  0  0  0  0
 17 18  1  0  0  0  0
 13 14  1  0  0  0  0
 13 15  1  0  0  0  0
 13 16  1  0  0  0  0
 11 12  1  0  0  0  0
 11 13  1  0  0  0  0
 11 17  1  0  0  0  0
  9 10  1  0  0  0  0
  9 11  1  0  0  0  0
  9 19  1  0  0  0  0
  7  8  1  0  0  0  0
  7  9  1  0  0  0  0
 23 24  1  0  0  0  0
 23 25  1  0  0  0  0
 23 26  1  0  0  0  0
 21 22  1  0  0  0  0
 21 23  1  0  0  0  0
M  END
$$$$
default_name
  -OEChem-01062215323D

 26 25  0     1  0  0  0  0  0999 V2000
   -2.8882   -3.2497    1.2537 H   0  0  0  0  0  0  0  0  0  0  0  0
   -2.8032   -2.3157    0.7017 C   0  0  0  0  0  0  0  0  0  0  0  0
   -3.5012   -1.5857    1.1067 H   0  0  0  0  0  0  0  0  0  0  0  0
   -3.0182   -2.4907   -0.3513 H   0  0  0  0  0  0  0  0  0  0  0  0
   -1.3942   -1.7897    0.8407 C   0  0  0  0  0  0  0  0  0  0  0  0
   -0.5672   -2.4077    1.5007 O   0  0  0  0  0  0  0  0  0  0  0  0
   -1.1222   -0.6447    0.2217 N   0  0  0  0  0  0  0  0  0  0  0  0
   -1.8592   -0.1777   -0.2863 H   0  0  0  0  0  0  0  0  0  0  0  0
    0.1838    0.0363    0.2367 C   0  0  1  0  0  0  0  0  0  0  0  0
    0.3023    0.5423    1.1942 H   0  0  0  0  0  0  0  0  0  0  0  0
    1.3516   -0.9595    0.0809 C   0  0  1  0  0  0  0  0  0  0  0  0
    2.2845   -0.3963    0.0970 H   0  0  0  0  0  0  0  0  0  0  0  0
    1.4249   -2.0117    1.1857 C   0  0  0  0  0  0  0  0  0  0  0  0
    0.5696   -2.6858    1.1258 H   0  0  0  0  0  0  0  0  0  0  0  0
    2.3432   -2.5891    1.0859 H   0  0  0  0  0  0  0  0  0  0  0  0
    1.4213   -1.5213    2.1595 H   0  0  0  0  0  0  0  0  0  0  0  0
    1.2693   -1.6464   -1.1433 O   0  0  0  0  0  0  0  0  0  0  0  0
    1.9539   -2.3184   -1.1538 H   0  0  0  0  0  0  0  0  0  0  0  0
    0.2539    1.1080   -0.8581 C   0  0  0  0  0  0  0  0  0  0  0  0
   -0.7548    1.7178   -1.2129 O   0  0  0  0  0  0  0  0  0  0  0  0
    1.4603    1.3651   -1.3826 N   0  0  0  0  0  0  0  0  0  0  0  0
    2.2508    0.8464   -1.0366 H   0  0  0  0  0  0  0  0  0  0  0  0
    1.6981    2.3554   -2.4315 C   0  0  0  0  0  0  0  0  0  0  0  0
    1.2876    3.3206   -2.1281 H   0  0  0  0  0  0  0  0  0  0  0  0
    2.7668    2.4631   -2.6182 H   0  0  0  0  0  0  0  0  0  0  0  0
    1.2007    2.0426   -3.3520 H   0  0  0  0  0  0  0  0  0  0  0  0
  5  6  2  0  0  0  0
  5  7  1  0  0  0  0
  2  3  1  0  0  0  0
  2  4  1  0  0  0  0
  2  5  1  0  0  0  0
  1  2  1  0  0  0  0
 19 20  2  0  0  0  0
 19 21  1  0  0  0  0
 17 18  1  0  0  0  0
 13 14  1  0  0  0  0
 13 15  1  0  0  0  0
 13 16  1  0  0  0  0
 11 12  1  0  0  0  0
 11 13  1  0  0  0  0
 11 17  1  0  0  0  0
  9 10  1  0  0  0  0
  9 11  1  0  0  0  0
  9 19  1  0  0  0  0
  7  8  1  0  0  0  0
  7  9  1  0  0  0  0
 23 24  1  0  0  0  0
 23 25  1  0  0  0  0
 23 26  1  0  0  0  0
 21 22  1  0  0  0  0
 21 23  1  0  0  0  0
M  END
$$$$
default_name
  -OEChem-01062215323D

 26 25  0     1  0  0  0  0  0999 V2000
   -2.8882   -3.2497    1.2537 H   0  0  0  0  0  0  0  0  0  0  0  0
   -2.8032   -2.3157    0.7017 C   0  0  0  0  0  0  0  0  0  0  0  0
   -3.5012   -1.5857    1.1067 H   0  0  0  0  0  0  0  0  0  0  0  0
   -3.0182   -2.4907   -0.3513 H   0  0  0  0  0  0  0  0  0  0  0  0
   -1.3942   -1.7897    0.8407 C   0  0  0  0  0  0  0  0  0  0  0  0
   -0.5672   -2.4077    1.5007 O   0  0  0  0  0  0  0  0  0  0  0  0
   -1.1222   -0.6447    0.2217 N   0  0  0  0  0  0  0  0  0  0  0  0
   -1.8592   -0.1777   -0.2863 H   0  0  0  0  0  0  0  0  0  0  0  0
    0.1838    0.0363    0.2367 C   0  0  1  0  0  0  0  0  0  0  0  0
    0.3023    0.5423    1.1942 H   0  0  0  0  0  0  0  0  0  0  0  0
    1.3516   -0.9595    0.0809 C   0  0  1  0  0  0  0  0  0  0  0  0
    2.2845   -0.3963    0.0970 H   0  0  0  0  0  0  0  0  0  0  0  0
    1.4249   -2.0117    1.1857 C   0  0  0  0  0  0  0  0  0  0  0  0
    0.5696   -2.6858    1.1258 H   0  0  0  0  0  0  0  0  0  0  0  0
    2.3432   -2.5891    1.0859 H   0  0  0  0  0  0  0  0  0  0  0  0
    1.4213   -1.5213    2.1595 H   0  0  0  0  0  0  0  0  0  0  0  0
    1.2693   -1.6464   -1.1433 O   0  0  0  0  0  0  0  0  0  0  0  0
    1.9539   -2.3184   -1.1538 H   0  0  0  0  0  0  0  0  0  0  0  0
    0.2539    1.1080   -0.8581 C   0  0  0  0  0  0  0  0  0  0  0  0
   -0.6709    1.9027   -1.0265 O   0  0  0  0  0  0  0  0  0  0  0  0
    1.3728    1.1541   -1.5947 N   0  0  0  0  0  0  0  0  0  0  0  0
    2.1022    0.4893   -1.3957 H   0  0  0  0  0  0  0  0  0  0  0  0
    1.5981    2.1138   -2.6745 C   0  0  0  0  0  0  0  0  0  0  0  0
    1.4354    3.1287   -2.3064 H   0  0  0  0  0  0  0  0  0  0  0  0
    2.6168    2.0287   -3.0531 H   0  0  0  0  0  0  0  0  0  0  0  0
    0.8939    1.9243   -3.4874 H   0  0  0  0  0  0  0  0  0  0  0  0
  5  6  2  0  0  0  0
  5  7  1  0  0  0  0
  2  3  1  0  0  0  0
  2  4  1  0  0  0  0
  2  5  1  0  0  0  0
  1  2  1  0  0  0  0
 19 20  2  0  0  0  0
 19 21  1  0  0  0  0
 17 18  1  0  0  0  0
 13 14  1  0  0  0  0
 13 15  1  0  0  0  0
 13 16  1  0  0  0  0
 11 12  1  0  0  0  0
 11 13  1  0  0  0  0
 11 17  1  0  0  0  0
  9 10  1  0  0  0  0
  9 11  1  0  0  0  0
  9 19  1  0  0  0  0
  7  8  1  0  0  0  0
  7  9  1  0  0  0  0
 23 24  1  0  0  0  0
 23 25  1  0  0  0  0
 23 26  1  0  0  0  0
 21 22  1  0  0  0  0
 21 23  1  0  0  0  0
M  END
$$$$
default_name
  -OEChem-01062215323D

 26 25  0     1  0  0  0  0  0999 V2000
   -2.8882   -3.2497    1.2537 H   0  0  0  0  0  0  0  0  0  0  0  0
   -2.8032   -2.3157    0.7017 C   0  0  0  0  0  0  0  0  0  0  0  0
   -3.5012   -1.5857    1.1067 H   0  0  0  0  0  0  0  0  0  0  0  0
   -3.0182   -2.4907   -0.3513 H   0  0  0  0  0  0  0  0  0  0  0  0
   -1.3942   -1.7897    0.8407 C   0  0  0  0  0  0  0  0  0  0  0  0
   -0.5672   -2.4077    1.5007 O   0  0  0  0  0  0  0  0  0  0  0  0
   -1.1222   -0.6447    0.2217 N   0  0  0  0  0  0  0  0  0  0  0  0
   -1.8592   -0.1777   -0.2863 H   0  0  0  0  0  0  0  0  0  0  0  0
    0.1838    0.0363    0.2367 C   0  0  1  0  0  0  0  0  0  0  0  0
    0.3023    0.5423    1.1942 H   0  0  0  0  0  0  0  0  0  0  0  0
    1.3516   -0.9595    0.0809 C   0  0  1  0  0  0  0  0  0  0  0  0
    2.2845   -0.3963    0.0970 H   0  0  0  0  0  0  0  0  0  0  0  0
    1.4249   -2.0117    1.1857 C   0  0  0  0  0  0  0  0  0  0  0  0
    0.5696   -2.6858    1.1258 H   0  0  0  0  0  0  0  0  0  0  0  0
    2.3432   -2.5891    1.0859 H   0  0  0  0  0  0  0  0  0  0  0  0
    1.4213   -1.5213    2.1595 H   0  0  0  0  0  0  0  0  0  0  0  0
    1.2693   -1.6464   -1.1433 O   0  0  0  0  0  0  0  0  0  0  0  0
    1.9539   -2.3184   -1.1538 H   0  0  0  0  0  0  0  0  0  0  0  0
    0.2539    1.1080   -0.8581 C   0  0  0  0  0  0  0  0  0  0  0  0
   -0.5220    2.0636   -0.8595 O   0  0  0  0  0  0  0  0  0  0  0  0
    1.2109    0.9690   -1.7862 N   0  0  0  0  0  0  0  0  0  0  0  0
    1.8277    0.1761   -1.7198 H   0  0  0  0  0  0  0  0  0  0  0  0
    1.4128    1.9017   -2.8939 C   0  0  0  0  0  0  0  0  0  0  0  0
    1.5105    2.9182   -2.5076 H   0  0  0  0  0  0  0  0  0  0  0  0
    2.3131    1.6419   -3.4511 H   0  0  0  0  0  0  0  0  0  0  0  0
    0.5513    1.8683   -3.5642 H   0  0  0  0  0  0  0  0  0  0  0  0
  5  6  2  0  0  0  0
  5  7  1  0  0  0  0
  2  3  1  0  0  0  0
  2  4  1  0  0  0  0
  2  5  1  0  0  0  0
  1  2  1  0  0  0  0
 19 20  2  0  0  0  0
 19 21  1  0  0  0  0
 17 18  1  0  0  0  0
 13 14  1  0  0  0  0
 13 15  1  0  0  0  0
 13 16  1  0  0  0  0
 11 12  1  0  0  0  0
 11 13  1  0  0  0  0
 11 17  1  0  0  0  0
  9 10  1  0  0  0  0
  9 11  1  0  0  0  0
  9 19  1  0  0  0  0
  7  8  1  0  0  0  0
  7  9  1  0  0  0  0
 23 24  1  0  0  0  0
 23 25  1  0  0  0  0
 23 26  1  0  0  0  0
 21 22  1  0  0  0  0
 21 23  1  0  0  0  0
M  END
$$$$
default_name
  -OEChem-01062215323D

 26 25  0     1  0  0  0  0  0999 V2000
   -2.8882   -3.2497    1.2537 H   0  0  0  0  0  0  0  0  0  0  0  0
   -2.8032   -2.3157    0.7017 C   0  0  0  0  0  0  0  0  0  0  0  0
   -3.5012   -1.5857    1.1067 H   0  0  0  0  0  0  0  0  0  0  0  0
   -3.0182   -2.4907   -0.3513 H   0  0  0  0  0  0  0  0  0  0  0  0
   -1.3942   -1.7897    0.8407 C   0  0  0  0  0  0  0  0  0  0  0  0
   -0.5672   -2.4077    1.5007 O   0  0  0  0  0  0  0  0  0  0  0  0
   -1.1222   -0.6447    0.2217 N   0  0  0  0  0  0  0  0  0  0  0  0
   -1.8592   -0.1777   -0.2863 H   0  0  0  0  0  0  0  0  0  0  0  0
    0.1838    0.0363    0.2367 C   0  0  1  0  0  0  0  0  0  0  0  0
    0.3023    0.5423    1.1942 H   0  0  0  0  0  0  0  0  0  0  0  0
    1.3516   -0.9595    0.0809 C   0  0  1  0  0  0  0  0  0  0  0  0
    2.2845   -0.3963    0.0970 H   0  0  0  0  0  0  0  0  0  0  0  0
    1.4249   -2.0117    1.1857 C   0  0  0  0  0  0  0  0  0  0  0  0
    0.5696   -2.6858    1.1258 H   0  0  0  0  0  0  0  0  0  0  0  0
    2.3432   -2.5891    1.0859 H   0  0  0  0  0  0  0  0  0  0  0  0
    1.4213   -1.5213    2.1595 H   0  0  0  0  0  0  0  0  0  0  0  0
    1.2693   -1.6464   -1.1433 O   0  0  0  0  0  0  0  0  0  0  0  0
    1.9539   -2.3184   -1.1538 H   0  0  0  0  0  0  0  0  0  0  0  0
    0.2539    1.1080   -0.8581 C   0  0  0  0  0  0  0  0  0  0  0  0
   -0.3183    2.1895   -0.7233 O   0  0  0  0  0  0  0  0  0  0  0  0
    0.9858    0.8224   -1.9441 N   0  0  0  0  0  0  0  0  0  0  0  0
    1.4462   -0.0719   -1.9870 H   0  0  0  0  0  0  0  0  0  0  0  0
    1.1550    1.7337   -3.0749 C   0  0  0  0  0  0  0  0  0  0  0  0
    1.5078    2.7034   -2.7181 H   0  0  0  0  0  0  0  0  0  0  0  0
    1.8762    1.3291   -3.7853 H   0  0  0  0  0  0  0  0  0  0  0  0
    0.1961    1.8784   -3.5770 H   0  0  0  0  0  0  0  0  0  0  0  0
  5  6  2  0  0  0  0
  5  7  1  0  0  0  0
  2  3  1  0  0  0  0
  2  4  1  0  0  0  0
  2  5  1  0  0  0  0
  1  2  1  0  0  0  0
 19 20  2  0  0  0  0
 19 21  1  0  0  0  0
 17 18  1  0  0  0  0
 13 14  1  0  0  0  0
 13 15  1  0  0  0  0
 13 16  1  0  0  0  0
 11 12  1  0  0  0  0
 11 13  1  0  0  0  0
 11 17  1  0  0  0  0
  9 10  1  0  0  0  0
  9 11  1  0  0  0  0
  9 19  1  0  0  0  0
  7  8  1  0  0  0  0
  7  9  1  0  0  0  0
 23 24  1  0  0  0  0
 23 25  1  0  0  0  0
 23 26  1  0  0  0  0
 21 22  1  0  0  0  0
 21 23  1  0  0  0  0
M  END
$$$$
default_name
  -OEChem-01062215323D

 26 25  0     1  0  0  0  0  0999 V2000
   -2.8882   -3.2497    1.2537 H   0  0  0  0  0  0  0  0  0  0  0  0
   -2.8032   -2.3157    0.7017 C   0  0  0  0  0  0  0  0  0  0  0  0
   -3.5012   -1.5857    1.1067 H   0  0  0  0  0  0  0  0  0  0  0  0
   -3.0182   -2.4907   -0.3513 H   0  0  0  0  0  0  0  0  0  0  0  0
   -1.3942   -1.7897    0.8407 C   0  0  0  0  0  0  0  0  0  0  0  0
   -0.5672   -2.4077    1.5007 O   0  0  0  0  0  0  0  0  0  0  0  0
   -1.1222   -0.6447    0.2217 N   0  0  0  0  0  0  0  0  0  0  0  0
   -1.8592   -0.1777   -0.2863 H   0  0  0  0  0  0  0  0  0  0  0  0
    0.1838    0.0363    0.2367 C   0  0  1  0  0  0  0  0  0  0  0  0
    0.3023    0.5423    1.1942 H   0  0  0  0  0  0  0  0  0  0  0  0
    1.3516   -0.9595    0.0809 C   0  0  1  0  0  0  0  0  0  0  0  0
    2.2845   -0.3963    0.0970 H   0  0  0  0  0  0  0  0  0  0  0  0
    1.4249   -2.0117    1.1857 C   0  0  0  0  0  0  0  0  0  0  0  0
    0.5696   -2.6858    1.1258 H   0  0  0  0  0  0  0  0  0  0  0  0
    2.3432   -2.5891    1.0859 H   0  0  0  0  0  0  0  0  0  0  0  0
    1.4213   -1.5213    2.1595 H   0  0  0  0  0  0  0  0  0  0  0  0
    1.2693   -1.6464   -1.1433 O   0  0  0  0  0  0  0  0  0  0  0  0
    1.9539   -2.3184   -1.1538 H   0  0  0  0  0  0  0  0  0  0  0  0
    0.2539    1.1080   -0.8581 C   0  0  0  0  0  0  0  0  0  0  0  0
   -0.0736    2.2718   -0.6270 O   0  0  0  0  0  0  0  0  0  0  0  0
    0.7126    0.7243   -2.0577 N   0  0  0  0  0  0  0  0  0  0  0  0
    0.9834   -0.2377   -2.1789 H   0  0  0  0  0  0  0  0  0  0  0  0
    0.8423    1.6212   -3.2050 C   0  0  0  0  0  0  0  0  0  0  0  0
    1.4273    2.4989   -2.9234 H   0  0  0  0  0  0  0  0  0  0  0  0
    1.3361    1.1117   -4.0327 H   0  0  0  0  0  0  0  0  0  0  0  0
   -0.1474    1.9540   -3.5250 H   0  0  0  0  0  0  0  0  0  0  0  0
  5  6  2  0  0  0  0
  5  7  1  0  0  0  0
  2  3  1  0  0  0  0
  2  4  1  0  0  0  0
  2  5  1  0  0  0  0
  1  2  1  0  0  0  0
 19 20  2  0  0  0  0
 19 21  1  0  0  0  0
 17 18  1  0  0  0  0
 13 14  1  0  0  0  0
 13 15  1  0  0  0  0
 13 16  1  0  0  0  0
 11 12  1  0  0  0  0
 11 13  1  0  0  0  0
 11 17  1  0  0  0  0
  9 10  1  0  0  0  0
  9 11  1  0  0  0  0
  9 19  1  0  0  0  0
  7  8  1  0  0  0  0
  7  9  1  0  0  0  0
 23 24  1  0  0  0  0
 23 25  1  0  0  0  0
 23 26  1  0  0  0  0
 21 22  1  0  0  0  0
 21 23  1  0  0  0  0
M  END
$$$$
default_name
  -OEChem-01062215323D

 26 25  0     1  0  0  0  0  0999 V2000
   -2.8882   -3.2497    1.2537 H   0  0  0  0  0  0  0  0  0  0  0  0
   -2.8032   -2.3157    0.7017 C   0  0  0  0  0  0  0  0  0  0  0  0
   -3.5012   -1.5857    1.1067 H   0  0  0  0  0  0  0  0  0  0  0  0
   -3.0182   -2.4907   -0.3513 H   0  0  0  0  0  0  0  0  0  0  0  0
   -1.3942   -1.7897    0.8407 C   0  0  0  0  0  0  0  0  0  0  0  0
   -0.5672   -2.4077    1.5007 O   0  0  0  0  0  0  0  0  0  0  0  0
   -1.1222   -0.6447    0.2217 N   0  0  0  0  0  0  0  0  0  0  0  0
   -1.8592   -0.1777   -0.2863 H   0  0  0  0  0  0  0  0  0  0  0  0
    0.1838    0.0363    0.2367 C   0  0  1  0  0  0  0  0  0  0  0  0
    0.3023    0.5423    1.1942 H   0  0  0  0  0  0  0  0  0  0  0  0
    1.3516   -0.9595    0.0809 C   0  0  1  0  0  0  0  0  0  0  0  0
    2.2845   -0.3963    0.0970 H   0  0  0  0  0  0  0  0  0  0  0  0
    1.4249   -2.0117    1.1857 C   0  0  0  0  0  0  0  0  0  0  0  0
    0.5696   -2.6858    1.1258 H   0  0  0  0  0  0  0  0  0  0  0  0
    2.3432   -2.5891    1.0859 H   0  0  0  0  0  0  0  0  0  0  0  0
    1.4213   -1.5213    2.1595 H   0  0  0  0  0  0  0  0  0  0  0  0
    1.2693   -1.6464   -1.1433 O   0  0  0  0  0  0  0  0  0  0  0  0
    1.9539   -2.3184   -1.1538 H   0  0  0  0  0  0  0  0  0  0  0  0
    0.2539    1.1080   -0.8581 C   0  0  0  0  0  0  0  0  0  0  0  0
    0.1954    2.3050   -0.5773 O   0  0  0  0  0  0  0  0  0  0  0  0
    0.4101    0.6813   -2.1191 N   0  0  0  0  0  0  0  0  0  0  0  0
    0.4711   -0.3102   -2.2827 H   0  0  0  0  0  0  0  0  0  0  0  0
    0.4958    1.5718   -3.2755 C   0  0  0  0  0  0  0  0  0  0  0  0
    1.2748    2.3187   -3.1096 H   0  0  0  0  0  0  0  0  0  0  0  0
    0.7294    1.0044   -4.1766 H   0  0  0  0  0  0  0  0  0  0  0  0
   -0.4559    2.0898   -3.4118 H   0  0  0  0  0  0  0  0  0  0  0  0
  5  6  2  0  0  0  0
  5  7  1  0  0  0  0
  2  3  1  0  0  0  0
  2  4  1  0  0  0  0
  2  5  1  0  0  0  0
  1  2  1  0  0  0  0
 19 20  2  0  0  0  0
 19 21  1  0  0  0  0
 17 18  1  0  0  0  0
 13 14  1  0  0  0  0
 13 15  1  0  0  0  0
 13 16  1  0  0  0  0
 11 12  1  0  0  0  0
 11 13  1  0  0  0  0
 11 17  1  0  0  0  0
  9 10  1  0  0  0  0
  9 11  1  0  0  0  0
  9 19  1  0  0  0  0
  7  8  1  0  0  0  0
  7  9  1  0  0  0  0
 23 24  1  0  0  0  0
 23 25  1  0  0  0  0
 23 26  1  0  0  0  0
 21 22  1  0  0  0  0
 21 23  1  0  0  0  0
M  END
$$$$
default_name
  -OEChem-01062215323D

 26 25  0     1  0  0  0  0  0999 V2000
   -2.8882   -3.2497    1.2537 H   0  0  0  0  0  0  0  0  0  0  0  0
   -2.8032   -2.3157    0.7017 C   0  0  0  0  0  0  0  0  0  0  0  0
   -3.5012   -1.5857    1.1067 H   0  0  0  0  0  0  0  0  0  0  0  0
   -3.0182   -2.4907   -0.3513 H   0  0  0  0  0  0  0  0  0  0  0  0
   -1.3942   -1.7897    0.8407 C   0  0  0  0  0  0  0  0  0  0  0  0
   -0.5672   -2.4077    1.5007 O   0  0  0  0  0  0  0  0  0  0  0  0
   -1.1222   -0.6447    0.2217 N   0  0  0  0  0  0  0  0  0  0  0  0
   -1.8592   -0.1777   -0.2863 H   0  0  0  0  0  0  0  0  0  0  0  0
    0.1838    0.0363    0.2367 C   0  0  1  0  0  0  0  0  0  0  0  0
    0.3023    0.5423    1.1942 H   0  0  0  0  0  0  0  0  0  0  0  0
    1.3516   -0.9595    0.0809 C   0  0  1  0  0  0  0  0  0  0  0  0
    2.2845   -0.3963    0.0970 H   0  0  0  0  0  0  0  0  0  0  0  0
    1.4249   -2.0117    1.1857 C   0  0  0  0  0  0  0  0  0  0  0  0
    0.5696   -2.6858    1.1258 H   0  0  0  0  0  0  0  0  0  0  0  0
    2.3432   -2.5891    1.0859 H   0  0  0  0  0  0  0  0  0  0  0  0
    1.4213   -1.5213    2.1595 H   0  0  0  0  0  0  0  0  0  0  0  0
    1.2693   -1.6464   -1.1433 O   0  0  0  0  0  0  0  0  0  0  0  0
    1.9539   -2.3184   -1.1538 H   0  0  0  0  0  0  0  0  0  0  0  0
    0.2539    1.1080   -0.8581 C   0  0  0  0  0  0  0  0  0  0  0  0
    0.4704    2.2868   -0.5775 O   0  0  0  0  0  0  0  0  0  0  0  0
    0.0988    0.6964   -2.1243 N   0  0  0  0  0  0  0  0  0  0  0  0
   -0.0559   -0.2843   -2.2911 H   0  0  0  0  0  0  0  0  0  0  0  0
    0.1393    1.5890   -3.2816 C   0  0  0  0  0  0  0  0  0  0  0  0
    1.0604    2.1750   -3.2640 H   0  0  0  0  0  0  0  0  0  0  0  0
    0.0975    1.0145   -4.2071 H   0  0  0  0  0  0  0  0  0  0  0  0
   -0.7083    2.2767   -3.2450 H   0  0  0  0  0  0  0  0  0  0  0  0
  5  6  2  0  0  0  0
  5  7  1  0  0  0  0
  2  3  1  0  0  0  0
  2  4  1  0  0  0  0
  2  5  1  0  0  0  0
  1  2  1  0  0  0  0
 19 20  2  0  0  0  0
 19 21  1  0  0  0  0
 17 18  1  0  0  0  0
 13 14  1  0  0  0  0
 13 15  1  0  0  0  0
 13 16  1  0  0  0  0
 11 12  1  0  0  0  0
 11 13  1  0  0  0  0
 11 17  1  0  0  0  0
  9 10  1  0  0  0  0
  9 11  1  0  0  0  0
  9 19  1  0  0  0  0
  7  8  1  0  0  0  0
  7  9  1  0  0  0  0
 23 24  1  0  0  0  0
 23 25  1  0  0  0  0
 23 26  1  0  0  0  0
 21 22  1  0  0  0  0
 21 23  1  0  0  0  0
M  END
$$$$
default_name
  -OEChem-01062215323D

 26 25  0     1  0  0  0  0  0999 V2000
   -2.8882   -3.2497    1.2537 H   0  0  0  0  0  0  0  0  0  0  0  0
   -2.8032   -2.3157    0.7017 C   0  0  0  0  0  0  0  0  0  0  0  0
   -3.5012   -1.5857    1.1067 H   0  0  0  0  0  0  0  0  0  0  0  0
   -3.0182   -2.4907   -0.3513 H   0  0  0  0  0  0  0  0  0  0  0  0
   -1.3942   -1.7897    0.8407 C   0  0  0  0  0  0  0  0  0  0  0  0
   -0.5672   -2.4077    1.5007 O   0  0  0  0  0  0  0  0  0  0  0  0
   -1.1222   -0.6447    0.2217 N   0  0  0  0  0  0  0  0  0  0  0  0
   -1.8592   -0.1777   -0.2863 H   0  0  0  0  0  0  0  0  0  0  0  0
    0.1838    0.0363    0.2367 C   0  0  1  0  0  0  0  0  0  0  0  0
    0.3023    0.5423    1.1942 H   0  0  0  0  0  0  0  0  0  0  0  0
    1.3516   -0.9595    0.0809 C   0  0  1  0  0  0  0  0  0  0  0  0
    2.2845   -0.3963    0.0970 H   0  0  0  0  0  0  0  0  0  0  0  0
    1.4249   -2.0117    1.1857 C   0  0  0  0  0  0  0  0  0  0  0  0
    0.5696   -2.6858    1.1258 H   0  0  0  0  0  0  0  0  0  0  0  0
    2.3432   -2.5891    1.0859 H   0  0  0  0  0  0  0  0  0  0  0  0
    1.4213   -1.5213    2.1595 H   0  0  0  0  0  0  0  0  0  0  0  0
    1.2693   -1.6464   -1.1433 O   0  0  0  0  0  0  0  0  0  0  0  0
    1.9539   -2.3184   -1.1538 H   0  0  0  0  0  0  0  0  0  0  0  0
    0.2539    1.1080   -0.8581 C   0  0  0  0  0  0  0  0  0  0  0  0
    0.7325    2.2184   -0.6277 O   0  0  0  0  0  0  0  0  0  0  0  0
   -0.2000    0.7686   -2.0728 N   0  0  0  0  0  0  0  0  0  0  0  0
   -0.5617   -0.1618   -2.2036 H   0  0  0  0  0  0  0  0  0  0  0  0
   -0.2030    1.6715   -3.2227 C   0  0  0  0  0  0  0  0  0  0  0  0
    0.7988    2.0776   -3.3760 H   0  0  0  0  0  0  0  0  0  0  0  0
   -0.5165    1.1414   -4.1222 H   0  0  0  0  0  0  0  0  0  0  0  0
   -0.8873    2.5019   -3.0361 H   0  0  0  0  0  0  0  0  0  0  0  0
  5  6  2  0  0  0  0
  5  7  1  0  0  0  0
  2  3  1  0  0  0  0
  2  4  1  0  0  0  0
  2  5  1  0  0  0  0
  1  2  1  0  0  0  0
 19 20  2  0  0  0  0
 19 21  1  0  0  0  0
 17 18  1  0  0  0  0
 13 14  1  0  0  0  0
 13 15  1  0  0  0  0
 13 16  1  0  0  0  0
 11 12  1  0  0  0  0
 11 13  1  0  0  0  0
 11 17  1  0  0  0  0
  9 10  1  0  0  0  0
  9 11  1  0  0  0  0
  9 19  1  0  0  0  0
  7  8  1  0  0  0  0
  7  9  1  0  0  0  0
 23 24  1  0  0  0  0
 23 25  1  0  0  0  0
 23 26  1  0  0  0  0
 21 22  1  0  0  0  0
 21 23  1  0  0  0  0
M  END
$$$$
default_name
  -OEChem-01062215323D

 26 25  0     1  0  0  0  0  0999 V2000
   -2.8882   -3.2497    1.2537 H   0  0  0  0  0  0  0  0  0  0  0  0
   -2.8032   -2.3157    0.7017 C   0  0  0  0  0  0  0  0  0  0  0  0
   -3.5012   -1.5857    1.1067 H   0  0  0  0  0  0  0  0  0  0  0  0
   -3.0182   -2.4907   -0.3513 H   0  0  0  0  0  0  0  0  0  0  0  0
   -1.3942   -1.7897    0.8407 C   0  0  0  0  0  0  0  0  0  0  0  0
   -0.5672   -2.4077    1.5007 O   0  0  0  0  0  0  0  0  0  0  0  0
   -1.1222   -0.6447    0.2217 N   0  0  0  0  0  0  0  0  0  0  0  0
   -1.8592   -0.1777   -0.2863 H   0  0  0  0  0  0  0  0  0  0  0  0
    0.1838    0.0363    0.2367 C   0  0  1  0  0  0  0  0  0  0  0  0
    0.3023    0.5423    1.1942 H   0  0  0  0  0  0  0  0  0  0  0  0
    1.3516   -0.9595    0.0809 C   0  0  1  0  0  0  0  0  0  0  0  0
    2.2845   -0.3963    0.0970 H   0  0  0  0  0  0  0  0  0  0  0  0
    1.4249   -2.0117    1.1857 C   0  0  0  0  0  0  0  0  0  0  0  0
    0.5696   -2.6858    1.1258 H   0  0  0  0  0  0  0  0  0  0  0  0
    2.3432   -2.5891    1.0859 H   0  0  0  0  0  0  0  0  0  0  0  0
    1.4213   -1.5213    2.1595 H   0  0  0  0  0  0  0  0  0  0  0  0
    1.2693   -1.6464   -1.1433 O   0  0  0  0  0  0  0  0  0  0  0  0
    1.9539   -2.3184   -1.1538 H   0  0  0  0  0  0  0  0  0  0  0  0
    0.2539    1.1080   -0.8581 C   0  0  0  0  0  0  0  0  0  0  0  0
    0.9641    2.1045   -0.7243 O   0  0  0  0  0  0  0  0  0  0  0  0
   -0.4659    0.8929   -1.9681 N   0  0  0  0  0  0  0  0  0  0  0  0
   -1.0117    0.0490   -2.0261 H   0  0  0  0  0  0  0  0  0  0  0  0
   -0.5077    1.8138   -3.1029 C   0  0  0  0  0  0  0  0  0  0  0  0
    0.5080    2.0332   -3.4381 H   0  0  0  0  0  0  0  0  0  0  0  0
   -1.0708    1.3765   -3.9276 H   0  0  0  0  0  0  0  0  0  0  0  0
   -0.9809    2.7500   -2.7993 H   0  0  0  0  0  0  0  0  0  0  0  0
  5  6  2  0  0  0  0
  5  7  1  0  0  0  0
  2  3  1  0  0  0  0
  2  4  1  0  0  0  0
  2  5  1  0  0  0  0
  1  2  1  0  0  0  0
 19 20  2  0  0  0  0
 19 21  1  0  0  0  0
 17 18  1  0  0  0  0
 13 14  1  0  0  0  0
 13 15  1  0  0  0  0
 13 16  1  0  0  0  0
 11 12  1  0  0  0  0
 11 13  1  0  0  0  0
 11 17  1  0  0  0  0
  9 10  1  0  0  0  0
  9 11  1  0  0  0  0
  9 19  1  0  0  0  0
  7  8  1  0  0  0  0
  7  9  1  0  0  0  0
 23 24  1  0  0  0  0
 23 25  1  0  0  0  0
 23 26  1  0  0  0  0
 21 22  1  0  0  0  0
 21 23  1  0  0  0  0
M  END
$$$$
default_name
  -OEChem-01062215323D

 26 25  0     1  0  0  0  0  0999 V2000
   -2.8882   -3.2497    1.2537 H   0  0  0  0  0  0  0  0  0  0  0  0
   -2.8032   -2.3157    0.7017 C   0  0  0  0  0  0  0  0  0  0  0  0
   -3.5012   -1.5857    1.1067 H   0  0  0  0  0  0  0  0  0  0  0  0
   -3.0182   -2.4907   -0.3513 H   0  0  0  0  0  0  0  0  0  0  0  0
   -1.3942   -1.7897    0.8407 C   0  0  0  0  0  0  0  0  0  0  0  0
   -0.5672   -2.4077    1.5007 O   0  0  0  0  0  0  0  0  0  0  0  0
   -1.1222   -0.6447    0.2217 N   0  0  0  0  0  0  0  0  0  0  0  0
   -1.8592   -0.1777   -0.2863 H   0  0  0  0  0  0  0  0  0  0  0  0
    0.1838    0.0363    0.2367 C   0  0  1  0  0  0  0  0  0  0  0  0
    0.3023    0.5423    1.1942 H   0  0  0  0  0  0  0  0  0  0  0  0
    1.3516   -0.9595    0.0809 C   0  0  1  0  0  0  0  0  0  0  0  0
    2.2845   -0.3963    0.0970 H   0  0  0  0  0  0  0  0  0  0  0  0
    1.4249   -2.0117    1.1857 C   0  0  0  0  0  0  0  0  0  0  0  0
    0.5696   -2.6858    1.1258 H   0  0  0  0  0  0  0  0  0  0  0  0
    2.3432   -2.5891    1.0859 H   0  0  0  0  0  0  0  0  0  0  0  0
    1.4213   -1.5213    2.1595 H   0  0  0  0  0  0  0  0  0  0  0  0
    1.2693   -1.6464   -1.1433 O   0  0  0  0  0  0  0  0  0  0  0  0
    1.9539   -2.3184   -1.1538 H   0  0  0  0  0  0  0  0  0  0  0  0
    0.2539    1.1080   -0.8581 C   0  0  0  0  0  0  0  0  0  0  0  0
    1.1492    1.9528   -0.8609 O   0  0  0  0  0  0  0  0  0  0  0  0
   -0.6809    1.0609   -1.8175 N   0  0  0  0  0  0  0  0  0  0  0  0
   -1.3755    0.3336   -1.7708 H   0  0  0  0  0  0  0  0  0  0  0  0
   -0.7541    2.0061   -2.9305 C   0  0  0  0  0  0  0  0  0  0  0  0
    0.2076    2.0448   -3.4460 H   0  0  0  0  0  0  0  0  0  0  0  0
   -1.5275    1.7036   -3.6367 H   0  0  0  0  0  0  0  0  0  0  0  0
   -0.9827    3.0042   -2.5506 H   0  0  0  0  0  0  0  0  0  0  0  0
  5  6  2  0  0  0  0
  5  7  1  0  0  0  0
  2  3  1  0  0  0  0
  2  4  1  0  0  0  0
  2  5  1  0  0  0  0
  1  2  1  0  0  0  0
 19 20  2  0  0  0  0
 19 21  1  0  0  0  0
 17 18  1  0  0  0  0
 13 14  1  0  0  0  0
 13 15  1  0  0  0  0
 13 16  1  0  0  0  0
 11 12  1  0  0  0  0
 11 13  1  0  0  0  0
 11 17  1  0  0  0  0
  9 10  1  0  0  0  0
  9 11  1  0  0  0  0
  9 19  1  0  0  0  0
  7  8  1  0  0  0  0
  7  9  1  0  0  0  0
 23 24  1  0  0  0  0
 23 25  1  0  0  0  0
 23 26  1  0  0  0  0
 21 22  1  0  0  0  0
 21 23  1  0  0  0  0
M  END
$$$$
default_name
  -OEChem-01062215323D

 26 25  0     1  0  0  0  0  0999 V2000
   -2.8882   -3.2497    1.2537 H   0  0  0  0  0  0  0  0  0  0  0  0
   -2.8032   -2.3157    0.7017 C   0  0  0  0  0  0  0  0  0  0  0  0
   -3.5012   -1.5857    1.1067 H   0  0  0  0  0  0  0  0  0  0  0  0
   -3.0182   -2.4907   -0.3513 H   0  0  0  0  0  0  0  0  0  0  0  0
   -1.3942   -1.7897    0.8407 C   0  0  0  0  0  0  0  0  0  0  0  0
   -0.5672   -2.4077    1.5007 O   0  0  0  0  0  0  0  0  0  0  0  0
   -1.1222   -0.6447    0.2217 N   0  0  0  0  0  0  0  0  0  0  0  0
   -1.8592   -0.1777   -0.2863 H   0  0  0  0  0  0  0  0  0  0  0  0
    0.1838    0.0363    0.2367 C   0  0  1  0  0  0  0  0  0  0  0  0
    0.3023    0.5423    1.1942 H   0  0  0  0  0  0  0  0  0  0  0  0
    1.3516   -0.9595    0.0809 C   0  0  1  0  0  0  0  0  0  0  0  0
    2.2845   -0.3963    0.0970 H   0  0  0  0  0  0  0  0  0  0  0  0
    1.4249   -2.0117    1.1857 C   0  0  0  0  0  0  0  0  0  0  0  0
    0.5696   -2.6858    1.1258 H   0  0  0  0  0  0  0  0  0  0  0  0
    2.3432   -2.5891    1.0859 H   0  0  0  0  0  0  0  0  0  0  0  0
    1.4213   -1.5213    2.1595 H   0  0  0  0  0  0  0  0  0  0  0  0
    1.2693   -1.6464   -1.1433 O   0  0  0  0  0  0  0  0  0  0  0  0
    1.9539   -2.3184   -1.1538 H   0  0  0  0  0  0  0  0  0  0  0  0
    0.2539    1.1080   -0.8581 C   0  0  0  0  0  0  0  0  0  0  0  0
    1.2753    1.7737   -1.0282 O   0  0  0  0  0  0  0  0  0  0  0  0
   -0.8303    1.2611   -1.6311 N   0  0  0  0  0  0  0  0  0  0  0  0
   -1.6280    0.6727   -1.4551 H   0  0  0  0  0  0  0  0  0  0  0  0
   -0.9254    2.2354   -2.7171 C   0  0  0  0  0  0  0  0  0  0  0  0
   -0.0819    2.1116   -3.3992 H   0  0  0  0  0  0  0  0  0  0  0  0
   -1.8557    2.1006   -3.2692 H   0  0  0  0  0  0  0  0  0  0  0  0
   -0.8924    3.2470   -2.3071 H   0  0  0  0  0  0  0  0  0  0  0  0
  5  6  2  0  0  0  0
  5  7  1  0  0  0  0
  2  3  1  0  0  0  0
  2  4  1  0  0  0  0
  2  5  1  0  0  0  0
  1  2  1  0  0  0  0
 19 20  2  0  0  0  0
 19 21  1  0  0  0  0
 17 18  1  0  0  0  0
 13 14  1  0  0  0  0
 13 15  1  0  0  0  0
 13 16  1  0  0  0  0
 11 12  1  0  0  0  0
 11 13  1  0  0  0  0
 11 17  1  0  0  0  0
  9 10  1  0  0  0  0
  9 11  1  0  0  0  0
  9 19  1  0  0  0  0
  7  8  1  0  0  0  0
  7  9  1  0  0  0  0
 23 24  1  0  0  0  0
 23 25  1  0  0  0  0
 23 26  1  0  0  0  0
 21 22  1  0  0  0  0
 21 23  1  0  0  0  0
M  END
$$$$
default_name
  -OEChem-01062215323D

 26 25  0     1  0  0  0  0  0999 V2000
   -2.8882   -3.2497    1.2537 H   0  0  0  0  0  0  0  0  0  0  0  0
   -2.8032   -2.3157    0.7017 C   0  0  0  0  0  0  0  0  0  0  0  0
   -3.5012   -1.5857    1.1067 H   0  0  0  0  0  0  0  0  0  0  0  0
   -3.0182   -2.4907   -0.3513 H   0  0  0  0  0  0  0  0  0  0  0  0
   -1.3942   -1.7897    0.8407 C   0  0  0  0  0  0  0  0  0  0  0  0
   -0.5672   -2.4077    1.5007 O   0  0  0  0  0  0  0  0  0  0  0  0
   -1.1222   -0.6447    0.2217 N   0  0  0  0  0  0  0  0  0  0  0  0
   -1.8592   -0.1777   -0.2863 H   0  0  0  0  0  0  0  0  0  0  0  0
    0.1838    0.0363    0.2367 C   0  0  1  0  0  0  0  0  0  0  0  0
    0.3023    0.5423    1.1942 H   0  0  0  0  0  0  0  0  0  0  0  0
    1.3516   -0.9595    0.0809 C   0  0  1  0  0  0  0  0  0  0  0  0
    2.2845   -0.3963    0.0970 H   0  0  0  0  0  0  0  0  0  0  0  0
    1.4249   -2.0117    1.1857 C   0  0  0  0  0  0  0  0  0  0  0  0
    0.5696   -2.6858    1.1258 H   0  0  0  0  0  0  0  0  0  0  0  0
    2.3432   -2.5891    1.0859 H   0  0  0  0  0  0  0  0  0  0  0  0
    1.4213   -1.5213    2.1595 H   0  0  0  0  0  0  0  0  0  0  0  0
    1.2693   -1.6464   -1.1433 O   0  0  0  0  0  0  0  0  0  0  0  0
    1.9539   -2.3184   -1.1538 H   0  0  0  0  0  0  0  0  0  0  0  0
    0.2539    1.1080   -0.8581 C   0  0  0  0  0  0  0  0  0  0  0  0
    1.3337    1.5794   -1.2146 O   0  0  0  0  0  0  0  0  0  0  0  0
   -0.9039    1.4798   -1.4217 N   0  0  0  0  0  0  0  0  0  0  0  0
   -1.7522    1.0432   -1.1004 H   0  0  0  0  0  0  0  0  0  0  0  0
   -1.0099    2.4859   -2.4772 C   0  0  0  0  0  0  0  0  0  0  0  0
   -0.3407    2.2290   -3.3008 H   0  0  0  0  0  0  0  0  0  0  0  0
   -2.0328    2.5403   -2.8501 H   0  0  0  0  0  0  0  0  0  0  0  0
   -0.7163    3.4621   -2.0853 H   0  0  0  0  0  0  0  0  0  0  0  0
  5  6  2  0  0  0  0
  5  7  1  0  0  0  0
  2  3  1  0  0  0  0
  2  4  1  0  0  0  0
  2  5  1  0  0  0  0
  1  2  1  0  0  0  0
 19 20  2  0  0  0  0
 19 21  1  0  0  0  0
 17 18  1  0  0  0  0
 13 14  1  0  0  0  0
 13 15  1  0  0  0  0
 13 16  1  0  0  0  0
 11 12  1  0  0  0  0
 11 13  1  0  0  0  0
 11 17  1  0  0  0  0
  9 10  1  0  0  0  0
  9 11  1  0  0  0  0
  9 19  1  0  0  0  0
  7  8  1  0  0  0  0
  7  9  1  0  0  0  0
 23 24  1  0  0  0  0
 23 25  1  0  0  0  0
 23 26  1  0  0  0  0
 21 22  1  0  0  0  0
 21 23  1  0  0  0  0
M  END
$$$$
default_name
  -OEChem-01062215323D

 26 25  0     1  0  0  0  0  0999 V2000
   -2.8882   -3.2497    1.2537 H   0  0  0  0  0  0  0  0  0  0  0  0
   -2.8032   -2.3157    0.7017 C   0  0  0  0  0  0  0  0  0  0  0  0
   -3.5012   -1.5857    1.1067 H   0  0  0  0  0  0  0  0  0  0  0  0
   -3.0182   -2.4907   -0.3513 H   0  0  0  0  0  0  0  0  0  0  0  0
   -1.3942   -1.7897    0.8407 C   0  0  0  0  0  0  0  0  0  0  0  0
   -0.5672   -2.4077    1.5007 O   0  0  0  0  0  0  0  0  0  0  0  0
   -1.1222   -0.6447    0.2217 N   0  0  0  0  0  0  0  0  0  0  0  0
   -1.8592   -0.1777   -0.2863 H   0  0  0  0  0  0  0  0  0  0  0  0
    0.1838    0.0363    0.2367 C   0  0  1  0  0  0  0  0  0  0  0  0
    0.3023    0.5423    1.1942 H   0  0  0  0  0  0  0  0  0  0  0  0
    1.3516   -0.9595    0.0809 C   0  0  1  0  0  0  0  0  0  0  0  0
    2.2845   -0.3963    0.0970 H   0  0  0  0  0  0  0  0  0  0  0  0
    1.4249   -2.0117    1.1857 C   0  0  0  0  0  0  0  0  0  0  0  0
    0.5696   -2.6858    1.1258 H   0  0  0  0  0  0  0  0  0  0  0  0
    2.3432   -2.5891    1.0859 H   0  0  0  0  0  0  0  0  0  0  0  0
    1.4213   -1.5213    2.1595 H   0  0  0  0  0  0  0  0  0  0  0  0
    1.2693   -1.6464   -1.1433 O   0  0  0  0  0  0  0  0  0  0  0  0
    1.9539   -2.3184   -1.1538 H   0  0  0  0  0  0  0  0  0  0  0  0
    0.2539    1.1080   -0.8581 C   0  0  0  0  0  0  0  0  0  0  0  0
    1.3205    1.3831   -1.4076 O   0  0  0  0  0  0  0  0  0  0  0  0
   -0.8968    1.7023   -1.2035 N   0  0  0  0  0  0  0  0  0  0  0  0
   -1.7396    1.4198   -0.7310 H   0  0  0  0  0  0  0  0  0  0  0  0
   -1.0018    2.7407   -2.2273 C   0  0  0  0  0  0  0  0  0  0  0  0
   -0.5512    2.3891   -3.1576 H   0  0  0  0  0  0  0  0  0  0  0  0
   -2.0469    2.9928   -2.4081 H   0  0  0  0  0  0  0  0  0  0  0  0
   -0.4664    3.6346   -1.9004 H   0  0  0  0  0  0  0  0  0  0  0  0
  5  6  2  0  0  0  0
  5  7  1  0  0  0  0
  2  3  1  0  0  0  0
  2  4  1  0  0  0  0
  2  5  1  0  0  0  0
  1  2  1  0  0  0  0
 19 20  2  0  0  0  0
 19 21  1  0  0  0  0
 17 18  1  0  0  0  0
 13 14  1  0  0  0  0
 13 15  1  0  0  0  0
 13 16  1  0  0  0  0
 11 12  1  0  0  0  0
 11 13  1  0  0  0  0
 11 17  1  0  0  0  0
  9 10  1  0  0  0  0
  9 11  1  0  0  0  0
  9 19  1  0  0  0  0
  7  8  1  0  0  0  0
  7  9  1  0  0  0  0
 23 24  1  0  0  0  0
 23 25  1  0  0  0  0
 23 26  1  0  0  0  0
 21 22  1  0  0  0  0
 21 23  1  0  0  0  0
M  END
$$$$
default_name
  -OEChem-01062215323D

 26 25  0     1  0  0  0  0  0999 V2000
   -2.8882   -3.2497    1.2537 H   0  0  0  0  0  0  0  0  0  0  0  0
   -2.8032   -2.3157    0.7017 C   0  0  0  0  0  0  0  0  0  0  0  0
   -3.5012   -1.5857    1.1067 H   0  0  0  0  0  0  0  0  0  0  0  0
   -3.0182   -2.4907   -0.3513 H   0  0  0  0  0  0  0  0  0  0  0  0
   -1.3942   -1.7897    0.8407 C   0  0  0  0  0  0  0  0  0  0  0  0
   -0.5672   -2.4077    1.5007 O   0  0  0  0  0  0  0  0  0  0  0  0
   -1.1222   -0.6447    0.2217 N   0  0  0  0  0  0  0  0  0  0  0  0
   -1.8592   -0.1777   -0.2863 H   0  0  0  0  0  0  0  0  0  0  0  0
    0.1838    0.0363    0.2367 C   0  0  1  0  0  0  0  0  0  0  0  0
    0.3023    0.5423    1.1942 H   0  0  0  0  0  0  0  0  0  0  0  0
    1.3516   -0.9595    0.0809 C   0  0  1  0  0  0  0  0  0  0  0  0
    2.2845   -0.3963    0.0970 H   0  0  0  0  0  0  0  0  0  0  0  0
    1.4249   -2.0117    1.1857 C   0  0  0  0  0  0  0  0  0  0  0  0
    0.5696   -2.6858    1.1258 H   0  0  0  0  0  0  0  0  0  0  0  0
    2.3432   -2.5891    1.0859 H   0  0  0  0  0  0  0  0  0  0  0  0
    1.4213   -1.5213    2.1595 H   0  0  0  0  0  0  0  0  0  0  0  0
    1.2693   -1.6464   -1.1433 O   0  0  0  0  0  0  0  0  0  0  0  0
    1.9539   -2.3184   -1.1538 H   0  0  0  0  0  0  0  0  0  0  0  0
    0.2539    1.1080   -0.8581 C   0  0  0  0  0  0  0  0  0  0  0  0
    1.2366    1.1982   -1.5939 O   0  0  0  0  0  0  0  0  0  0  0  0
   -0.8092    1.9132   -0.9914 N   0  0  0  0  0  0  0  0  0  0  0  0
   -1.5910    1.7768   -0.3720 H   0  0  0  0  0  0  0  0  0  0  0  0
   -0.9018    2.9824   -1.9844 C   0  0  0  0  0  0  0  0  0  0  0  0
   -0.6990    2.5810   -2.9793 H   0  0  0  0  0  0  0  0  0  0  0  0
   -1.8970    3.4272   -1.9733 H   0  0  0  0  0  0  0  0  0  0  0  0
   -0.1596    3.7529   -1.7650 H   0  0  0  0  0  0  0  0  0  0  0  0
  5  6  2  0  0  0  0
  5  7  1  0  0  0  0
  2  3  1  0  0  0  0
  2  4  1  0  0  0  0
  2  5  1  0  0  0  0
  1  2  1  0  0  0  0
 19 20  2  0  0  0  0
 19 21  1  0  0  0  0
 17 18  1  0  0  0  0
 13 14  1  0  0  0  0
 13 15  1  0  0  0  0
 13 16  1  0  0  0  0
 11 12  1  0  0  0  0
 11 13  1  0  0  0  0
 11 17  1  0  0  0  0
  9 10  1  0  0  0  0
  9 11  1  0  0  0  0
  9 19  1  0  0  0  0
  7  8  1  0  0  0  0
  7  9  1  0  0  0  0
 23 24  1  0  0  0  0
 23 25  1  0  0  0  0
 23 26  1  0  0  0  0
 21 22  1  0  0  0  0
 21 23  1  0  0  0  0
M  END
$$$$
default_name
  -OEChem-01062215323D

 26 25  0     1  0  0  0  0  0999 V2000
   -2.8882   -3.2497    1.2537 H   0  0  0  0  0  0  0  0  0  0  0  0
   -2.8032   -2.3157    0.7017 C   0  0  0  0  0  0  0  0  0  0  0  0
   -3.5012   -1.5857    1.1067 H   0  0  0  0  0  0  0  0  0  0  0  0
   -3.0182   -2.4907   -0.3513 H   0  0  0  0  0  0  0  0  0  0  0  0
   -1.3942   -1.7897    0.8407 C   0  0  0  0  0  0  0  0  0  0  0  0
   -0.5672   -2.4077    1.5007 O   0  0  0  0  0  0  0  0  0  0  0  0
   -1.1222   -0.6447    0.2217 N   0  0  0  0  0  0  0  0  0  0  0  0
   -1.8592   -0.1777   -0.2863 H   0  0  0  0  0  0  0  0  0  0  0  0
    0.1838    0.0363    0.2367 C   0  0  1  0  0  0  0  0  0  0  0  0
    0.3023    0.5423    1.1942 H   0  0  0  0  0  0  0  0  0  0  0  0
    1.3516   -0.9595    0.0809 C   0  0  1  0  0  0  0  0  0  0  0  0
    2.2845   -0.3963    0.0970 H   0  0  0  0  0  0  0  0  0  0  0  0
    1.4249   -2.0117    1.1857 C   0  0  0  0  0  0  0  0  0  0  0  0
    0.5696   -2.6858    1.1258 H   0  0  0  0  0  0  0  0  0  0  0  0
    2.3432   -2.5891    1.0859 H   0  0  0  0  0  0  0  0  0  0  0  0
    1.4213   -1.5213    2.1595 H   0  0  0  0  0  0  0  0  0  0  0  0
    1.2693   -1.6464   -1.1433 O   0  0  0  0  0  0  0  0  0  0  0  0
    1.9539   -2.3184   -1.1538 H   0  0  0  0  0  0  0  0  0  0  0  0
    0.2539    1.1080   -0.8581 C   0  0  0  0  0  0  0  0  0  0  0  0
    1.0878    1.0374   -1.7609 O   0  0  0  0  0  0  0  0  0  0  0  0
   -0.6474    2.0983   -0.7999 N   0  0  0  0  0  0  0  0  0  0  0  0
   -1.3166    2.0901   -0.0478 H   0  0  0  0  0  0  0  0  0  0  0  0
   -0.7165    3.1944   -1.7650 C   0  0  0  0  0  0  0  0  0  0  0  0
   -0.7741    2.7915   -2.7780 H   0  0  0  0  0  0  0  0  0  0  0  0
   -1.5932    3.8140   -1.5753 H   0  0  0  0  0  0  0  0  0  0  0  0
    0.1830    3.8089   -1.6883 H   0  0  0  0  0  0  0  0  0  0  0  0
  5  6  2  0  0  0  0
  5  7  1  0  0  0  0
  2  3  1  0  0  0  0
  2  4  1  0  0  0  0
  2  5  1  0  0  0  0
  1  2  1  0  0  0  0
 19 20  2  0  0  0  0
 19 21  1  0  0  0  0
 17 18  1  0  0  0  0
 13 14  1  0  0  0  0
 13 15  1  0  0  0  0
 13 16  1  0  0  0  0
 11 12  1  0  0  0  0
 11 13  1  0  0  0  0
 11 17  1  0  0  0  0
  9 10  1  0  0  0  0
  9 11  1  0  0  0  0
  9 19  1  0  0  0  0
  7  8  1  0  0  0  0
  7  9  1  0  0  0  0
 23 24  1  0  0  0  0
 23 25  1  0  0  0  0
 23 26  1  0  0  0  0
 21 22  1  0  0  0  0
 21 23  1  0  0  0  0
M  END
$$$$
default_name
  -OEChem-01062215323D

 26 25  0     1  0  0  0  0  0999 V2000
   -2.8882   -3.2497    1.2537 H   0  0  0  0  0  0  0  0  0  0  0  0
   -2.8032   -2.3157    0.7017 C   0  0  0  0  0  0  0  0  0  0  0  0
   -3.5012   -1.5857    1.1067 H   0  0  0  0  0  0  0  0  0  0  0  0
   -3.0182   -2.4907   -0.3513 H   0  0  0  0  0  0  0  0  0  0  0  0
   -1.3942   -1.7897    0.8407 C   0  0  0  0  0  0  0  0  0  0  0  0
   -0.5672   -2.4077    1.5007 O   0  0  0  0  0  0  0  0  0  0  0  0
   -1.1222   -0.6447    0.2217 N   0  0  0  0  0  0  0  0  0  0  0  0
   -1.8592   -0.1777   -0.2863 H   0  0  0  0  0  0  0  0  0  0  0  0
    0.1838    0.0363    0.2367 C   0  0  1  0  0  0  0  0  0  0  0  0
    0.3023    0.5423    1.1942 H   0  0  0  0  0  0  0  0  0  0  0  0
    1.3516   -0.9595    0.0809 C   0  0  1  0  0  0  0  0  0  0  0  0
    2.2845   -0.3963    0.0970 H   0  0  0  0  0  0  0  0  0  0  0  0
    1.4249   -2.0117    1.1857 C   0  0  0  0  0  0  0  0  0  0  0  0
    0.5696   -2.6858    1.1258 H   0  0  0  0  0  0  0  0  0  0  0  0
    2.3432   -2.5891    1.0859 H   0  0  0  0  0  0  0  0  0  0  0  0
    1.4213   -1.5213    2.1595 H   0  0  0  0  0  0  0  0  0  0  0  0
    1.2693   -1.6464   -1.1433 O   0  0  0  0  0  0  0  0  0  0  0  0
    1.9539   -2.3184   -1.1538 H   0  0  0  0  0  0  0  0  0  0  0  0
    0.2539    1.1080   -0.8581 C   0  0  0  0  0  0  0  0  0  0  0  0
    0.8840    0.9115   -1.8972 O   0  0  0  0  0  0  0  0  0  0  0  0
   -0.4222    2.2449   -0.6420 N   0  0  0  0  0  0  0  0  0  0  0  0
   -0.9350    2.3380    0.2194 H   0  0  0  0  0  0  0  0  0  0  0  0
   -0.4587    3.3625   -1.5840 C   0  0  0  0  0  0  0  0  0  0  0  0
   -0.7713    3.0063   -2.5676 H   0  0  0  0  0  0  0  0  0  0  0  0
   -1.1564    4.1268   -1.2411 H   0  0  0  0  0  0  0  0  0  0  0  0
    0.5382    3.7988   -1.6754 H   0  0  0  0  0  0  0  0  0  0  0  0
  5  6  2  0  0  0  0
  5  7  1  0  0  0  0
  2  3  1  0  0  0  0
  2  4  1  0  0  0  0
  2  5  1  0  0  0  0
  1  2  1  0  0  0  0
 19 20  2  0  0  0  0
 19 21  1  0  0  0  0
 17 18  1  0  0  0  0
 13 14  1  0  0  0  0
 13 15  1  0  0  0  0
 13 16  1  0  0  0  0
 11 12  1  0  0  0  0
 11 13  1  0  0  0  0
 11 17  1  0  0  0  0
  9 10  1  0  0  0  0
  9 11  1  0  0  0  0
  9 19  1  0  0  0  0
  7  8  1  0  0  0  0
  7  9  1  0  0  0  0
 23 24  1  0  0  0  0
 23 25  1  0  0  0  0
 23 26  1  0  0  0  0
 21 22  1  0  0  0  0
 21 23  1  0  0  0  0
M  END
$$$$
default_name
  -OEChem-01062215323D

 26 25  0     1  0  0  0  0  0999 V2000
   -2.8882   -3.2497    1.2537 H   0  0  0  0  0  0  0  0  0  0  0  0
   -2.8032   -2.3157    0.7017 C   0  0  0  0  0  0  0  0  0  0  0  0
   -3.5012   -1.5857    1.1067 H   0  0  0  0  0  0  0  0  0  0  0  0
   -3.0182   -2.4907   -0.3513 H   0  0  0  0  0  0  0  0  0  0  0  0
   -1.3942   -1.7897    0.8407 C   0  0  0  0  0  0  0  0  0  0  0  0
   -0.5672   -2.4077    1.5007 O   0  0  0  0  0  0  0  0  0  0  0  0
   -1.1222   -0.6447    0.2217 N   0  0  0  0  0  0  0  0  0  0  0  0
   -1.8592   -0.1777   -0.2863 H   0  0  0  0  0  0  0  0  0  0  0  0
    0.1838    0.0363    0.2367 C   0  0  1  0  0  0  0  0  0  0  0  0
    0.3023    0.5423    1.1942 H   0  0  0  0  0  0  0  0  0  0  0  0
    1.3516   -0.9595    0.0809 C   0  0  1  0  0  0  0  0  0  0  0  0
    2.2845   -0.3963    0.0970 H   0  0  0  0  0  0  0  0  0  0  0  0
    1.4249   -2.0117    1.1857 C   0  0  0  0  0  0  0  0  0  0  0  0
    0.5696   -2.6858    1.1258 H   0  0  0  0  0  0  0  0  0  0  0  0
    2.3432   -2.5891    1.0859 H   0  0  0  0  0  0  0  0  0  0  0  0
    1.4213   -1.5213    2.1595 H   0  0  0  0  0  0  0  0  0  0  0  0
    1.2693   -1.6464   -1.1433 O   0  0  0  0  0  0  0  0  0  0  0  0
    1.9539   -2.3184   -1.1538 H   0  0  0  0  0  0  0  0  0  0  0  0
    0.2539    1.1080   -0.8581 C   0  0  0  0  0  0  0  0  0  0  0  0
    0.6393    0.8291   -1.9934 O   0  0  0  0  0  0  0  0  0  0  0  0
   -0.1490    2.3431   -0.5284 N   0  0  0  0  0  0  0  0  0  0  0  0
   -0.4723    2.5039    0.4113 H   0  0  0  0  0  0  0  0  0  0  0  0
   -0.1460    3.4750   -1.4538 C   0  0  0  0  0  0  0  0  0  0  0  0
   -0.6909    3.2108   -2.3623 H   0  0  0  0  0  0  0  0  0  0  0  0
   -0.6162    4.3442   -0.9937 H   0  0  0  0  0  0  0  0  0  0  0  0
    0.8817    3.7232   -1.7274 H   0  0  0  0  0  0  0  0  0  0  0  0
  5  6  2  0  0  0  0
  5  7  1  0  0  0  0
  2  3  1  0  0  0  0
  2  4  1  0  0  0  0
  2  5  1  0  0  0  0
  1  2  1  0  0  0  0
 19 20  2  0  0  0  0
 19 21  1  0  0  0  0
 17 18  1  0  0  0  0
 13 14  1  0  0  0  0
 13 15  1  0  0  0  0
 13 16  1  0  0  0  0
 11 12  1  0  0  0  0
 11 13  1  0  0  0  0
 11 17  1  0  0  0  0
  9 10  1  0  0  0  0
  9 11  1  0  0  0  0
  9 19  1  0  0  0  0
  7  8  1  0  0  0  0
  7  9  1  0  0  0  0
 23 24  1  0  0  0  0
 23 25  1  0  0  0  0
 23 26  1  0  0  0  0
 21 22  1  0  0  0  0
 21 23  1  0  0  0  0
M  END
$$$$
default_name
  -OEChem-01062215323D

 26 25  0     1  0  0  0  0  0999 V2000
   -2.8882   -3.2497    1.2537 H   0  0  0  0  0  0  0  0  0  0  0  0
   -2.8032   -2.3157    0.7017 C   0  0  0  0  0  0  0  0  0  0  0  0
   -3.5012   -1.5857    1.1067 H   0  0  0  0  0  0  0  0  0  0  0  0
   -3.0182   -2.4907   -0.3513 H   0  0  0  0  0  0  0  0  0  0  0  0
   -1.3942   -1.7897    0.8407 C   0  0  0  0  0  0  0  0  0  0  0  0
   -0.5672   -2.4077    1.5007 O   0  0  0  0  0  0  0  0  0  0  0  0
   -1.1222   -0.6447    0.2217 N   0  0  0  0  0  0  0  0  0  0  0  0
   -1.8592   -0.1777   -0.2863 H   0  0  0  0  0  0  0  0  0  0  0  0
    0.1838    0.0363    0.2367 C   0  0  1  0  0  0  0  0  0  0  0  0
    0.3023    0.5423    1.1942 H   0  0  0  0  0  0  0  0  0  0  0  0
    1.3516   -0.9595    0.0809 C   0  0  1  0  0  0  0  0  0  0  0  0
    2.2845   -0.3963    0.0970 H   0  0  0  0  0  0  0  0  0  0  0  0
    1.4249   -2.0117    1.1857 C   0  0  0  0  0  0  0  0  0  0  0  0
    0.5696   -2.6858    1.1258 H   0  0  0  0  0  0  0  0  0  0  0  0
    2.3432   -2.5891    1.0859 H   0  0  0  0  0  0  0  0  0  0  0  0
    1.4213   -1.5213    2.1595 H   0  0  0  0  0  0  0  0  0  0  0  0
    1.2693   -1.6464   -1.1433 O   0  0  0  0  0  0  0  0  0  0  0  0
    1.9539   -2.3184   -1.1538 H   0  0  0  0  0  0  0  0  0  0  0  0
    0.2539    1.1080   -0.8581 C   0  0  0  0  0  0  0  0  0  0  0  0
    0.3703    0.7959   -2.0432 O   0  0  0  0  0  0  0  0  0  0  0  0
    0.1535    2.3860   -0.4670 N   0  0  0  0  0  0  0  0  0  0  0  0
    0.0400    2.5764    0.5151 H   0  0  0  0  0  0  0  0  0  0  0  0
    0.2005    3.5243   -1.3833 C   0  0  0  0  0  0  0  0  0  0  0  0
   -0.5383    3.3910   -2.1761 H   0  0  0  0  0  0  0  0  0  0  0  0
   -0.0095    4.4515   -0.8498 H   0  0  0  0  0  0  0  0  0  0  0  0
    1.1902    3.5873   -1.8406 H   0  0  0  0  0  0  0  0  0  0  0  0
  5  6  2  0  0  0  0
  5  7  1  0  0  0  0
  2  3  1  0  0  0  0
  2  4  1  0  0  0  0
  2  5  1  0  0  0  0
  1  2  1  0  0  0  0
 19 20  2  0  0  0  0
 19 21  1  0  0  0  0
 17 18  1  0  0  0  0
 13 14  1  0  0  0  0
 13 15  1  0  0  0  0
 13 16  1  0  0  0  0
 11 12  1  0  0  0  0
 11 13  1  0  0  0  0
 11 17  1  0  0  0  0
  9 10  1  0  0  0  0
  9 11  1  0  0  0  0
  9 19  1  0  0  0  0
  7  8  1  0  0  0  0
  7  9  1  0  0  0  0
 23 24  1  0  0  0  0
 23 25  1  0  0  0  0
 23 26  1  0  0  0  0
 21 22  1  0  0  0  0
 21 23  1  0  0  0  0
M  END
$$$$
default_name
  -OEChem-01062215323D

 26 25  0     1  0  0  0  0  0999 V2000
   -2.8882   -3.2497    1.2537 H   0  0  0  0  0  0  0  0  0  0  0  0
   -2.8032   -2.3157    0.7017 C   0  0  0  0  0  0  0  0  0  0  0  0
   -3.5012   -1.5857    1.1067 H   0  0  0  0  0  0  0  0  0  0  0  0
   -3.0182   -2.4907   -0.3513 H   0  0  0  0  0  0  0  0  0  0  0  0
   -1.3942   -1.7897    0.8407 C   0  0  0  0  0  0  0  0  0  0  0  0
   -0.5672   -2.4077    1.5007 O   0  0  0  0  0  0  0  0  0  0  0  0
   -1.1222   -0.6447    0.2217 N   0  0  0  0  0  0  0  0  0  0  0  0
   -1.8592   -0.1777   -0.2863 H   0  0  0  0  0  0  0  0  0  0  0  0
    0.1838    0.0363    0.2367 C   0  0  1  0  0  0  0  0  0  0  0  0
    0.3023    0.5423    1.1942 H   0  0  0  0  0  0  0  0  0  0  0  0
    1.3516   -0.9595    0.0809 C   0  0  1  0  0  0  0  0  0  0  0  0
    2.2845   -0.3963    0.0970 H   0  0  0  0  0  0  0  0  0  0  0  0
    1.4249   -2.0117    1.1857 C   0  0  0  0  0  0  0  0  0  0  0  0
    0.5696   -2.6858    1.1258 H   0  0  0  0  0  0  0  0  0  0  0  0
    2.3432   -2.5891    1.0859 H   0  0  0  0  0  0  0  0  0  0  0  0
    1.4213   -1.5213    2.1595 H   0  0  0  0  0  0  0  0  0  0  0  0
    1.2693   -1.6464   -1.1433 O   0  0  0  0  0  0  0  0  0  0  0  0
    1.9539   -2.3184   -1.1538 H   0  0  0  0  0  0  0  0  0  0  0  0
    0.2539    1.1080   -0.8581 C   0  0  0  0  0  0  0  0  0  0  0  0
    0.0954    0.8141   -2.0429 O   0  0  0  0  0  0  0  0  0  0  0  0
    0.4647    2.3709   -0.4618 N   0  0  0  0  0  0  0  0  0  0  0  0
    0.5670    2.5505    0.5235 H   0  0  0  0  0  0  0  0  0  0  0  0
    0.5570    3.5072   -1.3773 C   0  0  0  0  0  0  0  0  0  0  0  0
   -0.3239    3.5347   -2.0217 H   0  0  0  0  0  0  0  0  0  0  0  0
    0.6224    4.4414   -0.8193 H   0  0  0  0  0  0  0  0  0  0  0  0
    1.4426    3.4004   -2.0074 H   0  0  0  0  0  0  0  0  0  0  0  0
  5  6  2  0  0  0  0
  5  7  1  0  0  0  0
  2  3  1  0  0  0  0
  2  4  1  0  0  0  0
  2  5  1  0  0  0  0
  1  2  1  0  0  0  0
 19 20  2  0  0  0  0
 19 21  1  0  0  0  0
 17 18  1  0  0  0  0
 13 14  1  0  0  0  0
 13 15  1  0  0  0  0
 13 16  1  0  0  0  0
 11 12  1  0  0  0  0
 11 13  1  0  0  0  0
 11 17  1  0  0  0  0
  9 10  1  0  0  0  0
  9 11  1  0  0  0  0
  9 19  1  0  0  0  0
  7  8  1  0  0  0  0
  7  9  1  0  0  0  0
 23 24  1  0  0  0  0
 23 25  1  0  0  0  0
 23 26  1  0  0  0  0
 21 22  1  0  0  0  0
 21 23  1  0  0  0  0
M  END
$$$$
default_name
  -OEChem-01062215323D

 26 25  0     1  0  0  0  0  0999 V2000
   -2.8882   -3.2497    1.2537 H   0  0  0  0  0  0  0  0  0  0  0  0
   -2.8032   -2.3157    0.7017 C   0  0  0  0  0  0  0  0  0  0  0  0
   -3.5012   -1.5857    1.1067 H   0  0  0  0  0  0  0  0  0  0  0  0
   -3.0182   -2.4907   -0.3513 H   0  0  0  0  0  0  0  0  0  0  0  0
   -1.3942   -1.7897    0.8407 C   0  0  0  0  0  0  0  0  0  0  0  0
   -0.5672   -2.4077    1.5007 O   0  0  0  0  0  0  0  0  0  0  0  0
   -1.1222   -0.6447    0.2217 N   0  0  0  0  0  0  0  0  0  0  0  0
   -1.8592   -0.1777   -0.2863 H   0  0  0  0  0  0  0  0  0  0  0  0
    0.1838    0.0363    0.2367 C   0  0  1  0  0  0  0  0  0  0  0  0
    0.3023    0.5423    1.1942 H   0  0  0  0  0  0  0  0  0  0  0  0
    1.3516   -0.9595    0.0809 C   0  0  1  0  0  0  0  0  0  0  0  0
    2.2845   -0.3963    0.0970 H   0  0  0  0  0  0  0  0  0  0  0  0
    1.4249   -2.0117    1.1857 C   0  0  0  0  0  0  0  0  0  0  0  0
    0.5696   -2.6858    1.1258 H   0  0  0  0  0  0  0  0  0  0  0  0
    2.3432   -2.5891    1.0859 H   0  0  0  0  0  0  0  0  0  0  0  0
    1.4213   -1.5213    2.1595 H   0  0  0  0  0  0  0  0  0  0  0  0
    1.2693   -1.6464   -1.1433 O   0  0  0  0  0  0  0  0  0  0  0  0
    1.9539   -2.3184   -1.1538 H   0  0  0  0  0  0  0  0  0  0  0  0
    0.2539    1.1080   -0.8581 C   0  0  0  0  0  0  0  0  0  0  0  0
   -0.1668    0.8825   -1.9928 O   0  0  0  0  0  0  0  0  0  0  0  0
    0.7635    2.2988   -0.5133 N   0  0  0  0  0  0  0  0  0  0  0  0
    1.0728    2.4280    0.4360 H   0  0  0  0  0  0  0  0  0  0  0  0
    0.8993    3.4246   -1.4362 C   0  0  0  0  0  0  0  0  0  0  0  0
   -0.0624    3.6321   -1.9096 H   0  0  0  0  0  0  0  0  0  0  0  0
    1.2364    4.3144   -0.9042 H   0  0  0  0  0  0  0  0  0  0  0  0
    1.6217    3.1753   -2.2163 H   0  0  0  0  0  0  0  0  0  0  0  0
  5  6  2  0  0  0  0
  5  7  1  0  0  0  0
  2  3  1  0  0  0  0
  2  4  1  0  0  0  0
  2  5  1  0  0  0  0
  1  2  1  0  0  0  0
 19 20  2  0  0  0  0
 19 21  1  0  0  0  0
 17 18  1  0  0  0  0
 13 14  1  0  0  0  0
 13 15  1  0  0  0  0
 13 16  1  0  0  0  0
 11 12  1  0  0  0  0
 11 13  1  0  0  0  0
 11 17  1  0  0  0  0
  9 10  1  0  0  0  0
  9 11  1  0  0  0  0
  9 19  1  0  0  0  0
  7  8  1  0  0  0  0
  7  9  1  0  0  0  0
 23 24  1  0  0  0  0
 23 25  1  0  0  0  0
 23 26  1  0  0  0  0
 21 22  1  0  0  0  0
 21 23  1  0  0  0  0
M  END
$$$$
default_name
  -OEChem-01062215323D

 26 25  0     1  0  0  0  0  0999 V2000
   -2.8882   -3.2497    1.2537 H   0  0  0  0  0  0  0  0  0  0  0  0
   -2.8032   -2.3157    0.7017 C   0  0  0  0  0  0  0  0  0  0  0  0
   -3.5012   -1.5857    1.1067 H   0  0  0  0  0  0  0  0  0  0  0  0
   -3.0182   -2.4907   -0.3513 H   0  0  0  0  0  0  0  0  0  0  0  0
   -1.3942   -1.7897    0.8407 C   0  0  0  0  0  0  0  0  0  0  0  0
   -0.5672   -2.4077    1.5007 O   0  0  0  0  0  0  0  0  0  0  0  0
   -1.1222   -0.6447    0.2217 N   0  0  0  0  0  0  0  0  0  0  0  0
   -1.8592   -0.1777   -0.2863 H   0  0  0  0  0  0  0  0  0  0  0  0
    0.1838    0.0363    0.2367 C   0  0  1  0  0  0  0  0  0  0  0  0
    0.3023    0.5423    1.1942 H   0  0  0  0  0  0  0  0  0  0  0  0
    1.3516   -0.9595    0.0809 C   0  0  1  0  0  0  0  0  0  0  0  0
    2.2845   -0.3963    0.0970 H   0  0  0  0  0  0  0  0  0  0  0  0
    1.4249   -2.0117    1.1857 C   0  0  0  0  0  0  0  0  0  0  0  0
    0.5696   -2.6858    1.1258 H   0  0  0  0  0  0  0  0  0  0  0  0
    2.3432   -2.5891    1.0859 H   0  0  0  0  0  0  0  0  0  0  0  0
    1.4213   -1.5213    2.1595 H   0  0  0  0  0  0  0  0  0  0  0  0
    1.2693   -1.6464   -1.1433 O   0  0  0  0  0  0  0  0  0  0  0  0
    1.9539   -2.3184   -1.1538 H   0  0  0  0  0  0  0  0  0  0  0  0
    0.2539    1.1080   -0.8581 C   0  0  0  0  0  0  0  0  0  0  0  0
   -0.3983    0.9965   -1.8961 O   0  0  0  0  0  0  0  0  0  0  0  0
    1.0295    2.1744   -0.6180 N   0  0  0  0  0  0  0  0  0  0  0  0
    1.5229    2.2172    0.2585 H   0  0  0  0  0  0  0  0  0  0  0  0
    1.2040    3.2823   -1.5559 C   0  0  0  0  0  0  0  0  0  0  0  0
    0.2285    3.6765   -1.8476 H   0  0  0  0  0  0  0  0  0  0  0  0
    1.7906    4.0794   -1.0987 H   0  0  0  0  0  0  0  0  0  0  0  0
    1.7153    2.9272   -2.4532 H   0  0  0  0  0  0  0  0  0  0  0  0
  5  6  2  0  0  0  0
  5  7  1  0  0  0  0
  2  3  1  0  0  0  0
  2  4  1  0  0  0  0
  2  5  1  0  0  0  0
  1  2  1  0  0  0  0
 19 20  2  0  0  0  0
 19 21  1  0  0  0  0
 17 18  1  0  0  0  0
 13 14  1  0  0  0  0
 13 15  1  0  0  0  0
 13 16  1  0  0  0  0
 11 12  1  0  0  0  0
 11 13  1  0  0  0  0
 11 17  1  0  0  0  0
  9 10  1  0  0  0  0
  9 11  1  0  0  0  0
  9 19  1  0  0  0  0
  7  8  1  0  0  0  0
  7  9  1  0  0  0  0
 23 24  1  0  0  0  0
 23 25  1  0  0  0  0
 23 26  1  0  0  0  0
 21 22  1  0  0  0  0
 21 23  1  0  0  0  0
M  END
$$$$
default_name
  -OEChem-01062215323D

 26 25  0     1  0  0  0  0  0999 V2000
   -2.8882   -3.2497    1.2537 H   0  0  0  0  0  0  0  0  0  0  0  0
   -2.8032   -2.3157    0.7017 C   0  0  0  0  0  0  0  0  0  0  0  0
   -3.5012   -1.5857    1.1067 H   0  0  0  0  0  0  0  0  0  0  0  0
   -3.0182   -2.4907   -0.3513 H   0  0  0  0  0  0  0  0  0  0  0  0
   -1.3942   -1.7897    0.8407 C   0  0  0  0  0  0  0  0  0  0  0  0
   -0.5672   -2.4077    1.5007 O   0  0  0  0  0  0  0  0  0  0  0  0
   -1.1222   -0.6447    0.2217 N   0  0  0  0  0  0  0  0  0  0  0  0
   -1.8592   -0.1777   -0.2863 H   0  0  0  0  0  0  0  0  0  0  0  0
    0.1838    0.0363    0.2367 C   0  0  1  0  0  0  0  0  0  0  0  0
    0.3023    0.5423    1.1942 H   0  0  0  0  0  0  0  0  0  0  0  0
    1.3516   -0.9595    0.0809 C   0  0  1  0  0  0  0  0  0  0  0  0
    2.2845   -0.3963    0.0970 H   0  0  0  0  0  0  0  0  0  0  0  0
    1.4249   -2.0117    1.1857 C   0  0  0  0  0  0  0  0  0  0  0  0
    0.5696   -2.6858    1.1258 H   0  0  0  0  0  0  0  0  0  0  0  0
    2.3432   -2.5891    1.0859 H   0  0  0  0  0  0  0  0  0  0  0  0
    1.4213   -1.5213    2.1595 H   0  0  0  0  0  0  0  0  0  0  0  0
    1.2693   -1.6464   -1.1433 O   0  0  0  0  0  0  0  0  0  0  0  0
    1.9539   -2.3184   -1.1538 H   0  0  0  0  0  0  0  0  0  0  0  0
    0.2539    1.1080   -0.8581 C   0  0  0  0  0  0  0  0  0  0  0  0
   -0.5834    1.1481   -1.7595 O   0  0  0  0  0  0  0  0  0  0  0  0
    1.2445    2.0065   -0.7686 N   0  0  0  0  0  0  0  0  0  0  0  0
    1.8866    1.9326    0.0032 H   0  0  0  0  0  0  0  0  0  0  0  0
    1.4504    3.0900   -1.7284 C   0  0  0  0  0  0  0  0  0  0  0  0
    0.5289    3.6649   -1.8397 H   0  0  0  0  0  0  0  0  0  0  0  0
    2.2474    3.7523   -1.3897 H   0  0  0  0  0  0  0  0  0  0  0  0
    1.7170    2.6730   -2.7018 H   0  0  0  0  0  0  0  0  0  0  0  0
  5  6  2  0  0  0  0
  5  7  1  0  0  0  0
  2  3  1  0  0  0  0
  2  4  1  0  0  0  0
  2  5  1  0  0  0  0
  1  2  1  0  0  0  0
 19 20  2  0  0  0  0
 19 21  1  0  0  0  0
 17 18  1  0  0  0  0
 13 14  1  0  0  0  0
 13 15  1  0  0  0  0
 13 16  1  0  0  0  0
 11 12  1  0  0  0  0
 11 13  1  0  0  0  0
 11 17  1  0  0  0  0
  9 10  1  0  0  0  0
  9 11  1  0  0  0  0
  9 19  1  0  0  0  0
  7  8  1  0  0  0  0
  7  9  1  0  0  0  0
 23 24  1  0  0  0  0
 23 25  1  0  0  0  0
 23 26  1  0  0  0  0
 21 22  1  0  0  0  0
 21 23  1  0  0  0  0
M  END
$$$$
